REMARK  Name = ZINC36393900
REMARK  14 active torsions:
REMARK  status: ('A' for Active; 'I' for Inactive)
REMARK    1  A    between atoms: C_1  and  C_2
REMARK    2  A    between atoms: C_2  and  C_3
REMARK    3  A    between atoms: C_3  and  N_4
REMARK    4  A    between atoms: N_4  and  C_5
REMARK    5  A    between atoms: N_4  and  C_22
REMARK    6  A    between atoms: C_5  and  C_6
REMARK    7  A    between atoms: N_8  and  C_9
REMARK    8  A    between atoms: C_9  and  C_10
REMARK    9  A    between atoms: N_12  and  C_13
REMARK   10  A    between atoms: C_14  and  C_21
REMARK   11  A    between atoms: C_16  and  C_20
REMARK   12  A    between atoms: C_18  and  C_19
REMARK   13  A    between atoms: C_22  and  C_24
REMARK   14  A    between atoms: C_22  and  C_25
REMARK                            x       y       z     vdW  Elec       q    Type
REMARK                         _______ _______ _______ _____ _____    ______ ____
ROOT
ATOM      1  C   UNL     1      -4.200  -0.577  -1.331  0.00  0.00    +0.197 C 
ATOM      2  O   UNL     1      -3.310   0.113  -1.784  0.00  0.00    -0.278 OA
ATOM      3  N   UNL     1      -5.107  -1.134  -2.157  0.00  0.00    -0.308 N 
ATOM      4  H   UNL     1      -5.819  -1.685  -1.795  0.00  0.00    +0.149 HD
ENDROOT
BRANCH   1   5
ATOM      5  C   UNL     1      -4.290  -0.811   0.155  0.00  0.00    +0.019 C 
BRANCH   5   6
ATOM      6  N   UNL     1      -3.194  -0.102   0.830  0.00  0.00    +0.390 N 
ATOM      7  H   UNL     1      -2.312  -0.387   0.430  0.00  0.00    -0.080 HD
BRANCH   6   8
ATOM      8  C   UNL     1      -3.210  -0.426   2.262  0.00  0.00    -0.039 C 
ATOM      9  C   UNL     1      -3.289  -1.943   2.441  0.00  0.00    -0.008 C 
BRANCH   8  10
ATOM     10  C   UNL     1      -1.950   0.091   2.908  0.00  0.00    -0.047 A 
ATOM     11  C   UNL     1      -0.775   0.151   2.182  0.00  0.00    +0.003 A 
ATOM     12  C   UNL     1       0.380   0.626   2.774  0.00  0.00    +0.000 A 
ATOM     13  C   UNL     1       0.361   1.041   4.093  0.00  0.00    +0.001 A 
ATOM     14  C   UNL     1      -0.813   0.981   4.820  0.00  0.00    +0.015 A 
ATOM     15  C   UNL     1      -1.971   0.511   4.226  0.00  0.00    +0.019 A 
ATOM     16 BR   UNL     1      -3.579   0.435   5.218  0.00  0.00    -0.050 Br
ENDBRANCH   8  10
ENDBRANCH   6   8
BRANCH   6  17
ATOM     17  C   UNL     1      -3.366   1.346   0.653  0.00  0.00    -0.078 C 
BRANCH  17  19
ATOM     18  C   UNL     1      -2.229   3.564   0.835  0.00  0.00    +0.002 C 
ATOM     19  C   UNL     1      -2.121   2.074   1.166  0.00  0.00    -0.022 C 
ENDBRANCH  17  19
ENDBRANCH   6  17
ENDBRANCH   5   6
ENDBRANCH   1   5
BRANCH   3  20
ATOM     20  C   UNL     1      -5.020  -0.906  -3.601  0.00  0.00    +0.200 C 
BRANCH  20  21
ATOM     21  C   UNL     1      -6.144  -1.634  -4.293  0.00  0.00    +0.234 C 
ATOM     22  O   UNL     1      -6.940  -2.279  -3.644  0.00  0.00    -0.274 OA
ATOM     23  N   UNL     1      -6.265  -1.568  -5.634  0.00  0.00    -0.284 N 
ATOM     24  H   UNL     1      -5.672  -0.997  -6.147  0.00  0.00    +0.155 HD
BRANCH  23  25
ATOM     25  C   UNL     1      -7.246  -2.323  -6.286  0.00  0.00    +0.039 A 
ATOM     26  C   UNL     1      -8.136  -1.705  -7.155  0.00  0.00    -0.029 A 
ATOM     27  C   UNL     1      -9.103  -2.454  -7.797  0.00  0.00    +0.008 A 
ATOM     28  C   UNL     1      -9.186  -3.816  -7.575  0.00  0.00    -0.050 A 
ATOM     29  C   UNL     1      -8.301  -4.434  -6.710  0.00  0.00    +0.008 A 
ATOM     30  C   UNL     1      -7.328  -3.692  -6.070  0.00  0.00    -0.029 A 
ATOM     31  C   UNL     1      -6.360  -4.367  -5.133  0.00  0.00    +0.045 C 
ATOM     32  C   UNL     1     -10.242  -4.629  -8.278  0.00  0.00    +0.044 C 
ATOM     33  C   UNL     1      -8.047  -0.221  -7.397  0.00  0.00    +0.045 C 
ENDBRANCH  23  25
ENDBRANCH  20  21
ENDBRANCH   3  20
TORSDOF 9
