REMARK  Name = ZINC15857026
REMARK  6 active torsions:
REMARK  status: ('A' for Active; 'I' for Inactive)
REMARK    1  A    between atoms: C_1  and  C_2
REMARK    2  A    between atoms: C_5  and  N_9
REMARK    3  A    between atoms: C_6  and  O_8
REMARK    4  A    between atoms: C_10  and  C_12
REMARK    5  A    between atoms: C_13  and  C_23
REMARK    6  A    between atoms: N_19  and  C_22
REMARK                            x       y       z     vdW  Elec       q    Type
REMARK                         _______ _______ _______ _____ _____    ______ ____
ROOT
ATOM      1  N   UNL     1       2.403   1.105  -0.014  0.00  0.00    -0.278 N 
ATOM      2  C   UNL     1       2.426  -0.240   0.081  0.00  0.00    +0.255 C 
ATOM      3  O   UNL     1       1.384  -0.868   0.088  0.00  0.00    -0.269 OA
ATOM      4  H   UNL     1       3.232   1.599  -0.100  0.00  0.00    +0.155 HD
ENDROOT
BRANCH   2   5
ATOM      5  C   UNL     1       3.708  -0.945   0.177  0.00  0.00    +0.080 A 
ATOM      6  C   UNL     1       3.936  -2.286   0.284  0.00  0.00    -0.017 A 
ATOM      7  C   UNL     1       5.246  -2.765   0.360  0.00  0.00    +0.076 A 
ATOM      8  C   UNL     1       6.263  -1.783   0.328  0.00  0.00    +0.116 A 
ATOM      9  S   UNL     1       5.357  -0.263   0.188  0.00  0.00    -0.064 S 
ATOM     10  N   UNL     1       7.548  -2.104   0.398  0.00  0.00    -0.230 NA
ATOM     11  C   UNL     1       7.939  -3.346   0.499  0.00  0.00    +0.203 A 
ATOM     12  N   UNL     1       7.056  -4.374   0.539  0.00  0.00    -0.302 N 
ATOM     13  C   UNL     1       5.727  -4.160   0.476  0.00  0.00    +0.262 A 
ATOM     14  O   UNL     1       4.942  -5.091   0.513  0.00  0.00    -0.267 OA
ATOM     15  C   UNL     1       7.557  -5.746   0.654  0.00  0.00    +0.153 C 
ATOM     16  C   UNL     1       2.777  -3.249   0.317  0.00  0.00    +0.046 C 
ENDBRANCH   2   5
BRANCH   1  21
ATOM     17  C   UNL     1      -2.556   3.867   0.092  0.00  0.00    +0.044 C 
ATOM     18  C   UNL     1      -1.239   3.136   0.063  0.00  0.00    -0.047 A 
ATOM     19  C   UNL     1      -1.131   1.887   0.646  0.00  0.00    +0.005 A 
ATOM     20  C   UNL     1       0.076   1.214   0.626  0.00  0.00    +0.027 A 
ATOM     21  C   UNL     1       1.180   1.787   0.012  0.00  0.00    +0.076 A 
ATOM     22  C   UNL     1       1.069   3.043  -0.580  0.00  0.00    +0.138 A 
ATOM     23  C   UNL     1      -0.143   3.714  -0.551  0.00  0.00    +0.050 A 
BRANCH  22  24
ATOM     24  O   UNL     1       2.147   3.610  -1.183  0.00  0.00    -0.505 OA
ATOM     25  H   UNL     1       2.231   3.394  -2.122  0.00  0.00    +0.292 HD
ENDBRANCH  22  24
ENDBRANCH   1  21
TORSDOF 3
