REMARK  Name = ZINC12541229
REMARK  15 active torsions:
REMARK  status: ('A' for Active; 'I' for Inactive)
REMARK    1  A    between atoms: C_1  and  C_2
REMARK    2  A    between atoms: C_2  and  N_62
REMARK    3  A    between atoms: C_3  and  C_4
REMARK    4  A    between atoms: C_3  and  N_62
REMARK    5  A    between atoms: C_4  and  C_6
REMARK    6  A    between atoms: C_4  and  O_23
REMARK    7  A    between atoms: C_6  and  O_7
REMARK    8  A    between atoms: O_7  and  C_8
REMARK    9  A    between atoms: C_8  and  C_9
REMARK   10  A    between atoms: C_8  and  C_16
REMARK   11  A    between atoms: C_24  and  C_25
REMARK   12  A    between atoms: C_24  and  N_62
REMARK   13  A    between atoms: C_25  and  C_27
REMARK   14  A    between atoms: C_25  and  O_34
REMARK   15  A    between atoms: C_31  and  O_33
REMARK                            x       y       z     vdW  Elec       q    Type
REMARK                         _______ _______ _______ _____ _____    ______ ____
ROOT
ATOM      1  C   UNL     1      -0.085   9.076  -2.961  0.00  0.00    +0.124 C 
ENDROOT
BRANCH   1   2
ATOM      2  O   UNL     1      -0.841   9.854  -2.032  0.00  0.00    -0.391 OA
ATOM      3  H   UNL     1      -1.797   9.721  -2.094  0.00  0.00    +0.210 HD
ENDBRANCH   1   2
BRANCH   1   4
ATOM      4  C   UNL     1      -0.441   7.597  -2.796  0.00  0.00    -0.045 C 
BRANCH   4   5
ATOM      5  N   UNL     1      -0.073   7.171  -1.429  0.00  0.00    +0.383 N 
ATOM      6  H   UNL     1      -0.338   7.909  -0.767  0.00  0.00    -0.082 HD
BRANCH   5   8
ATOM      7  C   UNL     1      -2.285   6.244  -0.946  0.00  0.00    -0.017 C 
ATOM      8  C   UNL     1      -0.793   5.929  -1.076  0.00  0.00    -0.082 C 
ENDBRANCH   5   8
BRANCH   5   9
ATOM      9  C   UNL     1       1.386   6.950  -1.344  0.00  0.00    -0.042 C 
BRANCH   9  10
ATOM     10  C   UNL     1       1.790   6.904   0.130  0.00  0.00    +0.128 C 
BRANCH  10  11
ATOM     11  C   UNL     1       3.293   6.873   0.238  0.00  0.00    -0.017 A 
ATOM     12  C   UNL     1       3.975   5.685   0.049  0.00  0.00    +0.006 A 
ATOM     13  C   UNL     1       5.354   5.654   0.141  0.00  0.00    +0.004 A 
ATOM     14  C   UNL     1       6.054   6.809   0.434  0.00  0.00    +0.045 A 
ATOM     15  C   UNL     1       5.372   8.002   0.625  0.00  0.00    +0.117 A 
ATOM     16  C   UNL     1       3.988   8.031   0.526  0.00  0.00    +0.051 A 
BRANCH  15  17
ATOM     17  O   UNL     1       6.058   9.141   0.907  0.00  0.00    -0.507 OA
ATOM     18  H   UNL     1       6.322   9.646   0.126  0.00  0.00    +0.292 HD
ENDBRANCH  15  17
ENDBRANCH  10  11
BRANCH  10  19
ATOM     19  O   UNL     1       1.245   5.730   0.737  0.00  0.00    -0.389 OA
ATOM     20  H   UNL     1       1.543   4.904   0.333  0.00  0.00    +0.210 HD
ENDBRANCH  10  19
ENDBRANCH   9  10
ENDBRANCH   5   9
ENDBRANCH   4   5
ENDBRANCH   1   4
BRANCH   1  21
ATOM     21  C   UNL     1      -0.412   9.523  -4.387  0.00  0.00    +0.190 C 
BRANCH  21  22
ATOM     22  O   UNL     1       0.028  10.870  -4.576  0.00  0.00    -0.365 OA
BRANCH  22  23
ATOM     23  C   UNL     1      -0.231  11.387  -5.883  0.00  0.00    +0.178 C 
BRANCH  23  24
ATOM     24  C   UNL     1      -0.441  12.877  -5.800  0.00  0.00    -0.014 A 
ATOM     25  C   UNL     1       0.344  13.640  -4.956  0.00  0.00    +0.009 A 
ATOM     26  C   UNL     1       0.156  15.007  -4.882  0.00  0.00    +0.039 A 
ATOM     27  C   UNL     1      -0.827  15.612  -5.647  0.00  0.00    +0.123 A 
ATOM     28  C   UNL     1      -1.617  14.846  -6.489  0.00  0.00    +0.039 A 
ATOM     29  C   UNL     1      -1.423  13.480  -6.564  0.00  0.00    +0.009 A 
ATOM     30  F   UNL     1      -1.015  16.947  -5.573  0.00  0.00    -0.205 F 
ENDBRANCH  23  24
BRANCH  23  31
ATOM     31  C   UNL     1       0.943  11.095  -6.781  0.00  0.00    -0.014 A 
ATOM     32  C   UNL     1       2.227  11.119  -6.270  0.00  0.00    +0.009 A 
ATOM     33  C   UNL     1       3.304  10.846  -7.092  0.00  0.00    +0.039 A 
ATOM     34  C   UNL     1       3.097  10.558  -8.430  0.00  0.00    +0.123 A 
ATOM     35  C   UNL     1       1.810  10.539  -8.942  0.00  0.00    +0.039 A 
ATOM     36  C   UNL     1       0.735  10.807  -8.117  0.00  0.00    +0.009 A 
ATOM     37  F   UNL     1       4.149  10.296  -9.236  0.00  0.00    -0.205 F 
ENDBRANCH  23  31
ENDBRANCH  22  23
ENDBRANCH  21  22
ENDBRANCH   1  21
TORSDOF 14
