REMARK  Name = ZINC48911368
REMARK  9 active torsions:
REMARK  status: ('A' for Active; 'I' for Inactive)
REMARK    1  A    between atoms: C_1  and  C_2
REMARK    2  A    between atoms: C_3  and  N_9
REMARK    3  A    between atoms: C_10  and  C_12
REMARK    4  A    between atoms: N_14  and  C_15
REMARK    5  A    between atoms: C_15  and  C_16
REMARK    6  A    between atoms: C_16  and  C_18
REMARK    7  A    between atoms: C_16  and  N_25
REMARK    8  A    between atoms: N_25  and  C_26
REMARK    9  A    between atoms: N_25  and  C_27
REMARK                            x       y       z     vdW  Elec       q    Type
REMARK                         _______ _______ _______ _____ _____    ______ ____
ROOT
ATOM      1  C   UNL     1       0.063   0.840  -5.301  0.00  0.00    +0.299 C 
ATOM      2  O   UNL     1      -0.032   2.021  -5.565  0.00  0.00    -0.265 OA
ATOM      3  N   UNL     1       0.234  -0.060  -6.290  0.00  0.00    -0.309 N 
ATOM      4  H   UNL     1       0.309  -1.004  -6.079  0.00  0.00    +0.149 HD
ENDROOT
BRANCH   1   6
ATOM      5  N   UNL     1      -0.178   1.284  -2.892  0.00  0.00    -0.277 N 
ATOM      6  C   UNL     1      -0.008   0.384  -3.881  0.00  0.00    +0.303 C 
ATOM      7  O   UNL     1       0.087  -0.797  -3.617  0.00  0.00    -0.265 OA
ATOM      8  H   UNL     1      -0.334   2.217  -3.107  0.00  0.00    +0.155 HD
BRANCH   5  11
ATOM      9  C   UNL     1      -1.333   2.981  -0.922  0.00  0.00    +0.047 C 
ATOM     10  C   UNL     1      -0.682   1.670  -0.563  0.00  0.00    -0.011 A 
ATOM     11  C   UNL     1      -0.131   0.873  -1.558  0.00  0.00    +0.038 A 
ATOM     12  C   UNL     1       0.469  -0.335  -1.222  0.00  0.00    +0.023 A 
ATOM     13  C   UNL     1       0.514  -0.740   0.098  0.00  0.00    +0.003 A 
ATOM     14  C   UNL     1      -0.036   0.056   1.086  0.00  0.00    +0.020 A 
ATOM     15  C   UNL     1      -0.628   1.263   0.756  0.00  0.00    +0.046 A 
ATOM     16 CL   UNL     1      -1.311   2.262   2.001  0.00  0.00    -0.083 Cl
ENDBRANCH   5  11
ENDBRANCH   1   6
BRANCH   3  17
ATOM     17  C   UNL     1       0.304   0.388  -7.683  0.00  0.00    +0.094 C 
BRANCH  17  18
ATOM     18  C   UNL     1       0.368  -0.830  -8.607  0.00  0.00    -0.020 C 
BRANCH  18  19
ATOM     19  C   UNL     1       1.670  -1.558  -8.388  0.00  0.00    -0.041 A 
ATOM     20  C   UNL     1       1.702  -2.695  -7.603  0.00  0.00    +0.003 A 
ATOM     21  C   UNL     1       2.895  -3.363  -7.402  0.00  0.00    +0.000 A 
ATOM     22  C   UNL     1       4.057  -2.895  -7.986  0.00  0.00    +0.001 A 
ATOM     23  C   UNL     1       4.026  -1.758  -8.772  0.00  0.00    +0.020 A 
ATOM     24  C   UNL     1       2.831  -1.093  -8.978  0.00  0.00    +0.043 A 
ATOM     25 CL   UNL     1       2.790   0.331  -9.970  0.00  0.00    -0.083 Cl
ENDBRANCH  18  19
BRANCH  18  26
ATOM     26  N   UNL     1      -0.753  -1.731  -8.310  0.00  0.00    +0.382 N 
ATOM     27  C   UNL     1      -2.017  -0.988  -8.407  0.00  0.00    -0.096 C 
ATOM     28  C   UNL     1      -0.761  -2.839  -9.274  0.00  0.00    -0.096 C 
ATOM     29  H   UNL     1      -0.650  -2.099  -7.376  0.00  0.00    -0.082 HD
ENDBRANCH  18  26
ENDBRANCH  17  18
ENDBRANCH   3  17
TORSDOF 6
