REMARK  Name = ZINC20153602
REMARK  13 active torsions:
REMARK  status: ('A' for Active; 'I' for Inactive)
REMARK    1  A    between atoms: C_1  and  C_2
REMARK    2  A    between atoms: C_2  and  N_3
REMARK    3  A    between atoms: N_6  and  C_9
REMARK    4  A    between atoms: C_9  and  C_10
REMARK    5  A    between atoms: C_10  and  C_11
REMARK    6  A    between atoms: C_11  and  N_12
REMARK    7  A    between atoms: N_12  and  C_13
REMARK    8  A    between atoms: C_13  and  N_15
REMARK    9  A    between atoms: N_15  and  C_16
REMARK   10  A    between atoms: C_22  and  C_34
REMARK   11  A    between atoms: C_24  and  N_26
REMARK   12  A    between atoms: N_29  and  C_32
REMARK   13  A    between atoms: C_32  and  C_33
REMARK                            x       y       z     vdW  Elec       q    Type
REMARK                         _______ _______ _______ _____ _____    ______ ____
ROOT
ATOM      1  C   UNL     1      -2.350   1.574  -0.033  0.00  0.00    +0.033 A 
ATOM      2  C   UNL     1      -2.236   0.180  -0.020  0.00  0.00    +0.025 A 
ATOM      3  C   UNL     1      -3.340  -0.613  -0.066  0.00  0.00    +0.030 A 
ATOM      4  C   UNL     1      -4.619  -0.034  -0.139  0.00  0.00    +0.073 A 
ATOM      5  C   UNL     1      -4.741   1.377  -0.158  0.00  0.00    +0.005 A 
ATOM      6  C   UNL     1      -3.588   2.175  -0.104  0.00  0.00    +0.033 A 
ATOM      7  C   UNL     1      -6.026   1.953  -0.231  0.00  0.00    -0.038 A 
ATOM      8  C   UNL     1      -7.105   1.123  -0.281  0.00  0.00    +0.047 A 
ATOM      9  C   UNL     1      -6.918  -0.266  -0.258  0.00  0.00    +0.122 A 
ATOM     10  N   UNL     1      -5.716  -0.799  -0.190  0.00  0.00    -0.232 NA
ATOM     11  C   UNL     1      -6.200   3.450  -0.255  0.00  0.00    +0.044 C 
ENDROOT
BRANCH   9  12
ATOM     12  N   UNL     1      -8.027  -1.099  -0.309  0.00  0.00    -0.319 N 
ATOM     13  C   UNL     1      -8.965  -0.795   0.780  0.00  0.00    +0.088 C 
ATOM     14  C   UNL     1     -10.207  -1.679   0.642  0.00  0.00    -0.060 C 
ATOM     15  N   UNL     1      -9.805  -3.092   0.677  0.00  0.00    +0.382 N 
ATOM     16  C   UNL     1      -8.867  -3.397  -0.413  0.00  0.00    -0.060 C 
ATOM     17  C   UNL     1      -7.625  -2.513  -0.275  0.00  0.00    +0.088 C 
ATOM     18  H   UNL     1      -9.289  -3.276   1.631  0.00  0.00    -0.082 HD
BRANCH  15  19
ATOM     19  C   UNL     1     -10.979  -3.974   0.623  0.00  0.00    -0.082 C 
ATOM     20  C   UNL     1     -11.804  -3.803   1.899  0.00  0.00    -0.017 C 
ENDBRANCH  15  19
ENDBRANCH   9  12
BRANCH   1  21
ATOM     21  N   UNL     1      -1.197   2.366   0.021  0.00  0.00    -0.297 N 
ATOM     22  H   UNL     1      -1.110   3.255  -0.621  0.00  0.00    +0.154 HD
BRANCH  21  23
ATOM     23  C   UNL     1      -0.194   2.039   0.859  0.00  0.00    +0.135 C 
ATOM     24  S   UNL     1      -0.386   0.741   1.958  0.00  0.00    -0.019 S 
BRANCH  23  25
ATOM     25  N   UNL     1       0.963   2.730   0.828  0.00  0.00    -0.326 N 
ATOM     26  H   UNL     1       1.086   3.564   0.121  0.00  0.00    +0.148 HD
BRANCH  25  27
ATOM     27  C   UNL     1       2.055   2.371   1.735  0.00  0.00    +0.104 C 
BRANCH  27  28
ATOM     28  C   UNL     1       3.244   3.304   1.496  0.00  0.00    +0.034 C 
BRANCH  28  29
ATOM     29  C   UNL     1       4.385   2.929   2.443  0.00  0.00    +0.086 C 
BRANCH  29  33
ATOM     30  N   UNL     1       8.255   4.449   1.692  0.00  0.00    +0.381 N 
ATOM     31  C   UNL     1       7.680   4.659   3.028  0.00  0.00    -0.063 C 
ATOM     32  C   UNL     1       6.548   3.655   3.257  0.00  0.00    +0.066 C 
ATOM     33  N   UNL     1       5.526   3.825   2.215  0.00  0.00    -0.306 NA
ATOM     34  C   UNL     1       6.102   3.615   0.879  0.00  0.00    +0.066 C 
ATOM     35  C   UNL     1       7.234   4.620   0.650  0.00  0.00    -0.063 C 
ATOM     36  H   UNL     1       8.624   3.414   1.640  0.00  0.00    -0.082 HD
BRANCH  30  38
ATOM     37  C   UNL     1      10.119   4.933   0.180  0.00  0.00    -0.017 C 
ATOM     38  C   UNL     1       9.396   5.345   1.464  0.00  0.00    -0.082 C 
ENDBRANCH  30  38
ENDBRANCH  29  33
ENDBRANCH  28  29
ENDBRANCH  27  28
ENDBRANCH  25  27
ENDBRANCH  23  25
ENDBRANCH  21  23
ENDBRANCH   1  21
TORSDOF 10
