REMARK  Name = ZINC59112463
REMARK  12 active torsions:
REMARK  status: ('A' for Active; 'I' for Inactive)
REMARK    1  A    between atoms: C_1  and  C_2
REMARK    2  A    between atoms: C_2  and  C_22
REMARK    3  A    between atoms: C_4  and  N_11
REMARK    4  A    between atoms: C_7  and  C_9
REMARK    5  A    between atoms: C_7  and  C_10
REMARK    6  A    between atoms: N_11  and  C_12
REMARK    7  A    between atoms: C_12  and  N_14
REMARK    8  A    between atoms: N_14  and  C_15
REMARK    9  A    between atoms: C_22  and  N_23
REMARK   10  A    between atoms: N_23  and  C_24
REMARK   11  A    between atoms: C_24  and  N_26
REMARK   12  A    between atoms: N_26  and  C_27
REMARK                            x       y       z     vdW  Elec       q    Type
REMARK                         _______ _______ _______ _____ _____    ______ ____
ROOT
ATOM      1  C   UNL     1       0.132   1.220   0.477  0.00  0.00    +0.013 C 
ATOM      2  C   UNL     1       0.242  -0.307   0.471  0.00  0.00    -0.014 C 
ATOM      3  C   UNL     1      -1.125  -0.927   0.199  0.00  0.00    +0.030 C 
ATOM      4  C   UNL     1      -2.039  -0.778   1.412  0.00  0.00    +0.073 C 
ATOM      5  C   UNL     1      -1.416  -1.519   2.593  0.00  0.00    +0.028 C 
ATOM      6  C   UNL     1      -0.061  -0.920   2.953  0.00  0.00    -0.033 C 
ATOM      7  C   UNL     1       0.867  -0.816   1.757  0.00  0.00    +0.014 C 
ATOM      8  C   UNL     1       0.602  -1.854   3.990  0.00  0.00    +0.011 C 
ATOM      9  C   UNL     1      -0.252   0.443   3.624  0.00  0.00    +0.011 C 
ENDROOT
BRANCH   4  10
ATOM     10  N   UNL     1      -3.346  -1.376   1.105  0.00  0.00    -0.323 N 
ATOM     11  H   UNL     1      -3.415  -2.071   0.433  0.00  0.00    +0.148 HD
BRANCH  10  12
ATOM     12  C   UNL     1      -4.448  -0.958   1.758  0.00  0.00    +0.135 C 
ATOM     13  S   UNL     1      -4.326   0.270   2.945  0.00  0.00    -0.019 S 
BRANCH  12  14
ATOM     14  N   UNL     1      -5.647  -1.506   1.476  0.00  0.00    -0.295 N 
ATOM     15  H   UNL     1      -5.728  -2.151   0.756  0.00  0.00    +0.154 HD
BRANCH  14  16
ATOM     16  C   UNL     1      -6.775  -1.146   2.224  0.00  0.00    +0.068 A 
ATOM     17  C   UNL     1      -7.023   0.190   2.508  0.00  0.00    +0.026 A 
ATOM     18  C   UNL     1      -8.137   0.543   3.245  0.00  0.00    +0.002 A 
ATOM     19  C   UNL     1      -9.005  -0.432   3.700  0.00  0.00    +0.003 A 
ATOM     20  C   UNL     1      -8.762  -1.764   3.419  0.00  0.00    +0.040 A 
ATOM     21  C   UNL     1      -7.652  -2.124   2.678  0.00  0.00    +0.144 A 
ATOM     22  F   UNL     1      -7.417  -3.425   2.399  0.00  0.00    -0.204 F 
ENDBRANCH  14  16
ENDBRANCH  12  14
ENDBRANCH  10  12
ENDBRANCH   4  10
BRANCH   2  23
ATOM     23  C   UNL     1       1.173  -0.697  -0.698  0.00  0.00    +0.110 C 
BRANCH  23  24
ATOM     24  N   UNL     1       0.602  -0.217  -1.958  0.00  0.00    -0.326 N 
ATOM     25  H   UNL     1      -0.241   0.263  -1.957  0.00  0.00    +0.148 HD
BRANCH  24  26
ATOM     26  C   UNL     1       1.246  -0.444  -3.120  0.00  0.00    +0.135 C 
ATOM     27  S   UNL     1       2.734  -1.292  -3.122  0.00  0.00    -0.019 S 
BRANCH  26  28
ATOM     28  N   UNL     1       0.721  -0.002  -4.280  0.00  0.00    -0.295 N 
ATOM     29  H   UNL     1      -0.097   0.520  -4.274  0.00  0.00    +0.154 HD
BRANCH  28  30
ATOM     30  C   UNL     1       1.353  -0.299  -5.493  0.00  0.00    +0.068 A 
ATOM     31  C   UNL     1       1.943  -1.541  -5.685  0.00  0.00    +0.026 A 
ATOM     32  C   UNL     1       2.566  -1.830  -6.883  0.00  0.00    +0.002 A 
ATOM     33  C   UNL     1       2.604  -0.885  -7.892  0.00  0.00    +0.003 A 
ATOM     34  C   UNL     1       2.019   0.353  -7.706  0.00  0.00    +0.040 A 
ATOM     35  C   UNL     1       1.388   0.648  -6.511  0.00  0.00    +0.144 A 
ATOM     36  F   UNL     1       0.811   1.857  -6.330  0.00  0.00    -0.204 F 
ENDBRANCH  28  30
ENDBRANCH  26  28
ENDBRANCH  24  26
ENDBRANCH  23  24
ENDBRANCH   2  23
TORSDOF 9
