REMARK  Name = ZINC21161384
REMARK  9 active torsions:
REMARK  status: ('A' for Active; 'I' for Inactive)
REMARK    1  A    between atoms: C_1  and  C_2
REMARK    2  A    between atoms: C_5  and  C_38
REMARK    3  A    between atoms: N_8  and  C_10
REMARK    4  A    between atoms: C_10  and  C_11
REMARK    5  A    between atoms: C_11  and  C_12
REMARK    6  A    between atoms: C_12  and  N_13
REMARK    7  A    between atoms: C_22  and  C_23
REMARK    8  A    between atoms: C_22  and  C_24
REMARK    9  A    between atoms: N_26  and  C_27
REMARK                            x       y       z     vdW  Elec       q    Type
REMARK                         _______ _______ _______ _____ _____    ______ ____
ROOT
ATOM      1  N   UNL     1       4.119   7.148  -0.274  0.00  0.00    -0.281 N 
ATOM      2  C   UNL     1       4.302   7.594  -1.539  0.00  0.00    +0.264 C 
ATOM      3  O   UNL     1       4.281   6.840  -2.495  0.00  0.00    -0.268 OA
ATOM      4  C   UNL     1       4.523   9.036  -1.696  0.00  0.00    +0.106 A 
ATOM      5  C   UNL     1       4.553   9.813  -2.816  0.00  0.00    +0.048 A 
ATOM      6  C   UNL     1       4.780  11.120  -2.402  0.00  0.00    +0.038 A 
ATOM      7  C   UNL     1       4.897  11.155  -1.004  0.00  0.00    +0.057 A 
ATOM      8  N   UNL     1       4.741   9.846  -0.587  0.00  0.00    -0.333 N 
ATOM      9  C   UNL     1       4.788   9.302   0.772  0.00  0.00    +0.157 C 
ATOM     10  C   UNL     1       3.902   8.058   0.844  0.00  0.00    +0.128 C 
ATOM     11  C   UNL     1       4.198   7.317   2.150  0.00  0.00    +0.043 C 
ATOM     12  C   UNL     1       5.125  12.422  -0.447  0.00  0.00    +0.034 A 
ATOM     13  C   UNL     1       5.223  13.507  -1.244  0.00  0.00    +0.048 A 
ATOM     14  S   UNL     1       4.993  12.816  -2.873  0.00  0.00    -0.095 S 
ENDROOT
BRANCH  10  15
ATOM     15  C   UNL     1       2.458   8.489   0.847  0.00  0.00    +0.238 C 
ATOM     16  O   UNL     1       1.884   8.679   1.898  0.00  0.00    -0.273 OA
ATOM     17  N   UNL     1       1.805   8.664  -0.319  0.00  0.00    -0.311 N 
ATOM     18  H   UNL     1       2.325   8.492  -1.272  0.00  0.00    +0.149 HD
BRANCH  17  19
ATOM     19  C   UNL     1       0.401   9.084  -0.316  0.00  0.00    +0.073 C 
ATOM     20  C   UNL     1      -0.498   7.855  -0.166  0.00  0.00    +0.022 C 
ATOM     21  C   UNL     1      -1.907   8.299   0.233  0.00  0.00    +0.002 C 
ATOM     22  C   UNL     1      -1.815   9.371   1.321  0.00  0.00    +0.000 C 
ATOM     23  C   UNL     1      -2.312  10.707   0.764  0.00  0.00    +0.000 C 
ATOM     24  C   UNL     1      -1.239  11.309  -0.146  0.00  0.00    +0.000 C 
ATOM     25  C   UNL     1      -1.232  10.570  -1.485  0.00  0.00    +0.002 C 
ATOM     26  C   UNL     1       0.078   9.793  -1.633  0.00  0.00    +0.022 C 
ENDBRANCH  17  19
ENDBRANCH  10  15
BRANCH   1  27
ATOM     27  C   UNL     1       4.147   5.705  -0.019  0.00  0.00    +0.107 C 
BRANCH  27  28
ATOM     28  C   UNL     1       2.732   5.137  -0.153  0.00  0.00    +0.000 C 
BRANCH  28  29
ATOM     29  C   UNL     1       2.761   3.630   0.113  0.00  0.00    -0.077 C 
BRANCH  29  35
ATOM     30  C   UNL     1      -0.730   1.580   1.266  0.00  0.00    +0.005 C 
ATOM     31  C   UNL     1      -0.013   1.086   0.008  0.00  0.00    -0.031 C 
ATOM     32  C   UNL     1      -0.749   1.594  -1.235  0.00  0.00    +0.003 C 
ATOM     33  C   UNL     1      -0.713   3.125  -1.250  0.00  0.00    -0.031 C 
ATOM     34  C   UNL     1       0.743   3.596  -1.224  0.00  0.00    -0.076 C 
ATOM     35  N   UNL     1       1.403   3.085  -0.016  0.00  0.00    +0.380 N 
ATOM     36  C   UNL     1       1.423   1.616  -0.003  0.00  0.00    -0.076 C 
ATOM     37  C   UNL     1      -1.395   3.640  -2.518  0.00  0.00    +0.005 C 
ATOM     38  H   UNL     1       0.819   3.420   0.853  0.00  0.00    -0.082 HD
ENDBRANCH  29  35
ENDBRANCH  28  29
ENDBRANCH  27  28
ENDBRANCH   1  27
TORSDOF 6
