REMARK  Name = ZINC61594810
REMARK  11 active torsions:
REMARK  status: ('A' for Active; 'I' for Inactive)
REMARK    1  A    between atoms: C_1  and  C_2
REMARK    2  A    between atoms: C_2  and  C_3
REMARK    3  A    between atoms: C_3  and  N_4
REMARK    4  A    between atoms: C_10  and  S_11
REMARK    5  A    between atoms: S_11  and  C_12
REMARK    6  A    between atoms: C_12  and  C_14
REMARK    7  A    between atoms: C_12  and  C_20
REMARK    8  A    between atoms: N_17  and  C_19
REMARK    9  A    between atoms: C_20  and  C_22
REMARK   10  A    between atoms: C_20  and  N_24
REMARK   11  A    between atoms: C_22  and  C_23
REMARK                            x       y       z     vdW  Elec       q    Type
REMARK                         _______ _______ _______ _____ _____    ______ ____
ROOT
ATOM      1  C   UNL     1      -2.632  -3.798  -3.184  0.00  0.00    +0.073 C 
ENDROOT
BRANCH   1   2
ATOM      2  C   UNL     1      -3.764  -3.551  -4.148  0.00  0.00    +0.002 A 
ATOM      3  C   UNL     1      -4.861  -2.711  -3.931  0.00  0.00    +0.139 A 
ATOM      4  N   UNL     1      -5.626  -2.756  -4.991  0.00  0.00    -0.180 NA
ATOM      5  N   UNL     1      -5.039  -3.627  -5.918  0.00  0.00    -0.274 N 
ATOM      6  C   UNL     1      -3.895  -4.097  -5.379  0.00  0.00    +0.112 A 
ATOM      7  C   UNL     1      -5.570  -3.963  -7.241  0.00  0.00    +0.172 C 
ENDBRANCH   1   2
BRANCH   1   8
ATOM      8  S   UNL     1      -1.797  -2.230  -2.817  0.00  0.00    -0.079 S 
BRANCH   8  15
ATOM      9  N   UNL     1      -0.345  -0.622  -4.587  0.00  0.00    -0.271 N 
ATOM     10  C   UNL     1       0.113  -0.657  -5.855  0.00  0.00    +0.345 A 
ATOM     11  O   UNL     1       0.758   0.213  -6.412  0.00  0.00    -0.245 OA
ATOM     12  N   UNL     1      -0.274  -1.832  -6.394  0.00  0.00    -0.226 N 
ATOM     13  H   UNL     1      -0.088  -2.138  -7.296  0.00  0.00    +0.194 HD
ATOM     14  N   UNL     1      -0.991  -2.529  -5.412  0.00  0.00    -0.145 NA
ATOM     15  C   UNL     1      -1.020  -1.795  -4.337  0.00  0.00    +0.193 A 
BRANCH   9  16
ATOM     16  C   UNL     1      -0.152   0.475  -3.636  0.00  0.00    +0.129 C 
BRANCH  16  18
ATOM     17  C   UNL     1       1.344   1.395  -1.859  0.00  0.00    +0.005 C 
ATOM     18  C   UNL     1       1.142   0.249  -2.852  0.00  0.00    +0.018 C 
ENDBRANCH  16  18
ENDBRANCH   9  16
ENDBRANCH   8  15
ENDBRANCH   1   8
BRANCH   1  19
ATOM     19  C   UNL     1      -3.187  -4.396  -1.889  0.00  0.00    -0.057 C 
BRANCH  19  20
ATOM     20  N   UNL     1      -3.928  -5.626  -2.196  0.00  0.00    +0.381 N 
ATOM     21  H   UNL     1      -3.309  -6.291  -2.635  0.00  0.00    -0.090 HD
ATOM     22  H   UNL     1      -4.294  -6.020  -1.342  0.00  0.00    -0.090 HD
ATOM     23  H   UNL     1      -4.691  -5.412  -2.821  0.00  0.00    -0.090 HD
ENDBRANCH  19  20
BRANCH  19  24
ATOM     24  C   UNL     1      -2.031  -4.720  -0.941  0.00  0.00    -0.018 C 
ATOM     25  C   UNL     1      -2.590  -5.192   0.403  0.00  0.00    +0.002 C 
ENDBRANCH  19  24
ENDBRANCH   1  19
TORSDOF 8
