REMARK  Name = ZINC32666012
REMARK  6 active torsions:
REMARK  status: ('A' for Active; 'I' for Inactive)
REMARK    1  A    between atoms: C_1  and  O_2
REMARK    2  A    between atoms: O_2  and  C_3
REMARK    3  A    between atoms: C_7  and  C_9
REMARK    4  A    between atoms: N_13  and  C_21
REMARK    5  A    between atoms: C_15  and  C_16
REMARK    6  A    between atoms: C_15  and  C_18
REMARK                            x       y       z     vdW  Elec       q    Type
REMARK                         _______ _______ _______ _____ _____    ______ ____
ROOT
ATOM      1  C   UNL     1      -2.231   1.005  -0.391  0.00  0.00    +0.028 C 
ATOM      2  C   UNL     1      -2.349  -0.344  -0.303  0.00  0.00    +0.079 A 
ATOM      3  C   UNL     1      -3.463  -1.217  -0.723  0.00  0.00    +0.270 A 
ATOM      4  O   UNL     1      -4.471  -0.763  -1.233  0.00  0.00    -0.266 OA
ATOM      5  N   UNL     1      -3.314  -2.516  -0.523  0.00  0.00    -0.269 N 
ATOM      6  C   UNL     1      -2.173  -3.010   0.061  0.00  0.00    +0.116 A 
ATOM      7  C   UNL     1      -1.853  -4.338   0.352  0.00  0.00    +0.159 C 
ATOM      8  S   UNL     1      -1.201  -1.543   0.359  0.00  0.00    -0.064 S 
ENDROOT
BRANCH   5   9
ATOM      9  C   UNL     1      -4.334  -3.397  -0.905  0.00  0.00    +0.051 A 
ATOM     10  C   UNL     1      -4.265  -4.052  -2.128  0.00  0.00    +0.028 A 
ATOM     11  C   UNL     1      -5.270  -4.924  -2.500  0.00  0.00    +0.022 A 
ATOM     12  C   UNL     1      -6.349  -5.137  -1.661  0.00  0.00    +0.041 A 
ATOM     13  C   UNL     1      -6.423  -4.481  -0.444  0.00  0.00    +0.022 A 
ATOM     14  C   UNL     1      -5.418  -3.612  -0.065  0.00  0.00    +0.028 A 
ATOM     15 CL   UNL     1      -7.614  -6.228  -2.135  0.00  0.00    -0.084 Cl
ENDBRANCH   5   9
BRANCH   1  20
ATOM     16  C   UNL     1       1.398   1.497   0.430  0.00  0.00    +0.121 A 
ATOM     17  C   UNL     1       1.462   2.882   0.528  0.00  0.00    +0.045 A 
ATOM     18  C   UNL     1       0.330   3.650   0.325  0.00  0.00    +0.004 A 
ATOM     19  C   UNL     1      -0.873   3.047   0.022  0.00  0.00    +0.008 A 
ATOM     20  C   UNL     1      -0.951   1.653  -0.074  0.00  0.00    -0.020 A 
ATOM     21  C   UNL     1       0.198   0.879   0.127  0.00  0.00    +0.053 A 
BRANCH  16  23
ATOM     22  C   UNL     1       3.719   1.453   0.940  0.00  0.00    +0.277 C 
ATOM     23  O   UNL     1       2.514   0.750   0.632  0.00  0.00    -0.495 OA
ENDBRANCH  16  23
ENDBRANCH   1  20
BRANCH   7  24
ATOM     24  C   UNL     1      -0.550  -4.667   0.848  0.00  0.00    +0.113 C 
ATOM     25  N   UNL     1       0.483  -4.929   1.242  0.00  0.00    -0.190 NA
ENDBRANCH   7  24
BRANCH   7  26
ATOM     26  C   UNL     1      -2.826  -5.369   0.155  0.00  0.00    +0.113 C 
ATOM     27  N   UNL     1      -3.598  -6.188  -0.002  0.00  0.00    -0.190 NA
ENDBRANCH   7  26
TORSDOF 5
