REMARK  Name = ZINC62504596
REMARK  12 active torsions:
REMARK  status: ('A' for Active; 'I' for Inactive)
REMARK    1  A    between atoms: C_1  and  C_2
REMARK    2  A    between atoms: C_2  and  C_3
REMARK    3  A    between atoms: C_2  and  N_8
REMARK    4  A    between atoms: C_3  and  C_4
REMARK    5  A    between atoms: C_4  and  N_5
REMARK    6  A    between atoms: N_5  and  C_6
REMARK    7  A    between atoms: N_5  and  C_7
REMARK    8  A    between atoms: N_11  and  C_12
REMARK    9  A    between atoms: C_12  and  C_13
REMARK   10  A    between atoms: C_16  and  C_19
REMARK   11  A    between atoms: N_21  and  C_22
REMARK   12  A    between atoms: C_22  and  C_23
REMARK                            x       y       z     vdW  Elec       q    Type
REMARK                         _______ _______ _______ _____ _____    ______ ____
ROOT
ATOM      1  C   UNL     1       4.642  -1.684   3.582  0.00  0.00    -0.030 A 
ATOM      2  C   UNL     1       4.952  -0.794   4.595  0.00  0.00    +0.006 A 
ATOM      3  C   UNL     1       5.389  -1.261   5.818  0.00  0.00    +0.013 A 
ATOM      4  C   UNL     1       5.518  -2.635   6.031  0.00  0.00    +0.037 A 
ATOM      5  C   UNL     1       5.204  -3.526   5.004  0.00  0.00    +0.013 A 
ATOM      6  C   UNL     1       4.763  -3.046   3.788  0.00  0.00    +0.006 A 
ENDROOT
BRANCH   4   7
ATOM      7  C   UNL     1       5.986  -3.142   7.338  0.00  0.00    +0.244 C 
ATOM      8  O   UNL     1       6.259  -2.363   8.230  0.00  0.00    -0.270 OA
ATOM      9  N   UNL     1       6.110  -4.469   7.541  0.00  0.00    -0.303 N 
ATOM     10  H   UNL     1       5.892  -5.091   6.829  0.00  0.00    +0.150 HD
BRANCH   9  11
ATOM     11  C   UNL     1       6.574  -4.972   8.836  0.00  0.00    +0.200 C 
BRANCH  11  12
ATOM     12  C   UNL     1       6.624  -6.478   8.802  0.00  0.00    +0.228 C 
ATOM     13  O   UNL     1       6.304  -7.072   7.794  0.00  0.00    -0.274 OA
ATOM     14  N   UNL     1       7.024  -7.164   9.890  0.00  0.00    -0.328 N 
ATOM     15  H   UNL     1       7.280  -6.688  10.696  0.00  0.00    +0.145 HD
ATOM     16  H   UNL     1       7.057  -8.133   9.868  0.00  0.00    +0.145 HD
ENDBRANCH  11  12
ENDBRANCH   9  11
ENDBRANCH   4   7
BRANCH   1  17
ATOM     17  C   UNL     1       4.166  -1.166   2.249  0.00  0.00    +0.141 C 
BRANCH  17  21
ATOM     18  N   UNL     1       0.711  -0.489   1.189  0.00  0.00    -0.297 N 
ATOM     19  C   UNL     1       2.054  -0.600   1.174  0.00  0.00    +0.300 C 
ATOM     20  O   UNL     1       2.677  -0.297   0.175  0.00  0.00    -0.253 OA
ATOM     21  N   UNL     1       2.706  -1.046   2.266  0.00  0.00    -0.295 N 
ATOM     22  H   UNL     1       0.213  -0.731   1.986  0.00  0.00    +0.151 HD
ATOM     23  H   UNL     1       2.208  -1.288   3.062  0.00  0.00    +0.151 HD
BRANCH  18  25
ATOM     24  C   UNL     1      -0.019   1.526   0.010  0.00  0.00    +0.028 C 
ATOM     25  C   UNL     1       0.002  -0.004   0.002  0.00  0.00    +0.070 C 
BRANCH  25  26
ATOM     26  C   UNL     1      -1.433  -0.534   0.013  0.00  0.00    +0.003 C 
BRANCH  26  27
ATOM     27  C   UNL     1      -1.416  -2.058  -0.121  0.00  0.00    -0.078 C 
BRANCH  27  28
ATOM     28  N   UNL     1      -2.794  -2.566  -0.111  0.00  0.00    +0.376 N 
ATOM     29  C   UNL     1      -3.504  -2.079  -1.301  0.00  0.00    -0.097 C 
ATOM     30  C   UNL     1      -2.774  -4.035  -0.119  0.00  0.00    -0.097 C 
ATOM     31  H   UNL     1      -3.266  -2.241   0.719  0.00  0.00    -0.083 HD
ENDBRANCH  27  28
ENDBRANCH  26  27
ENDBRANCH  25  26
ENDBRANCH  18  25
ENDBRANCH  17  21
ENDBRANCH   1  17
TORSDOF 9
