REMARK  Name = ZINC40825019
REMARK  6 active torsions:
REMARK  status: ('A' for Active; 'I' for Inactive)
REMARK    1  A    between atoms: C_1  and  C_2
REMARK    2  A    between atoms: C_4  and  O_9
REMARK    3  A    between atoms: O_9  and  C_10
REMARK    4  A    between atoms: C_10  and  C_12
REMARK    5  A    between atoms: C_13  and  C_26
REMARK    6  A    between atoms: N_21  and  N_22
REMARK                            x       y       z     vdW  Elec       q    Type
REMARK                         _______ _______ _______ _____ _____    ______ ____
ROOT
ATOM      1  C   UNL     1       0.269  -4.853  -3.594  0.00  0.00    +0.215 A 
ATOM      2  C   UNL     1       0.392  -6.212  -3.692  0.00  0.00    +0.011 A 
ATOM      3  C   UNL     1       0.474  -6.500  -5.059  0.00  0.00    +0.043 A 
ATOM      4  C   UNL     1       0.400  -5.306  -5.738  0.00  0.00    +0.115 A 
ATOM      5  O   UNL     1       0.269  -4.330  -4.841  0.00  0.00    -0.452 OA
ATOM      6  C   UNL     1       0.460  -5.212  -7.241  0.00  0.00    +0.075 C 
ATOM      7  C   UNL     1       1.110  -6.478  -7.805  0.00  0.00    +0.014 C 
ATOM      8  C   UNL     1       0.404  -7.730  -7.273  0.00  0.00    +0.058 C 
ATOM      9  C   UNL     1       0.614  -7.792  -5.767  0.00  0.00    +0.072 C 
ATOM     10  N   UNL     1       0.896  -8.897  -5.149  0.00  0.00    -0.175 NA
ATOM     11  C   UNL     1       0.432  -7.201  -2.556  0.00  0.00    +0.048 C 
ENDROOT
BRANCH  10  12
ATOM     12  N   UNL     1       1.016 -10.092  -5.870  0.00  0.00    -0.248 N 
ATOM     13  C   UNL     1       1.314 -11.258  -5.217  0.00  0.00    +0.187 C 
ATOM     14  N   UNL     1       1.428 -12.395  -5.903  0.00  0.00    -0.370 N 
ATOM     15  N   UNL     1       1.490 -11.257  -3.896  0.00  0.00    -0.370 N 
ATOM     16  H   UNL     1       0.889 -10.093  -6.832  0.00  0.00    +0.192 HD
ATOM     17  H   UNL     1       1.301 -12.396  -6.865  0.00  0.00    +0.159 HD
ATOM     18  H   UNL     1       1.406 -10.429  -3.397  0.00  0.00    +0.159 HD
ATOM     19  H   UNL     1       1.700 -12.083  -3.434  0.00  0.00    +0.159 HD
ATOM     20  H   UNL     1       1.639 -13.221  -5.441  0.00  0.00    +0.159 HD
ENDBRANCH  10  12
BRANCH   1  21
ATOM     21  C   UNL     1       0.150  -4.092  -2.347  0.00  0.00    +0.380 C 
ATOM     22  O   UNL     1       0.162  -4.671  -1.278  0.00  0.00    -0.241 OA
BRANCH  21  23
ATOM     23  O   UNL     1       0.028  -2.749  -2.386  0.00  0.00    -0.420 OA
BRANCH  23  27
ATOM     24  C   UNL     1       2.489  -1.221   1.542  0.00  0.00    +0.045 C 
ATOM     25  C   UNL     1       1.220  -1.307   0.735  0.00  0.00    -0.029 A 
ATOM     26  C   UNL     1       1.209  -1.994  -0.464  0.00  0.00    +0.051 A 
ATOM     27  C   UNL     1       0.040  -2.073  -1.206  0.00  0.00    +0.132 A 
ATOM     28  C   UNL     1      -1.116  -1.461  -0.745  0.00  0.00    +0.048 A 
ATOM     29  C   UNL     1      -1.101  -0.774   0.454  0.00  0.00    +0.024 A 
ATOM     30  C   UNL     1       0.064  -0.702   1.196  0.00  0.00    +0.044 A 
ATOM     31 CL   UNL     1       0.078   0.156   2.705  0.00  0.00    -0.083 Cl
ENDBRANCH  23  27
ENDBRANCH  21  23
ENDBRANCH   1  21
TORSDOF 4
