REMARK  Name = ZINC20572213
REMARK  7 active torsions:
REMARK  status: ('A' for Active; 'I' for Inactive)
REMARK    1  A    between atoms: C_1  and  C_2
REMARK    2  A    between atoms: C_9  and  N_14
REMARK    3  A    between atoms: C_10  and  C_11
REMARK    4  A    between atoms: C_15  and  C_17
REMARK    5  A    between atoms: C_17  and  N_18
REMARK    6  A    between atoms: N_21  and  S_24
REMARK    7  A    between atoms: S_24  and  C_27
REMARK                            x       y       z     vdW  Elec       q    Type
REMARK                         _______ _______ _______ _____ _____    ______ ____
ROOT
ATOM      1  N   UNL     1       2.045  -3.765   2.301  0.00  0.00    -0.281 N 
ATOM      2  C   UNL     1       1.867  -2.442   2.119  0.00  0.00    +0.201 C 
ATOM      3  O   UNL     1       2.609  -1.650   2.661  0.00  0.00    -0.278 OA
ATOM      4  H   UNL     1       1.372  -4.483   1.810  0.00  0.00    +0.155 HD
ENDROOT
BRANCH   1  12
ATOM      5  C   UNL     1       8.032  -5.930   6.846  0.00  0.00    +0.008 C 
ATOM      6  C   UNL     1       7.013  -5.909   5.705  0.00  0.00    -0.009 C 
ATOM      7  C   UNL     1       5.929  -6.958   5.965  0.00  0.00    +0.008 C 
ATOM      8  C   UNL     1       5.050  -7.117   4.723  0.00  0.00    +0.037 C 
ATOM      9  C   UNL     1       4.554  -5.742   4.293  0.00  0.00    -0.023 A 
ATOM     10  C   UNL     1       5.165  -4.617   4.723  0.00  0.00    -0.004 A 
ATOM     11  S   UNL     1       4.253  -3.294   3.978  0.00  0.00    -0.077 S 
ATOM     12  C   UNL     1       3.076  -4.221   3.108  0.00  0.00    +0.084 A 
ATOM     13  C   UNL     1       3.413  -5.531   3.418  0.00  0.00    +0.068 A 
ATOM     14  C   UNL     1       6.354  -4.524   5.629  0.00  0.00    +0.046 C 
BRANCH  13  15
ATOM     15  C   UNL     1       2.649  -6.661   2.880  0.00  0.00    +0.244 C 
ATOM     16  O   UNL     1       2.971  -7.164   1.820  0.00  0.00    -0.270 OA
ATOM     17  N   UNL     1       1.589  -7.142   3.560  0.00  0.00    -0.325 N 
ATOM     18  H   UNL     1       1.015  -7.989   3.156  0.00  0.00    +0.145 HD
ATOM     19  H   UNL     1       1.298  -6.687   4.518  0.00  0.00    +0.145 HD
ENDBRANCH  13  15
ENDBRANCH   1  12
BRANCH   2  20
ATOM     20  C   UNL     1       0.746  -1.946   1.243  0.00  0.00    +0.019 C 
BRANCH  20  21
ATOM     21  N   UNL     1       0.679  -0.480   1.316  0.00  0.00    +0.387 N 
ATOM     22  C   UNL     1       1.892   0.131   0.755  0.00  0.00    -0.061 C 
ATOM     23  C   UNL     1       1.708   1.650   0.682  0.00  0.00    +0.091 C 
ATOM     24  N   UNL     1       1.326   2.139   2.016  0.00  0.00    -0.180 NA
ATOM     25  C   UNL     1       0.203   1.482   2.702  0.00  0.00    +0.091 C 
ATOM     26  C   UNL     1       0.446  -0.031   2.695  0.00  0.00    -0.061 C 
ATOM     27  H   UNL     1      -0.174  -0.148   0.707  0.00  0.00    -0.081 HD
BRANCH  24  28
ATOM     28  S   UNL     1       2.138   3.395   2.726  0.00  0.00    +0.061 S 
ATOM     29  O   UNL     1       1.945   3.263   4.128  0.00  0.00    -0.153 OA
ATOM     30  O   UNL     1       3.430   3.429   2.135  0.00  0.00    -0.153 OA
BRANCH  28  31
ATOM     31  C   UNL     1       1.324   4.881   2.243  0.00  0.00    +0.106 A 
ATOM     32  C   UNL     1       1.722   5.547   1.099  0.00  0.00    +0.030 A 
ATOM     33  C   UNL     1       1.079   6.709   0.717  0.00  0.00    +0.022 A 
ATOM     34  C   UNL     1       0.045   7.213   1.486  0.00  0.00    +0.041 A 
ATOM     35  C   UNL     1      -0.349   6.549   2.634  0.00  0.00    +0.022 A 
ATOM     36  C   UNL     1       0.291   5.384   3.012  0.00  0.00    +0.030 A 
ATOM     37 CL   UNL     1      -0.757   8.677   1.010  0.00  0.00    -0.084 Cl
ENDBRANCH  28  31
ENDBRANCH  24  28
ENDBRANCH  20  21
ENDBRANCH   2  20
TORSDOF 6
