REMARK  Name = ZINC21052336
REMARK  12 active torsions:
REMARK  status: ('A' for Active; 'I' for Inactive)
REMARK    1  A    between atoms: C_1  and  C_2
REMARK    2  A    between atoms: C_2  and  C_3
REMARK    3  A    between atoms: C_2  and  C_4
REMARK    4  A    between atoms: C_4  and  C_6
REMARK    5  A    between atoms: C_4  and  N_24
REMARK    6  A    between atoms: N_8  and  C_9
REMARK    7  A    between atoms: C_9  and  C_10
REMARK    8  A    between atoms: C_10  and  C_11
REMARK    9  A    between atoms: C_11  and  N_12
REMARK   10  A    between atoms: C_15  and  N_18
REMARK   11  A    between atoms: N_24  and  S_25
REMARK   12  A    between atoms: S_25  and  C_28
REMARK                            x       y       z     vdW  Elec       q    Type
REMARK                         _______ _______ _______ _____ _____    ______ ____
ROOT
ATOM      1  C   UNL     1       0.019   1.289  -0.238  0.00  0.00    +0.232 C 
ATOM      2  O   UNL     1       1.061   1.687  -0.714  0.00  0.00    -0.274 OA
ATOM      3  N   UNL     1      -0.967   2.162   0.051  0.00  0.00    -0.314 N 
ATOM      4  H   UNL     1      -1.880   1.813   0.555  0.00  0.00    +0.149 HD
ENDROOT
BRANCH   1   5
ATOM      5  C   UNL     1      -0.176  -0.181   0.026  0.00  0.00    +0.165 C 
BRANCH   5   7
ATOM      6  C   UNL     1      -0.262  -0.610  -2.434  0.00  0.00    +0.009 C 
ATOM      7  C   UNL     1      -0.999  -0.798  -1.107  0.00  0.00    +0.010 C 
ATOM      8  C   UNL     1      -1.197  -2.291  -0.840  0.00  0.00    +0.009 C 
ENDBRANCH   5   7
BRANCH   5   9
ATOM      9  N   UNL     1       1.130  -0.842   0.096  0.00  0.00    -0.177 NA
ATOM     10  H   UNL     1       1.561  -1.305  -0.804  0.00  0.00    +0.149 HD
BRANCH   9  11
ATOM     11  S   UNL     1       1.843  -1.112   1.565  0.00  0.00    +0.065 S 
ATOM     12  O   UNL     1       3.067  -1.787   1.305  0.00  0.00    -0.153 OA
ATOM     13  O   UNL     1       1.788   0.117   2.276  0.00  0.00    -0.153 OA
BRANCH  11  14
ATOM     14  C   UNL     1       0.819  -2.247   2.442  0.00  0.00    +0.142 A 
ATOM     15  C   UNL     1       0.896  -3.599   2.499  0.00  0.00    +0.036 A 
ATOM     16  C   UNL     1      -0.026  -4.292   3.260  0.00  0.00    +0.010 A 
ATOM     17  C   UNL     1      -0.981  -3.599   3.928  0.00  0.00    +0.047 A 
ATOM     18  S   UNL     1      -0.587  -1.913   3.491  0.00  0.00    -0.077 S 
ENDBRANCH  11  14
ENDBRANCH   9  11
ENDBRANCH   5   9
ENDBRANCH   1   5
BRANCH   3  19
ATOM     19  C   UNL     1      -0.822   3.575  -0.308  0.00  0.00    +0.105 C 
BRANCH  19  20
ATOM     20  C   UNL     1      -2.072   4.342   0.128  0.00  0.00    +0.034 C 
BRANCH  20  21
ATOM     21  C   UNL     1      -1.921   5.818  -0.247  0.00  0.00    +0.086 C 
BRANCH  21  22
ATOM     22  N   UNL     1      -3.121   6.555   0.171  0.00  0.00    -0.302 NA
ATOM     23  C   UNL     1      -4.300   6.115  -0.587  0.00  0.00    +0.083 C 
ATOM     24  C   UNL     1      -5.551   6.795  -0.028  0.00  0.00    +0.000 C 
ATOM     25  C   UNL     1      -5.391   8.314  -0.133  0.00  0.00    -0.066 C 
ATOM     26  C   UNL     1      -4.130   8.741   0.624  0.00  0.00    +0.000 C 
ATOM     27  C   UNL     1      -2.920   8.004   0.046  0.00  0.00    +0.083 C 
BRANCH  25  28
ATOM     28  N   UNL     1      -6.564   8.974   0.456  0.00  0.00    +0.382 N 
ATOM     29  C   UNL     1      -6.729   8.594   1.864  0.00  0.00    -0.078 C 
ATOM     30  C   UNL     1      -7.868   9.407   2.483  0.00  0.00    -0.019 C 
ATOM     31  C   UNL     1      -9.161   9.139   1.708  0.00  0.00    -0.004 C 
ATOM     32  C   UNL     1      -8.946   9.498   0.234  0.00  0.00    -0.019 C 
ATOM     33  C   UNL     1      -7.776   8.681  -0.319  0.00  0.00    -0.078 C 
ATOM     34  H   UNL     1      -6.396  10.061   0.419  0.00  0.00    -0.081 HD
ENDBRANCH  25  28
ENDBRANCH  21  22
ENDBRANCH  20  21
ENDBRANCH  19  20
ENDBRANCH   3  19
TORSDOF 10
