REMARK  Name = ZINC42506485
REMARK  11 active torsions:
REMARK  status: ('A' for Active; 'I' for Inactive)
REMARK    1  A    between atoms: C_1  and  C_2
REMARK    2  A    between atoms: C_2  and  C_4
REMARK    3  A    between atoms: C_2  and  N_16
REMARK    4  A    between atoms: C_10  and  C_13
REMARK    5  A    between atoms: N_16  and  C_17
REMARK    6  A    between atoms: N_16  and  C_18
REMARK    7  A    between atoms: C_18  and  C_19
REMARK    8  A    between atoms: N_21  and  C_22
REMARK    9  A    between atoms: C_22  and  C_23
REMARK   10  A    between atoms: C_22  and  C_24
REMARK   11  A    between atoms: C_22  and  C_25
REMARK                            x       y       z     vdW  Elec       q    Type
REMARK                         _______ _______ _______ _____ _____    ______ ____
ROOT
ATOM      1  C   UNL     1      -0.087   1.512  -0.036  0.00  0.00    -0.004 C 
ATOM      2  C   UNL     1       0.003  -0.014   0.040  0.00  0.00    +0.017 C 
ENDROOT
BRANCH   2   3
ATOM      3  C   UNL     1       0.682  -0.413   1.325  0.00  0.00    +0.202 C 
ATOM      4  O   UNL     1       0.018  -0.761   2.279  0.00  0.00    -0.277 OA
ATOM      5  N   UNL     1       2.026  -0.383   1.415  0.00  0.00    -0.302 N 
ATOM      6  C   UNL     1       2.848  -0.060   0.240  0.00  0.00    +0.108 C 
ATOM      7  C   UNL     1       3.881  -1.173   0.040  0.00  0.00    +0.020 C 
ATOM      8  C   UNL     1       4.678  -1.362   1.333  0.00  0.00    +0.016 C 
ATOM      9  C   UNL     1       3.732  -1.778   2.462  0.00  0.00    +0.092 C 
ATOM     10  C   UNL     1       2.698  -0.666   2.691  0.00  0.00    +0.120 C 
BRANCH   9  11
ATOM     11  C   UNL     1       4.523  -1.995   3.726  0.00  0.00    +0.215 C 
ATOM     12  O   UNL     1       4.283  -1.333   4.713  0.00  0.00    -0.276 OA
ATOM     13  N   UNL     1       5.498  -2.925   3.759  0.00  0.00    -0.329 N 
ATOM     14  H   UNL     1       5.691  -3.455   2.970  0.00  0.00    +0.145 HD
ATOM     15  H   UNL     1       6.007  -3.065   4.573  0.00  0.00    +0.145 HD
ENDBRANCH   9  11
ENDBRANCH   2   3
BRANCH   2  16
ATOM     16  N   UNL     1      -1.349  -0.587   0.002  0.00  0.00    +0.391 N 
ATOM     17  C   UNL     1      -1.259  -2.054  -0.001  0.00  0.00    -0.094 C 
ATOM     18  H   UNL     1      -1.866  -0.284   0.813  0.00  0.00    -0.080 HD
BRANCH  16  19
ATOM     19  C   UNL     1      -2.038  -0.136  -1.215  0.00  0.00    +0.019 C 
BRANCH  19  20
ATOM     20  C   UNL     1      -3.464  -0.623  -1.195  0.00  0.00    +0.197 C 
ATOM     21  O   UNL     1      -3.866  -1.281  -0.259  0.00  0.00    -0.278 OA
ATOM     22  N   UNL     1      -4.291  -0.328  -2.217  0.00  0.00    -0.312 N 
ATOM     23  H   UNL     1      -3.969   0.199  -2.965  0.00  0.00    +0.149 HD
BRANCH  22  24
ATOM     24  C   UNL     1      -5.677  -0.801  -2.197  0.00  0.00    +0.026 C 
ATOM     25  C   UNL     1      -6.392  -0.236  -0.968  0.00  0.00    +0.031 C 
ATOM     26  C   UNL     1      -6.395  -0.331  -3.464  0.00  0.00    +0.031 C 
ATOM     27  C   UNL     1      -5.694  -2.330  -2.139  0.00  0.00    +0.031 C 
ENDBRANCH  22  24
ENDBRANCH  19  20
ENDBRANCH  16  19
ENDBRANCH   2  16
TORSDOF 6
