REMARK  Name = ZINC38599158
REMARK  7 active torsions:
REMARK  status: ('A' for Active; 'I' for Inactive)
REMARK    1  A    between atoms: C_1  and  O_2
REMARK    2  A    between atoms: O_2  and  C_3
REMARK    3  A    between atoms: C_6  and  S_9
REMARK    4  A    between atoms: S_9  and  C_12
REMARK    5  A    between atoms: N_24  and  N_28
REMARK    6  A    between atoms: C_25  and  N_27
REMARK    7  A    between atoms: C_29  and  C_30
REMARK                            x       y       z     vdW  Elec       q    Type
REMARK                         _______ _______ _______ _____ _____    ______ ____
ROOT
ATOM      1  C   UNL     1       4.173  -2.255  -4.653  0.00  0.00    +0.224 C 
ATOM      2  C   UNL     1       5.068  -1.061  -4.407  0.00  0.00    +0.111 A 
ATOM      3  C   UNL     1       6.257  -1.248  -5.131  0.00  0.00    +0.166 A 
ATOM      4  N   UNL     1       7.210  -0.325  -5.076  0.00  0.00    -0.227 NA
ATOM      5  C   UNL     1       7.038   0.773  -4.336  0.00  0.00    +0.091 A 
ATOM      6  C   UNL     1       8.035   1.763  -4.265  0.00  0.00    +0.030 A 
ATOM      7  C   UNL     1       7.831   2.873  -3.504  0.00  0.00    +0.002 A 
ATOM      8  C   UNL     1       6.647   3.046  -2.790  0.00  0.00    +0.002 A 
ATOM      9  C   UNL     1       5.660   2.109  -2.836  0.00  0.00    +0.030 A 
ATOM     10  C   UNL     1       5.834   0.950  -3.611  0.00  0.00    +0.090 A 
ATOM     11  N   UNL     1       4.882   0.012  -3.676  0.00  0.00    -0.245 NA
ATOM     12  N   UNL     1       6.242  -2.445  -5.832  0.00  0.00    -0.186 N 
ATOM     13  C   UNL     1       4.980  -3.157  -5.601  0.00  0.00    +0.195 C 
ENDROOT
BRANCH   1  14
ATOM     14  S   UNL     1       2.624  -1.734  -5.440  0.00  0.00    +0.008 S 
ATOM     15  O   UNL     1       1.700  -2.814  -5.466  0.00  0.00    -0.169 OA
ATOM     16  O   UNL     1       2.900  -0.989  -6.618  0.00  0.00    -0.169 OA
BRANCH  14  20
ATOM     17  C   UNL     1       0.811   1.266  -2.573  0.00  0.00    +0.120 A 
ATOM     18  C   UNL     1       1.673   1.693  -3.573  0.00  0.00    +0.047 A 
ATOM     19  C   UNL     1       2.225   0.776  -4.447  0.00  0.00    +0.030 A 
ATOM     20  C   UNL     1       1.919  -0.567  -4.325  0.00  0.00    +0.089 A 
ATOM     21  C   UNL     1       1.060  -0.995  -3.329  0.00  0.00    +0.030 A 
ATOM     22  C   UNL     1       0.510  -0.082  -2.450  0.00  0.00    +0.047 A 
BRANCH  17  24
ATOM     23  C   UNL     1       0.622   3.538  -1.900  0.00  0.00    +0.277 C 
ATOM     24  O   UNL     1       0.268   2.167  -1.713  0.00  0.00    -0.495 OA
ENDBRANCH  17  24
ENDBRANCH  14  20
ENDBRANCH   1  14
BRANCH  13  25
ATOM     25  N   UNL     1       4.258  -3.338  -6.867  0.00  0.00    -0.309 NA
ATOM     26  H   UNL     1       4.826  -3.832  -7.539  0.00  0.00    +0.120 HD
ATOM     27  H   UNL     1       3.380  -3.812  -6.718  0.00  0.00    +0.120 HD
ENDBRANCH  13  25
BRANCH  12  28
ATOM     28  N   UNL     1       7.202  -2.872  -6.580  0.00  0.00    -0.185 NA
ATOM     29  C   UNL     1       7.134  -4.069  -7.114  0.00  0.00    +0.136 C 
BRANCH  29  30
ATOM     30  C   UNL     1       8.115  -4.487  -8.018  0.00  0.00    +0.000 C 
ATOM     31  C   UNL     1       8.187  -5.716  -8.676  0.00  0.00    +0.004 A 
ATOM     32  C   UNL     1       7.361  -6.860  -8.653  0.00  0.00    +0.010 A 
ATOM     33  C   UNL     1       7.682  -7.938  -9.414  0.00  0.00    +0.001 A 
ATOM     34  C   UNL     1       8.818  -7.948 -10.226  0.00  0.00    +0.002 A 
ATOM     35  C   UNL     1       9.656  -6.885 -10.297  0.00  0.00    +0.026 A 
ATOM     36  C   UNL     1       9.386  -5.721  -9.531  0.00  0.00    +0.043 A 
ATOM     37  N   UNL     1      10.032  -4.577  -9.426  0.00  0.00    -0.380 N 
ATOM     38  C   UNL     1       9.316  -3.700  -8.493  0.00  0.00    +0.150 C 
ATOM     39  H   UNL     1      10.850  -4.349  -9.895  0.00  0.00    +0.160 HD
ENDBRANCH  29  30
ENDBRANCH  12  28
TORSDOF 6
