REMARK  Name = ZINC04133482
REMARK  16 active torsions:
REMARK  status: ('A' for Active; 'I' for Inactive)
REMARK    1  A    between atoms: C_1  and  C_2
REMARK    2  A    between atoms: C_12  and  C_14
REMARK    3  A    between atoms: C_14  and  N_15
REMARK    4  A    between atoms: N_15  and  C_16
REMARK    5  A    between atoms: N_15  and  C_20
REMARK    6  A    between atoms: C_16  and  C_17
REMARK    7  A    between atoms: C_17  and  N_60
REMARK    8  A    between atoms: C_18  and  N_60
REMARK    9  A    between atoms: C_19  and  N_60
REMARK   10  A    between atoms: C_20  and  N_22
REMARK   11  A    between atoms: N_22  and  C_23
REMARK   12  A    between atoms: C_23  and  C_24
REMARK   13  A    between atoms: C_24  and  C_25
REMARK   14  A    between atoms: C_25  and  N_62
REMARK   15  A    between atoms: C_26  and  N_62
REMARK   16  A    between atoms: C_27  and  N_62
REMARK                            x       y       z     vdW  Elec       q    Type
REMARK                         _______ _______ _______ _____ _____    ______ ____
ROOT
ATOM      1  N   UNL     1       1.470  -2.974   5.395  0.00  0.00    -0.310 N 
ENDROOT
BRANCH   1   2
ATOM      2  C   UNL     1       2.217  -4.043   5.053  0.00  0.00    +0.133 C 
ATOM      3  S   UNL     1       1.550  -5.273   4.067  0.00  0.00    -0.019 S 
BRANCH   2   4
ATOM      4  N   UNL     1       3.489  -4.144   5.488  0.00  0.00    -0.326 N 
ATOM      5  H   UNL     1       3.866  -3.447   6.047  0.00  0.00    +0.148 HD
BRANCH   4   6
ATOM      6  C   UNL     1       4.300  -5.305   5.117  0.00  0.00    +0.101 C 
BRANCH   6   7
ATOM      7  C   UNL     1       5.693  -5.174   5.736  0.00  0.00    +0.000 C 
BRANCH   7   8
ATOM      8  C   UNL     1       6.540  -6.387   5.348  0.00  0.00    -0.078 C 
BRANCH   8  11
ATOM      9  C   UNL     1       7.811  -6.335   7.409  0.00  0.00    -0.097 C 
ATOM     10  C   UNL     1       8.791  -7.278   5.405  0.00  0.00    -0.097 C 
ATOM     11  N   UNL     1       7.888  -6.235   5.936  0.00  0.00    +0.376 N 
ATOM     12  H   UNL     1       8.259  -5.312   5.684  0.00  0.00    -0.083 HD
ENDBRANCH   8  11
ENDBRANCH   7   8
ENDBRANCH   6   7
ENDBRANCH   4   6
ENDBRANCH   2   4
ENDBRANCH   1   2
BRANCH   1  13
ATOM     13  C   UNL     1       0.088  -2.864   4.922  0.00  0.00    +0.147 C 
BRANCH  13  25
ATOM     14  C   UNL     1      -0.018   1.503   0.010  0.00  0.00    +0.046 C 
ATOM     15  C   UNL     1       0.002  -0.004   0.002  0.00  0.00    -0.026 A 
ATOM     16  C   UNL     1      -0.006  -0.690  -1.194  0.00  0.00    +0.005 A 
ATOM     17  C   UNL     1       0.020  -2.077  -1.215  0.00  0.00    +0.001 A 
ATOM     18  C   UNL     1       0.040  -2.790  -0.050  0.00  0.00    +0.010 A 
ATOM     19  C   UNL     1       0.042  -2.116   1.175  0.00  0.00    -0.001 A 
ATOM     20  C   UNL     1       0.023  -0.709   1.201  0.00  0.00    +0.052 A 
ATOM     21  N   UNL     1       0.026  -0.049   2.412  0.00  0.00    -0.322 N 
ATOM     22  H   UNL     1       0.013   0.951   2.428  0.00  0.00    +0.169 HD
ATOM     23  C   UNL     1       0.046  -0.730   3.570  0.00  0.00    +0.254 A 
ATOM     24  O   UNL     1       0.048  -0.114   4.622  0.00  0.00    -0.268 OA
ATOM     25  C   UNL     1       0.065  -2.141   3.600  0.00  0.00    +0.035 A 
ATOM     26  C   UNL     1       0.064  -2.849   2.443  0.00  0.00    +0.020 A 
ENDBRANCH  13  25
ENDBRANCH   1  13
BRANCH   1  27
ATOM     27  C   UNL     1       2.041  -1.921   6.239  0.00  0.00    +0.088 C 
BRANCH  27  28
ATOM     28  C   UNL     1       1.782  -2.251   7.710  0.00  0.00    -0.060 C 
BRANCH  28  31
ATOM     29  C   UNL     1       1.925  -1.350   9.953  0.00  0.00    -0.097 C 
ATOM     30  C   UNL     1       3.820  -1.177   8.456  0.00  0.00    -0.097 C 
ATOM     31  N   UNL     1       2.345  -1.170   8.547  0.00  0.00    +0.377 N 
ATOM     32  H   UNL     1       1.994  -0.268   8.207  0.00  0.00    -0.083 HD
ENDBRANCH  28  31
ENDBRANCH  27  28
ENDBRANCH   1  27
TORSDOF 11
