REMARK  Name = ZINC63375166
REMARK  6 active torsions:
REMARK  status: ('A' for Active; 'I' for Inactive)
REMARK    1  A    between atoms: C_1  and  C_2
REMARK    2  A    between atoms: C_2  and  C_3
REMARK    3  A    between atoms: C_6  and  C_9
REMARK    4  A    between atoms: N_16  and  C_31
REMARK    5  A    between atoms: C_19  and  C_30
REMARK    6  A    between atoms: C_31  and  C_32
REMARK                            x       y       z     vdW  Elec       q    Type
REMARK                         _______ _______ _______ _____ _____    ______ ____
ROOT
ATOM      1  C   UNL     1       2.782  -1.967   4.663  0.00  0.00    +0.065 C 
ATOM      2  C   UNL     1       2.695  -0.922   5.778  0.00  0.00    +0.121 C 
ATOM      3  N   UNL     1       1.434  -0.945   6.497  0.00  0.00    -0.283 N 
ATOM      4  C   UNL     1       1.149   0.141   7.292  0.00  0.00    +0.234 C 
ATOM      5  O   UNL     1       1.845   1.133   7.285  0.00  0.00    -0.274 OA
ATOM      6  C   UNL     1      -0.076   0.037   8.176  0.00  0.00    +0.204 C 
ATOM      7  N   UNL     1      -0.095  -1.300   8.798  0.00  0.00    -0.286 N 
ATOM      8  C   UNL     1       0.144  -2.361   7.969  0.00  0.00    +0.242 C 
ATOM      9  O   UNL     1       0.116  -3.509   8.361  0.00  0.00    -0.273 OA
ATOM     10  C   UNL     1       0.442  -2.005   6.536  0.00  0.00    +0.135 C 
ATOM     11  C   UNL     1       0.670  -3.189   5.649  0.00  0.00    +0.139 C 
ATOM     12  C   UNL     1       2.126  -3.213   5.203  0.00  0.00    -0.027 C 
ATOM     13  C   UNL     1       2.570  -4.441   5.421  0.00  0.00    -0.000 A 
ATOM     14  C   UNL     1       3.849  -5.096   5.106  0.00  0.00    +0.010 A 
ATOM     15  C   UNL     1       3.975  -6.390   5.503  0.00  0.00    +0.001 A 
ATOM     16  C   UNL     1       2.968  -7.091   6.173  0.00  0.00    +0.002 A 
ATOM     17  C   UNL     1       1.756  -6.571   6.495  0.00  0.00    +0.026 A 
ATOM     18  C   UNL     1       1.502  -5.220   6.122  0.00  0.00    +0.043 A 
ATOM     19  N   UNL     1       0.448  -4.484   6.289  0.00  0.00    -0.375 N 
ATOM     20  C   UNL     1      -0.846  -1.369   6.009  0.00  0.00    +0.044 C 
ATOM     21  H   UNL     1      -0.356  -4.757   6.758  0.00  0.00    +0.160 HD
ENDROOT
BRANCH   1  25
ATOM     22  C   UNL     1       0.695  -0.595   1.197  0.00  0.00    -0.048 A 
ATOM     23  C   UNL     1       1.800  -1.415   1.059  0.00  0.00    +0.004 A 
ATOM     24  C   UNL     1       2.475  -1.858   2.181  0.00  0.00    +0.004 A 
ATOM     25  C   UNL     1       2.046  -1.482   3.440  0.00  0.00    -0.039 A 
ATOM     26  C   UNL     1       0.942  -0.662   3.577  0.00  0.00    +0.004 A 
ATOM     27  C   UNL     1       0.269  -0.215   2.455  0.00  0.00    +0.004 A 
BRANCH  22  29
ATOM     28  C   UNL     1       0.569   1.210  -0.499  0.00  0.00    +0.009 C 
ATOM     29  C   UNL     1      -0.041  -0.112  -0.026  0.00  0.00    +0.032 C 
ENDBRANCH  22  29
ENDBRANCH   1  25
BRANCH   7  30
ATOM     30  C   UNL     1      -0.354  -1.482  10.228  0.00  0.00    +0.147 C 
BRANCH  30  31
ATOM     31  C   UNL     1      -1.835  -1.648  10.453  0.00  0.00    +0.023 A 
ATOM     32  C   UNL     1      -2.631  -0.538  10.680  0.00  0.00    +0.129 A 
ATOM     33  C   UNL     1      -3.991  -0.692  10.886  0.00  0.00    +0.039 A 
ATOM     34  C   UNL     1      -4.554  -1.954  10.865  0.00  0.00    +0.004 A 
ATOM     35  C   UNL     1      -3.760  -3.062  10.638  0.00  0.00    +0.020 A 
ATOM     36  C   UNL     1      -2.401  -2.909  10.426  0.00  0.00    +0.048 A 
ATOM     37 CL   UNL     1      -1.406  -4.302  10.134  0.00  0.00    -0.083 Cl
ATOM     38  F   UNL     1      -2.079   0.696  10.701  0.00  0.00    -0.205 F 
ENDBRANCH  30  31
ENDBRANCH   7  30
TORSDOF 4
