REMARK  Name = ZINC63738191
REMARK  11 active torsions:
REMARK  status: ('A' for Active; 'I' for Inactive)
REMARK    1  A    between atoms: C_1  and  C_2
REMARK    2  A    between atoms: C_2  and  C_3
REMARK    3  A    between atoms: C_2  and  N_4
REMARK    4  A    between atoms: N_4  and  C_5
REMARK    5  A    between atoms: N_4  and  C_6
REMARK    6  A    between atoms: C_6  and  C_7
REMARK    7  A    between atoms: C_7  and  C_8
REMARK    8  A    between atoms: C_8  and  N_9
REMARK    9  A    between atoms: C_10  and  C_12
REMARK   10  A    between atoms: C_14  and  S_19
REMARK   11  A    between atoms: S_19  and  N_22
REMARK                            x       y       z     vdW  Elec       q    Type
REMARK                         _______ _______ _______ _____ _____    ______ ____
ROOT
ATOM      1  N   UNL     1      -4.132  -4.549   0.263  0.00  0.00    -0.311 N 
ATOM      2  C   UNL     1      -4.359  -5.877   0.280  0.00  0.00    +0.245 C 
ATOM      3  O   UNL     1      -3.429  -6.654   0.186  0.00  0.00    -0.270 OA
ATOM      4  H   UNL     1      -4.874  -3.929   0.338  0.00  0.00    +0.149 HD
ENDROOT
BRANCH   2   5
ATOM      5  C   UNL     1      -5.739  -6.390   0.412  0.00  0.00    +0.052 A 
ATOM      6  C   UNL     1      -6.811  -5.500   0.513  0.00  0.00    +0.042 A 
ATOM      7  C   UNL     1      -8.096  -5.984   0.636  0.00  0.00    +0.106 A 
ATOM      8  C   UNL     1      -8.326  -7.349   0.658  0.00  0.00    +0.029 A 
ATOM      9  C   UNL     1      -7.270  -8.237   0.558  0.00  0.00    +0.018 A 
ATOM     10  C   UNL     1      -5.978  -7.766   0.429  0.00  0.00    +0.030 A 
ATOM     11 BR   UNL     1      -4.536  -8.980   0.284  0.00  0.00    -0.050 Br
BRANCH   7  12
ATOM     12  S   UNL     1      -9.449  -4.863   0.764  0.00  0.00    +0.056 S 
ATOM     13  O   UNL     1     -10.498  -5.565   1.418  0.00  0.00    -0.153 OA
ATOM     14  O   UNL     1      -8.920  -3.644   1.267  0.00  0.00    -0.153 OA
BRANCH  12  15
ATOM     15  N   UNL     1      -9.975  -4.552  -0.775  0.00  0.00    -0.204 NA
ATOM     16  H   UNL     1     -10.908  -4.342  -0.935  0.00  0.00    +0.144 HD
ATOM     17  H   UNL     1      -9.350  -4.579  -1.516  0.00  0.00    +0.144 HD
ENDBRANCH  12  15
ENDBRANCH   7  12
ENDBRANCH   2   5
BRANCH   1  18
ATOM     18  C   UNL     1      -2.764  -4.041   0.133  0.00  0.00    +0.102 C 
BRANCH  18  19
ATOM     19  C   UNL     1      -2.785  -2.512   0.141  0.00  0.00    +0.000 C 
BRANCH  19  20
ATOM     20  C   UNL     1      -1.356  -1.981   0.004  0.00  0.00    -0.077 C 
BRANCH  20  21
ATOM     21  N   UNL     1      -1.376  -0.512   0.012  0.00  0.00    +0.379 N 
ATOM     22  C   UNL     1      -2.087  -0.026  -1.178  0.00  0.00    -0.096 C 
ATOM     23  H   UNL     1      -1.848  -0.187   0.843  0.00  0.00    -0.082 HD
BRANCH  21  25
ATOM     24  C   UNL     1      -0.019   1.526   0.010  0.00  0.00    -0.014 C 
ATOM     25  C   UNL     1       0.002  -0.004   0.002  0.00  0.00    -0.075 C 
ATOM     26  C   UNL     1       0.742  -0.511   1.242  0.00  0.00    -0.014 C 
ENDBRANCH  21  25
ENDBRANCH  20  21
ENDBRANCH  19  20
ENDBRANCH  18  19
ENDBRANCH   1  18
TORSDOF 8
