REMARK  Name = ZINC34748839
REMARK  12 active torsions:
REMARK  status: ('A' for Active; 'I' for Inactive)
REMARK    1  A    between atoms: C_1  and  C_2
REMARK    2  A    between atoms: C_2  and  N_3
REMARK    3  A    between atoms: N_3  and  C_4
REMARK    4  A    between atoms: C_4  and  C_5
REMARK    5  A    between atoms: C_6  and  C_8
REMARK    6  A    between atoms: C_8  and  N_9
REMARK    7  A    between atoms: C_13  and  C_37
REMARK    8  A    between atoms: C_14  and  C_36
REMARK    9  A    between atoms: N_22  and  C_25
REMARK   10  A    between atoms: C_25  and  C_26
REMARK   11  A    between atoms: N_28  and  C_29
REMARK   12  A    between atoms: C_34  and  C_35
REMARK                            x       y       z     vdW  Elec       q    Type
REMARK                         _______ _______ _______ _____ _____    ______ ____
ROOT
ATOM      1  N   UNL     1      -3.789  -1.427   2.522  0.00  0.00    -0.271 N 
ATOM      2  C   UNL     1      -3.653  -2.634   3.101  0.00  0.00    +0.264 A 
ATOM      3  O   UNL     1      -3.193  -3.572   2.473  0.00  0.00    -0.267 OA
ATOM      4  C   UNL     1      -4.055  -2.802   4.464  0.00  0.00    +0.075 A 
ATOM      5  C   UNL     1      -4.007  -3.991   5.297  0.00  0.00    -0.026 A 
ATOM      6  C   UNL     1      -4.441  -3.921   6.564  0.00  0.00    -0.008 A 
ATOM      7  S   UNL     1      -4.955  -2.222   6.732  0.00  0.00    -0.073 S 
ATOM      8  C   UNL     1      -4.572  -1.655   5.095  0.00  0.00    +0.117 A 
ATOM      9  N   UNL     1      -4.678  -0.492   4.464  0.00  0.00    -0.208 NA
ATOM     10  C   UNL     1      -4.296  -0.365   3.211  0.00  0.00    +0.202 A 
ATOM     11  N   UNL     1      -4.413   0.853   2.587  0.00  0.00    -0.304 N 
ATOM     12  C   UNL     1      -3.282   1.793   2.544  0.00  0.00    +0.089 C 
ATOM     13  C   UNL     1      -3.773   3.165   3.016  0.00  0.00    -0.059 C 
ATOM     14  N   UNL     1      -4.932   3.573   2.212  0.00  0.00    +0.387 N 
ATOM     15  C   UNL     1      -6.051   2.652   2.443  0.00  0.00    -0.059 C 
ATOM     16  C   UNL     1      -5.671   1.252   1.938  0.00  0.00    +0.089 C 
ATOM     17  C   UNL     1      -4.485  -5.016   7.598  0.00  0.00    +0.052 C 
ATOM     18  C   UNL     1      -3.476  -5.288   4.744  0.00  0.00    +0.045 C 
ATOM     19  H   UNL     1      -4.682   3.558   1.234  0.00  0.00    -0.081 HD
ENDROOT
BRANCH   1  20
ATOM     20  C   UNL     1      -3.379  -1.249   1.127  0.00  0.00    +0.224 C 
BRANCH  20  22
ATOM     21  N   UNL     1      -1.364  -0.518  -0.107  0.00  0.00    -0.301 N 
ATOM     22  C   UNL     1      -1.956  -0.754   1.080  0.00  0.00    +0.236 C 
ATOM     23  O   UNL     1      -1.345  -0.569   2.111  0.00  0.00    -0.274 OA
BRANCH  21  25
ATOM     24  C   UNL     1       0.028   1.492  -0.133  0.00  0.00    +0.024 C 
ATOM     25  C   UNL     1       0.019  -0.038  -0.152  0.00  0.00    +0.104 C 
ENDBRANCH  21  25
BRANCH  21  26
ATOM     26  C   UNL     1      -2.102  -0.743  -1.352  0.00  0.00    +0.104 C 
ATOM     27  C   UNL     1      -1.887  -2.183  -1.820  0.00  0.00    +0.024 C 
ENDBRANCH  21  26
ENDBRANCH  20  22
ENDBRANCH   1  20
BRANCH  14  28
ATOM     28  C   UNL     1      -5.334   4.934   2.590  0.00  0.00    +0.019 C 
BRANCH  28  29
ATOM     29  C   UNL     1      -6.442   5.401   1.683  0.00  0.00    +0.201 C 
ATOM     30  O   UNL     1      -6.857   4.672   0.806  0.00  0.00    -0.278 OA
ATOM     31  N   UNL     1      -6.973   6.630   1.844  0.00  0.00    -0.287 N 
ATOM     32  H   UNL     1      -6.604   7.234   2.507  0.00  0.00    +0.155 HD
BRANCH  31  33
ATOM     33  C   UNL     1      -8.057   7.032   1.056  0.00  0.00    +0.036 A 
ATOM     34  C   UNL     1      -8.159   6.601  -0.260  0.00  0.00    +0.023 A 
ATOM     35  C   UNL     1      -9.230   7.000  -1.035  0.00  0.00    +0.002 A 
ATOM     36  C   UNL     1     -10.200   7.829  -0.502  0.00  0.00    +0.000 A 
ATOM     37  C   UNL     1     -10.101   8.261   0.808  0.00  0.00    +0.005 A 
ATOM     38  C   UNL     1      -9.036   7.860   1.590  0.00  0.00    -0.029 A 
ATOM     39  C   UNL     1      -8.932   8.326   3.020  0.00  0.00    +0.045 C 
ENDBRANCH  31  33
ENDBRANCH  28  29
ENDBRANCH  14  28
TORSDOF 7
