REMARK  Name = ZINC32508153
REMARK  9 active torsions:
REMARK  status: ('A' for Active; 'I' for Inactive)
REMARK    1  A    between atoms: C_4  and  C_7
REMARK    2  A    between atoms: C_7  and  O_8
REMARK    3  A    between atoms: O_8  and  C_9
REMARK    4  A    between atoms: C_12  and  N_15
REMARK    5  A    between atoms: N_27  and  C_28
REMARK    6  A    between atoms: C_28  and  C_30
REMARK    7  A    between atoms: C_30  and  O_31
REMARK    8  A    between atoms: O_31  and  C_32
REMARK    9  A    between atoms: C_32  and  C_33
REMARK                            x       y       z     vdW  Elec       q    Type
REMARK                         _______ _______ _______ _____ _____    ______ ____
ROOT
ATOM      1  N   UNL     1      -2.194  -2.849   0.008  0.00  0.00    -0.276 N 
ATOM      2  C   UNL     1      -2.001  -4.249  -0.317  0.00  0.00    +0.116 C 
ATOM      3  C   UNL     1      -2.665  -4.548  -1.682  0.00  0.00    +0.190 C 
ATOM      4  S   UNL     1      -1.539  -5.835  -2.375  0.00  0.00    -0.028 S 
ATOM      5  O   UNL     1      -1.893  -7.105  -1.844  0.00  0.00    -0.174 OA
ATOM      6  O   UNL     1      -1.437  -5.663  -3.782  0.00  0.00    -0.174 OA
ATOM      7  C   UNL     1       0.015  -5.247  -1.570  0.00  0.00    +0.182 C 
ATOM      8  C   UNL     1      -0.533  -4.685  -0.260  0.00  0.00    +0.097 C 
ATOM      9  S   UNL     1       0.304  -3.104   0.127  0.00  0.00    -0.086 S 
ATOM     10  C   UNL     1      -1.124  -2.046   0.247  0.00  0.00    +0.154 C 
ATOM     11  N   UNL     1      -1.139  -0.745   0.509  0.00  0.00    -0.157 NA
ENDROOT
BRANCH   1  15
ATOM     12  C   UNL     1      -6.051  -1.278   0.207  0.00  0.00    +0.121 A 
ATOM     13  C   UNL     1      -5.184  -0.863  -0.793  0.00  0.00    +0.047 A 
ATOM     14  C   UNL     1      -3.906  -1.383  -0.860  0.00  0.00    +0.027 A 
ATOM     15  C   UNL     1      -3.489  -2.321   0.075  0.00  0.00    +0.036 A 
ATOM     16  C   UNL     1      -4.359  -2.740   1.073  0.00  0.00    +0.027 A 
ATOM     17  C   UNL     1      -5.635  -2.216   1.141  0.00  0.00    +0.047 A 
BRANCH  12  18
ATOM     18  O   UNL     1      -7.309  -0.767   0.272  0.00  0.00    -0.487 OA
BRANCH  18  19
ATOM     19  C   UNL     1      -8.148  -1.240   1.327  0.00  0.00    +0.264 C 
BRANCH  19  23
ATOM     20  C   UNL     1     -11.961   0.669   1.078  0.00  0.00    +0.000 A 
ATOM     21  C   UNL     1     -11.739  -0.520   0.410  0.00  0.00    +0.000 A 
ATOM     22  C   UNL     1     -10.505  -1.138   0.491  0.00  0.00    +0.007 A 
ATOM     23  C   UNL     1      -9.493  -0.566   1.239  0.00  0.00    -0.010 A 
ATOM     24  C   UNL     1      -9.717   0.621   1.912  0.00  0.00    +0.007 A 
ATOM     25  C   UNL     1     -10.950   1.241   1.828  0.00  0.00    +0.000 A 
ENDBRANCH  19  23
ENDBRANCH  18  19
ENDBRANCH  12  18
ENDBRANCH   1  15
BRANCH  11  26
ATOM     26  C   UNL     1       0.002  -0.095   0.722  0.00  0.00    +0.264 C 
ATOM     27  O   UNL     1       1.059  -0.694   0.677  0.00  0.00    -0.271 OA
BRANCH  26  28
ATOM     28  C   UNL     1      -0.015   1.382   1.020  0.00  0.00    +0.258 C 
BRANCH  28  29
ATOM     29  O   UNL     1       1.323   1.845   1.209  0.00  0.00    -0.359 OA
BRANCH  29  30
ATOM     30  C   UNL     1       1.419   3.242   1.498  0.00  0.00    +0.285 C 
BRANCH  30  31
ATOM     31  C   UNL     1       2.867   3.619   1.678  0.00  0.00    +0.381 C 
ATOM     32  O   UNL     1       3.728   2.779   1.570  0.00  0.00    -0.244 OA
ATOM     33  O   UNL     1       3.200   4.889   1.959  0.00  0.00    -0.244 OA
ENDBRANCH  30  31
ENDBRANCH  29  30
ENDBRANCH  28  29
ENDBRANCH  26  28
ENDBRANCH  11  26
TORSDOF 9
