REMARK  Name = ZINC05954654
REMARK  8 active torsions:
REMARK  status: ('A' for Active; 'I' for Inactive)
REMARK    1  A    between atoms: C_1  and  C_2
REMARK    2  A    between atoms: C_5  and  C_23
REMARK    3  A    between atoms: C_5  and  C_24
REMARK    4  A    between atoms: C_10  and  O_21
REMARK    5  A    between atoms: N_14  and  N_15
REMARK    6  A    between atoms: N_15  and  C_16
REMARK    7  A    between atoms: C_16  and  N_18
REMARK    8  A    between atoms: O_21  and  C_22
REMARK                            x       y       z     vdW  Elec       q    Type
REMARK                         _______ _______ _______ _____ _____    ______ ____
ROOT
ATOM      1  C   UNL     1       0.311   1.609  -0.246  0.00  0.00    +0.012 C 
ATOM      2  C   UNL     1       0.182   0.095  -0.073  0.00  0.00    +0.020 C 
ATOM      3  C   UNL     1       0.672  -0.607  -1.344  0.00  0.00    +0.033 C 
ATOM      4  C   UNL     1       0.637  -2.134  -1.207  0.00  0.00    +0.038 C 
ATOM      5  N   UNL     1       1.426  -2.512  -0.023  0.00  0.00    -0.260 N 
ATOM      6  C   UNL     1       1.567  -1.621   1.033  0.00  0.00    +0.050 A 
ATOM      7  C   UNL     1       1.010  -0.347   1.098  0.00  0.00    -0.019 A 
ATOM      8  C   UNL     1       1.270   0.384   2.232  0.00  0.00    +0.051 A 
ATOM      9  C   UNL     1       2.055  -0.141   3.257  0.00  0.00    +0.121 A 
ATOM     10  C   UNL     1       2.614  -1.417   3.198  0.00  0.00    +0.057 A 
ATOM     11  C   UNL     1       2.354  -2.163   2.054  0.00  0.00    +0.032 A 
ATOM     12  C   UNL     1       2.726  -3.503   1.586  0.00  0.00    +0.153 C 
ATOM     13  N   UNL     1       3.463  -4.388   2.213  0.00  0.00    -0.175 NA
ATOM     14  C   UNL     1       2.089  -3.643   0.250  0.00  0.00    +0.272 C 
ATOM     15  O   UNL     1       2.157  -4.620  -0.472  0.00  0.00    -0.268 OA
ATOM     16  C   UNL     1       1.242  -2.778  -2.456  0.00  0.00    +0.032 C 
ATOM     17  C   UNL     1      -0.809  -2.603  -1.033  0.00  0.00    +0.032 C 
ENDROOT
BRANCH  13  18
ATOM     18  N   UNL     1       3.885  -4.145   3.526  0.00  0.00    -0.218 N 
ATOM     19  H   UNL     1       3.563  -3.364   4.002  0.00  0.00    +0.176 HD
BRANCH  18  20
ATOM     20  C   UNL     1       4.737  -4.997   4.130  0.00  0.00    +0.147 C 
ATOM     21  S   UNL     1       5.252  -4.700   5.735  0.00  0.00    -0.017 S 
BRANCH  20  22
ATOM     22  N   UNL     1       5.184  -6.084   3.469  0.00  0.00    -0.339 N 
ATOM     23  H   UNL     1       4.892  -6.252   2.559  0.00  0.00    +0.144 HD
ATOM     24  H   UNL     1       5.798  -6.697   3.902  0.00  0.00    +0.144 HD
ENDBRANCH  20  22
ENDBRANCH  18  20
ENDBRANCH  13  18
BRANCH   9  25
ATOM     25  O   UNL     1       2.284   0.622   4.359  0.00  0.00    -0.495 OA
ATOM     26  C   UNL     1       3.094   0.049   5.388  0.00  0.00    +0.277 C 
ENDBRANCH   9  25
TORSDOF 4
