REMARK  Name = ZINC43021288
REMARK  9 active torsions:
REMARK  status: ('A' for Active; 'I' for Inactive)
REMARK    1  A    between atoms: C_1  and  C_2
REMARK    2  A    between atoms: C_2  and  C_3
REMARK    3  A    between atoms: C_3  and  C_5
REMARK    4  A    between atoms: C_3  and  N_24
REMARK    5  A    between atoms: C_5  and  C_7
REMARK    6  A    between atoms: C_5  and  N_14
REMARK    7  A    between atoms: N_14  and  C_15
REMARK    8  A    between atoms: N_14  and  C_16
REMARK    9  A    between atoms: C_16  and  C_17
REMARK                            x       y       z     vdW  Elec       q    Type
REMARK                         _______ _______ _______ _____ _____    ______ ____
ROOT
ATOM      1  C   UNL     1       0.584  -1.728   0.870  0.00  0.00    -0.053 C 
ENDROOT
BRANCH   1   2
ATOM      2  C   UNL     1       1.104  -2.213  -0.458  0.00  0.00    -0.061 A 
ATOM      3  C   UNL     1       0.221  -2.515  -1.478  0.00  0.00    +0.002 A 
ATOM      4  C   UNL     1       0.698  -2.960  -2.697  0.00  0.00    +0.001 A 
ATOM      5  C   UNL     1       2.058  -3.102  -2.897  0.00  0.00    +0.015 A 
ATOM      6  C   UNL     1       2.942  -2.799  -1.877  0.00  0.00    +0.018 A 
ATOM      7  C   UNL     1       2.465  -2.349  -0.659  0.00  0.00    +0.017 A 
ATOM      8 BR   UNL     1       4.803  -2.994  -2.150  0.00  0.00    -0.050 Br
ENDBRANCH   1   2
BRANCH   1   9
ATOM      9  N   UNL     1      -0.621  -2.487   1.231  0.00  0.00    +0.383 N 
ATOM     10  C   UNL     1      -0.290  -3.915   1.326  0.00  0.00    -0.095 C 
ATOM     11  H   UNL     1      -1.328  -2.352   0.523  0.00  0.00    -0.081 HD
BRANCH   9  12
ATOM     12  C   UNL     1      -1.129  -2.014   2.526  0.00  0.00    -0.047 C 
BRANCH  12  13
ATOM     13  C   UNL     1      -2.470  -2.688   2.825  0.00  0.00    +0.102 C 
ATOM     14  C   UNL     1      -3.083  -2.068   4.083  0.00  0.00    +0.030 C 
ATOM     15  C   UNL     1      -4.395  -2.788   4.409  0.00  0.00    +0.005 C 
ATOM     16  C   UNL     1      -4.116  -4.284   4.576  0.00  0.00    +0.028 C 
ATOM     17  C   UNL     1      -3.463  -4.819   3.299  0.00  0.00    +0.160 C 
ATOM     18  O   UNL     1      -2.264  -4.086   3.036  0.00  0.00    -0.378 OA
ENDBRANCH  12  13
ENDBRANCH   9  12
ENDBRANCH   1   9
BRANCH   1  19
ATOM     19  C   UNL     1       0.239  -0.241   0.771  0.00  0.00    -0.085 C 
BRANCH  19  20
ATOM     20  N   UNL     1       1.413   0.503   0.295  0.00  0.00    +0.379 N 
ATOM     21  H   UNL     1       1.683   0.159  -0.614  0.00  0.00    -0.090 HD
ATOM     22  H   UNL     1       1.185   1.484   0.230  0.00  0.00    -0.090 HD
ATOM     23  H   UNL     1       2.176   0.378   0.943  0.00  0.00    -0.090 HD
ENDBRANCH  19  20
BRANCH  19  25
ATOM     24  C   UNL     1      -1.346   1.419  -0.217  0.00  0.00    +0.002 C 
ATOM     25  C   UNL     1      -0.919  -0.050  -0.211  0.00  0.00    -0.021 C 
ENDBRANCH  19  25
ENDBRANCH   1  19
TORSDOF 7
