REMARK  Name = ZINC38547734
REMARK  7 active torsions:
REMARK  status: ('A' for Active; 'I' for Inactive)
REMARK    1  A    between atoms: C_1  and  C_2
REMARK    2  A    between atoms: C_3  and  C_29
REMARK    3  A    between atoms: C_5  and  N_21
REMARK    4  A    between atoms: C_6  and  C_7
REMARK    5  A    between atoms: C_7  and  C_9
REMARK    6  A    between atoms: C_7  and  N_14
REMARK    7  A    between atoms: C_22  and  C_24
REMARK                            x       y       z     vdW  Elec       q    Type
REMARK                         _______ _______ _______ _____ _____    ______ ____
ROOT
ATOM      1  C   UNL     1       0.102   1.992   0.471  0.00  0.00    +0.045 C 
ATOM      2  C   UNL     1       0.126   0.522   0.137  0.00  0.00    -0.033 A 
ATOM      3  C   UNL     1       0.073   0.111  -1.152  0.00  0.00    -0.008 A 
ATOM      4  S   UNL     1       0.132  -1.665  -0.979  0.00  0.00    -0.078 S 
ATOM      5  C   UNL     1       0.222  -1.743   0.802  0.00  0.00    +0.078 A 
ATOM      6  C   UNL     1       0.207  -0.424   1.143  0.00  0.00    +0.009 A 
ATOM      7  C   UNL     1      -0.012   0.938  -2.409  0.00  0.00    +0.052 C 
ENDROOT
BRANCH   5   8
ATOM      8  N   UNL     1       0.294  -2.864   1.631  0.00  0.00    -0.273 N 
ATOM      9  C   UNL     1       0.317  -4.100   1.093  0.00  0.00    +0.284 C 
ATOM     10  O   UNL     1       0.275  -4.238  -0.116  0.00  0.00    -0.266 OA
ATOM     11  H   UNL     1       0.328  -2.754   2.594  0.00  0.00    +0.156 HD
BRANCH   9  12
ATOM     12  C   UNL     1       0.393  -5.277   1.963  0.00  0.00    +0.189 A 
ATOM     13  C   UNL     1       0.428  -6.579   1.551  0.00  0.00    +0.054 A 
ATOM     14  C   UNL     1       0.499  -7.367   2.711  0.00  0.00    +0.042 A 
ATOM     15  C   UNL     1       0.503  -6.523   3.766  0.00  0.00    +0.196 A 
ATOM     16  O   UNL     1       0.445  -5.265   3.311  0.00  0.00    -0.458 OA
ENDBRANCH   9  12
ENDBRANCH   5   8
BRANCH   6  17
ATOM     17  C   UNL     1       0.274  -0.003   2.588  0.00  0.00    +0.135 C 
BRANCH  17  18
ATOM     18  N   UNL     1      -0.623  -0.846   3.383  0.00  0.00    -0.320 N 
ATOM     19  C   UNL     1      -1.027  -0.432   4.647  0.00  0.00    +0.097 A 
ATOM     20  C   UNL     1      -0.580   0.786   5.149  0.00  0.00    +0.041 A 
ATOM     21  C   UNL     1      -0.990   1.185   6.408  0.00  0.00    +0.005 A 
ATOM     22  C   UNL     1      -1.835   0.350   7.127  0.00  0.00    +0.018 A 
ATOM     23  C   UNL     1      -2.239  -0.846   6.567  0.00  0.00    +0.084 A 
ATOM     24  N   UNL     1      -1.837  -1.199   5.361  0.00  0.00    -0.350 N 
ATOM     25  H   UNL     1      -0.935  -1.693   3.028  0.00  0.00    +0.148 HD
ATOM     26  H   UNL     1      -2.139  -2.042   4.990  0.00  0.00    +0.166 HD
ENDBRANCH  17  18
BRANCH  17  27
ATOM     27  C   UNL     1       1.685  -0.157   3.092  0.00  0.00    -0.016 A 
ATOM     28  C   UNL     1       2.572   0.902   3.030  0.00  0.00    +0.013 A 
ATOM     29  C   UNL     1       3.834   0.731   3.491  0.00  0.00    +0.045 A 
ATOM     30  S   UNL     1       3.801  -0.969   4.037  0.00  0.00    -0.105 S 
ATOM     31  C   UNL     1       2.104  -1.334   3.618  0.00  0.00    +0.051 A 
ENDBRANCH  17  27
ENDBRANCH   6  17
TORSDOF 5
