REMARK  Name = ZINC08337361
REMARK  6 active torsions:
REMARK  status: ('A' for Active; 'I' for Inactive)
REMARK    1  A    between atoms: C_1  and  C_2
REMARK    2  A    between atoms: C_2  and  C_4
REMARK    3  A    between atoms: C_2  and  N_52
REMARK    4  A    between atoms: N_6  and  C_7
REMARK    5  A    between atoms: C_8  and  C_15
REMARK    6  A    between atoms: N_20  and  C_23
REMARK                            x       y       z     vdW  Elec       q    Type
REMARK                         _______ _______ _______ _____ _____    ______ ____
ROOT
ATOM      1  C   UNL     1       1.278  -2.404   2.570  0.00  0.00    +0.204 C 
ATOM      2  O   UNL     1       1.653  -1.583   3.379  0.00  0.00    -0.277 OA
ATOM      3  N   UNL     1       1.355  -3.719   2.858  0.00  0.00    -0.281 N 
ATOM      4  H   UNL     1       1.054  -4.375   2.210  0.00  0.00    +0.155 HD
ENDROOT
BRANCH   3   5
ATOM      5  C   UNL     1       1.864  -4.132   4.080  0.00  0.00    +0.084 A 
ATOM      6  C   UNL     1       2.017  -5.423   4.556  0.00  0.00    +0.068 A 
ATOM      7  C   UNL     1       2.589  -5.588   5.891  0.00  0.00    -0.023 A 
ATOM      8  C   UNL     1       2.901  -4.444   6.525  0.00  0.00    -0.004 A 
ATOM      9  S   UNL     1       2.456  -3.159   5.383  0.00  0.00    -0.077 S 
ATOM     10  C   UNL     1       3.480  -4.695   7.891  0.00  0.00    +0.043 C 
ATOM     11  C   UNL     1       3.896  -6.183   7.870  0.00  0.00    +0.010 C 
ATOM     12  C   UNL     1       2.939  -6.761   6.808  0.00  0.00    +0.037 C 
BRANCH   6  13
ATOM     13  C   UNL     1       1.622  -6.582   3.749  0.00  0.00    +0.244 C 
ATOM     14  O   UNL     1       2.426  -7.102   2.998  0.00  0.00    -0.270 OA
ATOM     15  N   UNL     1       0.370  -7.071   3.838  0.00  0.00    -0.325 N 
ATOM     16  H   UNL     1      -0.271  -6.656   4.437  0.00  0.00    +0.145 HD
ATOM     17  H   UNL     1       0.109  -7.837   3.304  0.00  0.00    +0.145 HD
ENDBRANCH   6  13
ENDBRANCH   3   5
BRANCH   1  19
ATOM     18  C   UNL     1       1.580  -2.531   0.112  0.00  0.00    -0.004 C 
ATOM     19  C   UNL     1       0.724  -1.955   1.242  0.00  0.00    +0.017 C 
BRANCH  19  25
ATOM     20  C   UNL     1       0.002  -0.004   0.002  0.00  0.00    -0.059 C 
ATOM     21  C   UNL     1      -0.019   1.526   0.010  0.00  0.00    +0.088 C 
ATOM     22  N   UNL     1       1.361   2.032   0.000  0.00  0.00    -0.320 N 
ATOM     23  C   UNL     1       2.105   1.549   1.171  0.00  0.00    +0.088 C 
ATOM     24  C   UNL     1       2.126   0.018   1.163  0.00  0.00    -0.059 C 
ATOM     25  N   UNL     1       0.734  -0.477   1.196  0.00  0.00    +0.389 N 
ATOM     26  H   UNL     1       0.270  -0.114   2.037  0.00  0.00    -0.081 HD
BRANCH  22  27
ATOM     27  C   UNL     1       1.382   3.421  -0.065  0.00  0.00    +0.099 A 
ATOM     28  C   UNL     1       2.600   4.092  -0.085  0.00  0.00    +0.042 A 
ATOM     29  C   UNL     1       2.607   5.473  -0.149  0.00  0.00    +0.005 A 
ATOM     30  C   UNL     1       1.389   6.140  -0.192  0.00  0.00    +0.018 A 
ATOM     31  C   UNL     1       0.217   5.411  -0.170  0.00  0.00    +0.084 A 
ATOM     32  N   UNL     1       0.174   4.053  -0.112  0.00  0.00    -0.350 N 
ATOM     33  H   UNL     1      -0.713   3.535  -0.105  0.00  0.00    +0.166 HD
ENDBRANCH  22  27
ENDBRANCH  19  25
ENDBRANCH   1  19
TORSDOF 5
