REMARK  Name = ZINC07002983
REMARK  17 active torsions:
REMARK  status: ('A' for Active; 'I' for Inactive)
REMARK    1  A    between atoms: C_1  and  C_2
REMARK    2  A    between atoms: C_2  and  N_3
REMARK    3  A    between atoms: N_3  and  C_4
REMARK    4  A    between atoms: N_3  and  S_6
REMARK    5  A    between atoms: C_4  and  C_5
REMARK    6  A    between atoms: S_6  and  C_9
REMARK    7  A    between atoms: C_11  and  N_16
REMARK    8  A    between atoms: C_14  and  C_15
REMARK    9  A    between atoms: C_17  and  C_19
REMARK   10  A    between atoms: C_19  and  C_21
REMARK   11  A    between atoms: C_19  and  N_59
REMARK   12  A    between atoms: C_22  and  C_23
REMARK   13  A    between atoms: C_22  and  N_59
REMARK   14  A    between atoms: C_23  and  C_24
REMARK   15  A    between atoms: C_24  and  N_62
REMARK   16  A    between atoms: C_25  and  N_62
REMARK   17  A    between atoms: C_26  and  N_62
REMARK                            x       y       z     vdW  Elec       q    Type
REMARK                         _______ _______ _______ _____ _____    ______ ____
ROOT
ATOM      1  N   UNL     1      -1.099  -1.906   1.467  0.00  0.00    -0.287 N 
ATOM      2  C   UNL     1      -2.226  -1.591   0.797  0.00  0.00    +0.203 C 
ATOM      3  O   UNL     1      -2.228  -0.661   0.018  0.00  0.00    -0.277 OA
ATOM      4  H   UNL     1      -1.076  -2.694   2.032  0.00  0.00    +0.155 HD
ENDROOT
BRANCH   1   7
ATOM      5  C   UNL     1       1.021   1.067   1.036  0.00  0.00    +0.110 A 
ATOM      6  C   UNL     1      -0.102   0.271   1.156  0.00  0.00    +0.052 A 
ATOM      7  C   UNL     1       0.036  -1.098   1.346  0.00  0.00    +0.035 A 
ATOM      8  C   UNL     1       1.303  -1.662   1.415  0.00  0.00    +0.023 A 
ATOM      9  C   UNL     1       2.422  -0.861   1.295  0.00  0.00    +0.007 A 
ATOM     10  C   UNL     1       2.281   0.501   1.105  0.00  0.00    -0.024 A 
ATOM     11  C   UNL     1       3.504   1.372   0.974  0.00  0.00    +0.046 C 
BRANCH   5  12
ATOM     12  S   UNL     1       0.848   2.803   0.795  0.00  0.00    +0.061 S 
ATOM     13  O   UNL     1       1.024   3.410   2.068  0.00  0.00    -0.153 OA
ATOM     14  O   UNL     1       1.653   3.140  -0.327  0.00  0.00    -0.153 OA
BRANCH  12  15
ATOM     15  N   UNL     1      -0.723   3.081   0.351  0.00  0.00    -0.177 NA
BRANCH  15  17
ATOM     16  C   UNL     1      -2.014   4.664   1.697  0.00  0.00    +0.022 C 
ATOM     17  C   UNL     1      -1.766   3.189   1.375  0.00  0.00    +0.106 C 
ENDBRANCH  15  17
BRANCH  15  18
ATOM     18  C   UNL     1      -1.071   3.220  -1.065  0.00  0.00    +0.106 C 
ATOM     19  C   UNL     1      -1.539   1.869  -1.610  0.00  0.00    +0.022 C 
ENDBRANCH  15  18
ENDBRANCH  12  15
ENDBRANCH   5  12
ENDBRANCH   1   7
BRANCH   2  20
ATOM     20  C   UNL     1      -3.483  -2.392   1.018  0.00  0.00    +0.013 C 
ATOM     21  C   UNL     1      -3.891  -2.306   2.490  0.00  0.00    -0.004 C 
BRANCH  20  22
ATOM     22  N   UNL     1      -4.562  -1.843   0.175  0.00  0.00    +0.386 N 
ATOM     23  H   UNL     1      -4.163  -1.509  -0.710  0.00  0.00    -0.085 HD
ATOM     24  H   UNL     1      -5.009  -1.059   0.666  0.00  0.00    -0.085 HD
BRANCH  22  25
ATOM     25  C   UNL     1      -5.571  -2.881  -0.106  0.00  0.00    -0.083 C 
BRANCH  25  26
ATOM     26  C   UNL     1      -6.675  -2.283  -0.981  0.00  0.00    -0.038 C 
BRANCH  26  27
ATOM     27  C   UNL     1      -7.727  -3.354  -1.277  0.00  0.00    -0.081 C 
BRANCH  27  30
ATOM     28  C   UNL     1      -9.687  -3.827  -2.618  0.00  0.00    -0.097 C 
ATOM     29  C   UNL     1      -9.535  -1.747  -1.387  0.00  0.00    -0.097 C 
ATOM     30  N   UNL     1      -8.774  -2.767  -2.139  0.00  0.00    +0.376 N 
ATOM     31  H   UNL     1      -8.328  -2.320  -2.949  0.00  0.00    -0.083 HD
ENDBRANCH  27  30
ENDBRANCH  26  27
ENDBRANCH  25  26
ENDBRANCH  22  25
ENDBRANCH  20  22
ENDBRANCH   2  20
TORSDOF 11
