REMARK  Name = ZINC39685730
REMARK  13 active torsions:
REMARK  status: ('A' for Active; 'I' for Inactive)
REMARK    1  A    between atoms: C_1  and  C_2
REMARK    2  A    between atoms: C_2  and  C_3
REMARK    3  A    between atoms: C_2  and  C_4
REMARK    4  A    between atoms: C_4  and  C_6
REMARK    5  A    between atoms: C_4  and  N_13
REMARK    6  A    between atoms: N_8  and  C_9
REMARK    7  A    between atoms: C_9  and  C_10
REMARK    8  A    between atoms: C_9  and  C_11
REMARK    9  A    between atoms: C_9  and  C_12
REMARK   10  A    between atoms: C_14  and  C_16
REMARK   11  A    between atoms: C_27  and  C_29
REMARK   12  A    between atoms: C_34  and  O_35
REMARK   13  A    between atoms: O_35  and  C_36
REMARK                            x       y       z     vdW  Elec       q    Type
REMARK                         _______ _______ _______ _____ _____    ______ ____
ROOT
ATOM      1  C   UNL     1      -0.545  -4.001   1.304  0.00  0.00    +0.100 C 
ATOM      2  C   UNL     1      -1.636  -4.802   0.560  0.00  0.00    +0.121 C 
ATOM      3  N   UNL     1      -1.768  -6.060   1.331  0.00  0.00    -0.296 N 
ATOM      4  C   UNL     1      -1.653  -5.638   2.748  0.00  0.00    +0.115 C 
ATOM      5  C   UNL     1      -0.559  -4.552   2.740  0.00  0.00    -0.004 C 
ATOM      6  C   UNL     1      -0.910  -3.444   3.728  0.00  0.00    -0.010 C 
ATOM      7  C   UNL     1      -0.861  -4.002   5.153  0.00  0.00    -0.082 C 
ATOM      8  N   UNL     1       0.482  -4.525   5.429  0.00  0.00    +0.379 N 
ATOM      9  C   UNL     1       0.775  -5.652   4.536  0.00  0.00    -0.082 C 
ATOM     10  C   UNL     1       0.795  -5.163   3.085  0.00  0.00    -0.010 C 
ATOM     11  C   UNL     1      -1.951  -7.307   0.853  0.00  0.00    +0.250 C 
ATOM     12  O   UNL     1      -1.942  -7.505  -0.347  0.00  0.00    -0.270 OA
ATOM     13  H   UNL     1       1.163  -3.795   5.282  0.00  0.00    -0.086 HD
ATOM     14  H   UNL     1       0.529  -4.836   6.388  0.00  0.00    -0.086 HD
ENDROOT
BRANCH  11  15
ATOM     15  C   UNL     1      -2.162  -8.431   1.785  0.00  0.00    +0.078 A 
ATOM     16  C   UNL     1      -2.869  -8.235   2.974  0.00  0.00    +0.017 A 
ATOM     17  C   UNL     1      -3.062  -9.289   3.840  0.00  0.00    +0.001 A 
ATOM     18  C   UNL     1      -2.559 -10.544   3.537  0.00  0.00    +0.004 A 
ATOM     19  C   UNL     1      -1.859 -10.752   2.366  0.00  0.00    +0.046 A 
ATOM     20  C   UNL     1      -1.659  -9.703   1.480  0.00  0.00    +0.132 A 
BRANCH  20  21
ATOM     21  O   UNL     1      -0.975  -9.907   0.326  0.00  0.00    -0.494 OA
ATOM     22  C   UNL     1      -0.492 -11.230   0.083  0.00  0.00    +0.277 C 
ENDBRANCH  20  21
ENDBRANCH  11  15
BRANCH   1  24
ATOM     23  N   UNL     1      -2.118  -2.122   1.643  0.00  0.00    -0.303 N 
ATOM     24  C   UNL     1      -0.880  -2.531   1.303  0.00  0.00    +0.219 C 
ATOM     25  O   UNL     1      -0.035  -1.717   0.995  0.00  0.00    -0.275 OA
ATOM     26  H   UNL     1      -2.772  -2.766   1.956  0.00  0.00    +0.149 HD
BRANCH  23  27
ATOM     27  C   UNL     1      -2.475  -0.705   1.539  0.00  0.00    +0.161 C 
BRANCH  27  28
ATOM     28  C   UNL     1      -3.599  -0.399   2.497  0.00  0.00    +0.234 C 
ATOM     29  O   UNL     1      -4.192  -1.304   3.045  0.00  0.00    -0.274 OA
ATOM     30  N   UNL     1      -3.944   0.880   2.744  0.00  0.00    -0.309 N 
ATOM     31  H   UNL     1      -3.427   1.605   2.359  0.00  0.00    +0.149 HD
BRANCH  30  32
ATOM     32  C   UNL     1      -5.100   1.175   3.594  0.00  0.00    +0.026 C 
ATOM     33  C   UNL     1      -4.877   0.578   4.984  0.00  0.00    +0.031 C 
ATOM     34  C   UNL     1      -5.272   2.691   3.712  0.00  0.00    +0.031 C 
ATOM     35  C   UNL     1      -6.358   0.566   2.973  0.00  0.00    +0.031 C 
ENDBRANCH  30  32
ENDBRANCH  27  28
BRANCH  27  37
ATOM     36  C   UNL     1      -1.746  -0.582  -0.847  0.00  0.00    +0.009 C 
ATOM     37  C   UNL     1      -2.925  -0.396   0.110  0.00  0.00    +0.012 C 
ATOM     38  C   UNL     1      -4.058  -1.345  -0.285  0.00  0.00    +0.009 C 
ENDBRANCH  27  37
ENDBRANCH  23  27
ENDBRANCH   1  24
TORSDOF 7
