REMARK  Name = ZINC39639292
REMARK  6 active torsions:
REMARK  status: ('A' for Active; 'I' for Inactive)
REMARK    1  A    between atoms: C_1  and  C_2
REMARK    2  A    between atoms: C_5  and  C_8
REMARK    3  A    between atoms: C_8  and  C_10
REMARK    4  A    between atoms: C_8  and  N_11
REMARK    5  A    between atoms: C_12  and  C_14
REMARK    6  A    between atoms: C_25  and  C_27
REMARK                            x       y       z     vdW  Elec       q    Type
REMARK                         _______ _______ _______ _____ _____    ______ ____
ROOT
ATOM      1  C   UNL     1       2.832  -6.451   2.584  0.00  0.00    +0.100 C 
ATOM      2  C   UNL     1       1.805  -6.476   3.739  0.00  0.00    +0.121 C 
ATOM      3  N   UNL     1       1.314  -7.873   3.774  0.00  0.00    -0.296 N 
ATOM      4  C   UNL     1       2.521  -8.694   3.515  0.00  0.00    +0.115 C 
ATOM      5  C   UNL     1       3.302  -7.909   2.443  0.00  0.00    -0.004 C 
ATOM      6  C   UNL     1       4.802  -8.007   2.703  0.00  0.00    -0.010 C 
ATOM      7  C   UNL     1       5.257  -9.455   2.500  0.00  0.00    -0.082 C 
ATOM      8  N   UNL     1       4.949  -9.879   1.128  0.00  0.00    +0.379 N 
ATOM      9  C   UNL     1       3.497  -9.870   0.916  0.00  0.00    -0.082 C 
ATOM     10  C   UNL     1       2.967  -8.439   1.052  0.00  0.00    -0.010 C 
ATOM     11  C   UNL     1       0.055  -8.302   3.992  0.00  0.00    +0.247 C 
ATOM     12  O   UNL     1      -0.855  -7.500   4.065  0.00  0.00    -0.270 OA
ATOM     13  H   UNL     1       5.387  -9.245   0.476  0.00  0.00    -0.086 HD
ATOM     14  H   UNL     1       5.304 -10.811   0.978  0.00  0.00    -0.086 HD
ENDROOT
BRANCH  11  15
ATOM     15  C   UNL     1      -0.218  -9.747   4.144  0.00  0.00    +0.038 A 
ATOM     16  C   UNL     1       0.811 -10.622   4.494  0.00  0.00    +0.013 A 
ATOM     17  C   UNL     1       0.550 -11.969   4.634  0.00  0.00    +0.002 A 
ATOM     18  C   UNL     1      -0.730 -12.454   4.428  0.00  0.00    +0.020 A 
ATOM     19  C   UNL     1      -1.755 -11.592   4.080  0.00  0.00    +0.042 A 
ATOM     20  C   UNL     1      -1.508 -10.241   3.942  0.00  0.00    +0.033 A 
ATOM     21 CL   UNL     1      -3.357 -12.210   3.822  0.00  0.00    -0.084 Cl
ENDBRANCH  11  15
BRANCH   1  23
ATOM     22  N   UNL     1       2.922  -5.439   0.329  0.00  0.00    -0.308 N 
ATOM     23  C   UNL     1       2.176  -5.985   1.310  0.00  0.00    +0.219 C 
ATOM     24  O   UNL     1       0.978  -6.103   1.166  0.00  0.00    -0.275 OA
ATOM     25  H   UNL     1       3.881  -5.345   0.444  0.00  0.00    +0.149 HD
BRANCH  22  26
ATOM     26  C   UNL     1       2.285  -4.986  -0.910  0.00  0.00    +0.100 C 
ATOM     27  C   UNL     1       1.756  -3.563  -0.721  0.00  0.00    +0.033 C 
BRANCH  26  32
ATOM     28  C   UNL     1       6.157  -5.042  -5.200  0.00  0.00    +0.044 C 
ATOM     29  C   UNL     1       5.147  -5.027  -4.081  0.00  0.00    -0.050 A 
ATOM     30  C   UNL     1       3.850  -5.444  -4.315  0.00  0.00    +0.004 A 
ATOM     31  C   UNL     1       2.924  -5.430  -3.289  0.00  0.00    +0.006 A 
ATOM     32  C   UNL     1       3.295  -5.001  -2.029  0.00  0.00    -0.027 A 
ATOM     33  C   UNL     1       4.593  -4.586  -1.794  0.00  0.00    +0.006 A 
ATOM     34  C   UNL     1       5.520  -4.603  -2.819  0.00  0.00    +0.004 A 
ENDBRANCH  26  32
ENDBRANCH  22  26
ENDBRANCH   1  23
TORSDOF 4
