REMARK  Name = ZINC59037926
REMARK  10 active torsions:
REMARK  status: ('A' for Active; 'I' for Inactive)
REMARK    1  A    between atoms: C_1  and  C_2
REMARK    2  A    between atoms: C_5  and  S_8
REMARK    3  A    between atoms: S_8  and  N_11
REMARK    4  A    between atoms: N_11  and  C_12
REMARK    5  A    between atoms: C_12  and  C_13
REMARK    6  A    between atoms: C_13  and  N_14
REMARK    7  A    between atoms: N_17  and  C_18
REMARK    8  A    between atoms: C_18  and  C_19
REMARK    9  A    between atoms: C_19  and  C_21
REMARK   10  A    between atoms: C_19  and  N_26
REMARK                            x       y       z     vdW  Elec       q    Type
REMARK                         _______ _______ _______ _____ _____    ______ ____
ROOT
ATOM      1  N   UNL     1       4.633  -5.170   2.210  0.00  0.00    -0.298 N 
ATOM      2  C   UNL     1       5.855  -5.733   2.277  0.00  0.00    +0.300 C 
ATOM      3  O   UNL     1       6.261  -6.416   1.356  0.00  0.00    -0.253 OA
ATOM      4  N   UNL     1       6.629  -5.540   3.363  0.00  0.00    -0.301 N 
ATOM      5  H   UNL     1       4.309  -4.625   2.945  0.00  0.00    +0.150 HD
ATOM      6  H   UNL     1       6.305  -4.995   4.098  0.00  0.00    +0.150 HD
ENDROOT
BRANCH   1   7
ATOM      7  C   UNL     1       3.792  -5.380   1.029  0.00  0.00    +0.122 C 
BRANCH   7   8
ATOM      8  C   UNL     1       2.467  -4.637   1.207  0.00  0.00    +0.124 C 
BRANCH   8   9
ATOM      9  N   UNL     1       1.626  -4.847   0.026  0.00  0.00    -0.188 NA
ATOM     10  H   UNL     1       2.016  -5.199  -0.790  0.00  0.00    +0.148 HD
BRANCH   9  11
ATOM     11  S   UNL     1       0.012  -4.484   0.083  0.00  0.00    +0.058 S 
ATOM     12  O   UNL     1      -0.499  -5.087   1.264  0.00  0.00    -0.153 OA
ATOM     13  O   UNL     1      -0.514  -4.768  -1.206  0.00  0.00    -0.153 OA
BRANCH  11  18
ATOM     14  C   UNL     1      -0.451   1.482   0.858  0.00  0.00    +0.044 C 
ATOM     15  C   UNL     1      -0.335  -0.008   0.664  0.00  0.00    -0.050 A 
ATOM     16  C   UNL     1      -0.289  -0.538  -0.612  0.00  0.00    +0.005 A 
ATOM     17  C   UNL     1      -0.182  -1.905  -0.789  0.00  0.00    +0.029 A 
ATOM     18  C   UNL     1      -0.122  -2.742   0.309  0.00  0.00    +0.105 A 
ATOM     19  C   UNL     1      -0.168  -2.212   1.585  0.00  0.00    +0.029 A 
ATOM     20  C   UNL     1      -0.270  -0.845   1.763  0.00  0.00    +0.005 A 
ENDBRANCH  11  18
ENDBRANCH   9  11
ENDBRANCH   8   9
ENDBRANCH   7   8
ENDBRANCH   1   7
BRANCH   4  21
ATOM     21  C   UNL     1       7.957  -6.152   3.436  0.00  0.00    +0.095 C 
BRANCH  21  22
ATOM     22  C   UNL     1       8.662  -5.692   4.713  0.00  0.00    -0.013 C 
BRANCH  22  23
ATOM     23  N   UNL     1      10.041  -6.200   4.721  0.00  0.00    +0.386 N 
ATOM     24  C   UNL     1      10.802  -5.633   3.579  0.00  0.00    -0.078 C 
ATOM     25  C   UNL     1      12.278  -5.778   4.029  0.00  0.00    -0.020 C 
ATOM     26  C   UNL     1      12.208  -5.477   5.544  0.00  0.00    -0.020 C 
ATOM     27  C   UNL     1      10.745  -5.745   5.940  0.00  0.00    -0.078 C 
ATOM     28  H   UNL     1      10.042  -7.207   4.675  0.00  0.00    -0.081 HD
ENDBRANCH  22  23
BRANCH  22  29
ATOM     29  C   UNL     1       7.924  -6.226   5.914  0.00  0.00    -0.022 A 
ATOM     30  C   UNL     1       7.034  -5.594   6.718  0.00  0.00    +0.009 A 
ATOM     31  C   UNL     1       6.474  -6.289   7.774  0.00  0.00    +0.008 A 
ATOM     32  C   UNL     1       6.831  -7.581   7.973  0.00  0.00    +0.045 A 
ATOM     33  S   UNL     1       7.988  -7.855   6.641  0.00  0.00    -0.103 S 
ENDBRANCH  22  29
ENDBRANCH  21  22
ENDBRANCH   4  21
TORSDOF 9
