REMARK  Name = ZINC39275341
REMARK  7 active torsions:
REMARK  status: ('A' for Active; 'I' for Inactive)
REMARK    1  A    between atoms: C_1  and  O_2
REMARK    2  A    between atoms: O_2  and  C_3
REMARK    3  A    between atoms: C_6  and  N_9
REMARK    4  A    between atoms: C_13  and  C_15
REMARK    5  A    between atoms: C_15  and  S_16
REMARK    6  A    between atoms: S_16  and  C_17
REMARK    7  A    between atoms: N_22  and  C_23
REMARK                            x       y       z     vdW  Elec       q    Type
REMARK                         _______ _______ _______ _____ _____    ______ ____
ROOT
ATOM      1  S   UNL     1       4.329  -0.332  -7.592  0.00  0.00    -0.117 S 
ENDROOT
BRANCH   1   2
ATOM      2  C   UNL     1       5.212  -0.002  -9.142  0.00  0.00    +0.202 C 
ATOM      3  N   UNL     1       4.508  -0.645 -10.279  0.00  0.00    -0.320 NA
ATOM      4  N   UNL     1       5.620  -1.148 -11.105  0.00  0.00    +0.411 N 
ATOM      5  N   UNL     1       6.612  -1.558 -10.101  0.00  0.00    -0.265 NA
ATOM      6  N   UNL     1       6.552  -0.610  -9.104  0.00  0.00    -0.254 N 
ATOM      7  H   UNL     1       3.923  -1.403  -9.960  0.00  0.00    +0.106 HD
ATOM      8  H   UNL     1       5.325  -1.938 -11.658  0.00  0.00    -0.031 HD
ATOM      9  H   UNL     1       7.536  -1.601 -10.502  0.00  0.00    +0.125 HD
ATOM     10  H   UNL     1       5.989  -0.415 -11.692  0.00  0.00    -0.031 HD
BRANCH   6  11
ATOM     11  C   UNL     1       7.578  -0.285  -8.214  0.00  0.00    +0.045 A 
ATOM     12  C   UNL     1       7.377   0.693  -7.247  0.00  0.00    +0.024 A 
ATOM     13  C   UNL     1       8.394   1.012  -6.369  0.00  0.00    +0.002 A 
ATOM     14  C   UNL     1       9.611   0.360  -6.451  0.00  0.00    +0.000 A 
ATOM     15  C   UNL     1       9.814  -0.613  -7.412  0.00  0.00    +0.002 A 
ATOM     16  C   UNL     1       8.800  -0.941  -8.290  0.00  0.00    +0.024 A 
ENDBRANCH   6  11
ENDBRANCH   1   2
BRANCH   1  17
ATOM     17  C   UNL     1       4.275  -2.143  -7.495  0.00  0.00    +0.125 C 
BRANCH  17  22
ATOM     18  N   UNL     1       2.457  -2.458  -4.303  0.00  0.00    -0.161 N 
ATOM     19  C   UNL     1       2.552  -3.794  -4.467  0.00  0.00    +0.245 C 
ATOM     20  O   UNL     1       2.132  -4.660  -3.730  0.00  0.00    -0.273 OA
ATOM     21  C   UNL     1       3.297  -3.976  -5.776  0.00  0.00    +0.151 C 
ATOM     22  C   UNL     1       3.558  -2.557  -6.236  0.00  0.00    +0.056 C 
ATOM     23  N   UNL     1       3.053  -1.779  -5.361  0.00  0.00    -0.180 NA
BRANCH  18  27
ATOM     24  C   UNL     1       0.606  -0.607  -1.056  0.00  0.00    +0.120 A 
ATOM     25  C   UNL     1       1.173   0.162  -2.062  0.00  0.00    +0.047 A 
ATOM     26  C   UNL     1       1.786  -0.450  -3.137  0.00  0.00    +0.029 A 
ATOM     27  C   UNL     1       1.836  -1.836  -3.211  0.00  0.00    +0.060 A 
ATOM     28  C   UNL     1       1.269  -2.605  -2.204  0.00  0.00    +0.029 A 
ATOM     29  C   UNL     1       0.660  -1.992  -1.127  0.00  0.00    +0.047 A 
BRANCH  24  31
ATOM     30  C   UNL     1      -0.017   1.425   0.010  0.00  0.00    +0.277 C 
ATOM     31  O   UNL     1       0.002  -0.004   0.002  0.00  0.00    -0.495 OA
ENDBRANCH  24  31
ENDBRANCH  18  27
ENDBRANCH  17  22
ENDBRANCH   1  17
TORSDOF 6
