REMARK  Name = ZINC06190714
REMARK  12 active torsions:
REMARK  status: ('A' for Active; 'I' for Inactive)
REMARK    1  A    between atoms: C_1  and  C_2
REMARK    2  A    between atoms: C_2  and  C_3
REMARK    3  A    between atoms: C_2  and  C_4
REMARK    4  A    between atoms: C_4  and  C_6
REMARK    5  A    between atoms: C_4  and  N_18
REMARK    6  A    between atoms: N_8  and  N_9
REMARK    7  A    between atoms: C_10  and  C_12
REMARK    8  A    between atoms: C_19  and  C_21
REMARK    9  A    between atoms: C_26  and  N_27
REMARK   10  A    between atoms: C_28  and  C_30
REMARK   11  A    between atoms: C_33  and  O_36
REMARK   12  A    between atoms: O_36  and  C_37
REMARK                            x       y       z     vdW  Elec       q    Type
REMARK                         _______ _______ _______ _____ _____    ______ ____
ROOT
ATOM      1  N   UNL     1       2.939   1.623   1.035  0.00  0.00    -0.300 N 
ATOM      2  C   UNL     1       3.941   1.863   0.165  0.00  0.00    +0.246 C 
ATOM      3  O   UNL     1       4.003   2.932  -0.410  0.00  0.00    -0.270 OA
ATOM      4  H   UNL     1       2.890   0.770   1.494  0.00  0.00    +0.150 HD
ENDROOT
BRANCH   2   5
ATOM      5  C   UNL     1       4.961   0.828  -0.088  0.00  0.00    +0.058 A 
ATOM      6  C   UNL     1       4.937  -0.372   0.626  0.00  0.00    +0.015 A 
ATOM      7  C   UNL     1       5.893  -1.335   0.385  0.00  0.00    +0.001 A 
ATOM      8  C   UNL     1       6.880  -1.119  -0.563  0.00  0.00    +0.002 A 
ATOM      9  C   UNL     1       6.917   0.062  -1.277  0.00  0.00    +0.024 A 
ATOM     10  C   UNL     1       5.958   1.041  -1.052  0.00  0.00    +0.046 A 
BRANCH  10  11
ATOM     11  N   UNL     1       5.990   2.230  -1.774  0.00  0.00    -0.281 N 
ATOM     12  C   UNL     1       7.164   2.854  -1.995  0.00  0.00    +0.248 C 
ATOM     13  O   UNL     1       8.204   2.337  -1.633  0.00  0.00    -0.270 OA
ATOM     14  H   UNL     1       5.167   2.610  -2.119  0.00  0.00    +0.155 HD
BRANCH  12  15
ATOM     15  C   UNL     1       7.188   4.163  -2.675  0.00  0.00    +0.037 A 
ATOM     16  C   UNL     1       5.995   4.755  -3.096  0.00  0.00    +0.016 A 
ATOM     17  C   UNL     1       6.021   5.980  -3.727  0.00  0.00    +0.046 A 
ATOM     18  C   UNL     1       7.233   6.621  -3.954  0.00  0.00    +0.120 A 
ATOM     19  C   UNL     1       8.423   6.032  -3.540  0.00  0.00    +0.046 A 
ATOM     20  C   UNL     1       8.405   4.811  -2.905  0.00  0.00    +0.016 A 
BRANCH  18  21
ATOM     21  O   UNL     1       7.255   7.824  -4.580  0.00  0.00    -0.495 OA
ATOM     22  C   UNL     1       5.997   8.372  -4.978  0.00  0.00    +0.277 C 
ENDBRANCH  18  21
ENDBRANCH  12  15
ENDBRANCH  10  11
ENDBRANCH   2   5
BRANCH   1  23
ATOM     23  C   UNL     1       1.926   2.651   1.286  0.00  0.00    +0.163 C 
BRANCH  23  24
ATOM     24  C   UNL     1       0.653   1.996   1.758  0.00  0.00    +0.250 C 
ATOM     25  O   UNL     1       0.674   0.855   2.167  0.00  0.00    -0.272 OA
ATOM     26  N   UNL     1      -0.509   2.677   1.719  0.00  0.00    -0.233 N 
ATOM     27  H   UNL     1      -0.539   3.563   1.326  0.00  0.00    +0.173 HD
BRANCH  26  28
ATOM     28  N   UNL     1      -1.674   2.105   2.247  0.00  0.00    -0.230 N 
ATOM     29  C   UNL     1      -2.837   2.787   2.208  0.00  0.00    +0.260 C 
ATOM     30  O   UNL     1      -2.874   3.897   1.716  0.00  0.00    -0.269 OA
ATOM     31  H   UNL     1      -1.644   1.219   2.640  0.00  0.00    +0.173 HD
BRANCH  29  32
ATOM     32  C   UNL     1      -4.066   2.183   2.766  0.00  0.00    +0.038 A 
ATOM     33  C   UNL     1      -4.027   0.906   3.327  0.00  0.00    +0.013 A 
ATOM     34  C   UNL     1      -5.177   0.350   3.850  0.00  0.00    +0.001 A 
ATOM     35  C   UNL     1      -6.369   1.052   3.809  0.00  0.00    +0.000 A 
ATOM     36  C   UNL     1      -6.415   2.317   3.248  0.00  0.00    +0.001 A 
ATOM     37  C   UNL     1      -5.271   2.886   2.727  0.00  0.00    +0.013 A 
ENDBRANCH  29  32
ENDBRANCH  26  28
ENDBRANCH  23  24
BRANCH  23  39
ATOM     38  C   UNL     1       2.796   2.826   3.622  0.00  0.00    +0.009 C 
ATOM     39  C   UNL     1       2.432   3.614   2.362  0.00  0.00    +0.012 C 
ATOM     40  C   UNL     1       3.671   4.349   1.845  0.00  0.00    +0.009 C 
ENDBRANCH  23  39
ENDBRANCH   1  23
TORSDOF 9
