REMARK  Name = ZINC28658325
REMARK  7 active torsions:
REMARK  status: ('A' for Active; 'I' for Inactive)
REMARK    1  A    between atoms: C_3  and  S_14
REMARK    2  A    between atoms: C_6  and  O_7
REMARK    3  A    between atoms: O_7  and  C_8
REMARK    4  A    between atoms: C_8  and  C_9
REMARK    5  A    between atoms: C_9  and  S_10
REMARK    6  A    between atoms: S_10  and  C_11
REMARK    7  A    between atoms: S_14  and  N_17
REMARK                            x       y       z     vdW  Elec       q    Type
REMARK                         _______ _______ _______ _____ _____    ______ ____
ROOT
ATOM      1  C   UNL     1      -0.017   1.377   0.010  0.00  0.00    +0.047 A 
ATOM      2  C   UNL     1       0.002  -0.004   0.002  0.00  0.00    +0.032 A 
ATOM      3  C   UNL     1       1.208  -0.680  -0.013  0.00  0.00    +0.106 A 
ATOM      4  C   UNL     1       2.398   0.024  -0.021  0.00  0.00    +0.032 A 
ATOM      5  C   UNL     1       2.385   1.405  -0.013  0.00  0.00    +0.047 A 
ATOM      6  C   UNL     1       1.176   2.086   0.002  0.00  0.00    +0.121 A 
ENDROOT
BRANCH   3   7
ATOM      7  S   UNL     1       1.228  -2.442  -0.022  0.00  0.00    +0.061 S 
ATOM      8  O   UNL     1       2.484  -2.836   0.514  0.00  0.00    -0.153 OA
ATOM      9  O   UNL     1      -0.007  -2.865   0.539  0.00  0.00    -0.153 OA
BRANCH   7  10
ATOM     10  N   UNL     1       1.219  -2.924  -1.607  0.00  0.00    -0.172 NA
ATOM     11  C   UNL     1      -0.047  -3.165  -2.317  0.00  0.00    +0.137 C 
ATOM     12  C   UNL     1      -0.008  -2.387  -3.643  0.00  0.00    +0.177 C 
ATOM     13  O   UNL     1       1.190  -2.723  -4.348  0.00  0.00    -0.377 OA
ATOM     14  C   UNL     1       2.392  -2.359  -3.666  0.00  0.00    +0.177 C 
ATOM     15  C   UNL     1       2.476  -3.129  -2.344  0.00  0.00    +0.137 C 
ENDBRANCH   7  10
ENDBRANCH   3   7
BRANCH   6  16
ATOM     16  O   UNL     1       1.160   3.445   0.009  0.00  0.00    -0.491 OA
BRANCH  16  17
ATOM     17  C   UNL     1       2.426   4.108   0.001  0.00  0.00    +0.240 C 
BRANCH  17  18
ATOM     18  C   UNL     1       2.208   5.623   0.010  0.00  0.00    +0.118 C 
BRANCH  18  19
ATOM     19  S   UNL     1       3.811   6.463  -0.001  0.00  0.00    -0.090 S 
BRANCH  19  20
ATOM     20  C   UNL     1       3.276   8.142   0.013  0.00  0.00    +0.123 C 
ATOM     21  N   UNL     1       2.002   8.421   0.026  0.00  0.00    -0.382 N 
ATOM     22  N   UNL     1       4.202   9.159   0.009  0.00  0.00    -0.340 N 
ATOM     23  H   UNL     1       1.668   9.469   0.035  0.00  0.00    +0.158 HD
ATOM     24  H   UNL     1       3.869  10.207   0.018  0.00  0.00    +0.144 HD
ATOM     25  H   UNL     1       5.277   8.924  -0.002  0.00  0.00    +0.144 HD
ATOM     26  H   UNL     1       1.261   7.608   0.029  0.00  0.00    +0.158 HD
ENDBRANCH  19  20
ENDBRANCH  18  19
ENDBRANCH  17  18
ENDBRANCH  16  17
ENDBRANCH   6  16
TORSDOF 7
