REMARK  Name = ZINC39683971
REMARK  11 active torsions:
REMARK  status: ('A' for Active; 'I' for Inactive)
REMARK    1  A    between atoms: C_1  and  C_2
REMARK    2  A    between atoms: C_2  and  C_3
REMARK    3  A    between atoms: C_3  and  C_4
REMARK    4  A    between atoms: C_4  and  C_5
REMARK    5  A    between atoms: C_5  and  C_7
REMARK    6  A    between atoms: C_5  and  C_8
REMARK    7  A    between atoms: C_12  and  C_21
REMARK    8  A    between atoms: N_23  and  C_24
REMARK    9  A    between atoms: C_24  and  C_26
REMARK   10  A    between atoms: C_24  and  C_27
REMARK   11  A    between atoms: N_29  and  C_30
REMARK                            x       y       z     vdW  Elec       q    Type
REMARK                         _______ _______ _______ _____ _____    ______ ____
ROOT
ATOM      1  C   UNL     1      -2.990  -4.336   0.307  0.00  0.00    +0.218 C 
ATOM      2  O   UNL     1      -1.997  -4.998   0.523  0.00  0.00    -0.275 OA
ATOM      3  N   UNL     1      -4.179  -4.945   0.127  0.00  0.00    -0.300 N 
ATOM      4  C   UNL     1      -5.470  -4.322  -0.253  0.00  0.00    +0.121 C 
ATOM      5  C   UNL     1      -6.114  -5.327  -1.234  0.00  0.00    +0.100 C 
ATOM      6  C   UNL     1      -5.470  -6.680  -0.889  0.00  0.00    -0.004 C 
ATOM      7  C   UNL     1      -4.490  -6.388   0.257  0.00  0.00    +0.115 C 
ATOM      8  C   UNL     1      -4.713  -7.228  -2.096  0.00  0.00    -0.010 C 
ATOM      9  C   UNL     1      -4.129  -8.600  -1.747  0.00  0.00    -0.082 C 
ATOM     10  N   UNL     1      -5.214  -9.513  -1.369  0.00  0.00    +0.379 N 
ATOM     11  C   UNL     1      -5.878  -9.027  -0.153  0.00  0.00    -0.082 C 
ATOM     12  C   UNL     1      -6.535  -7.673  -0.435  0.00  0.00    -0.010 C 
ATOM     13  H   UNL     1      -5.886  -9.564  -2.120  0.00  0.00    -0.086 HD
ATOM     14  H   UNL     1      -4.834 -10.432  -1.199  0.00  0.00    -0.086 HD
ENDROOT
BRANCH   5  15
ATOM     15  C   UNL     1      -7.605  -5.384  -1.022  0.00  0.00    +0.219 C 
ATOM     16  O   UNL     1      -8.071  -5.159   0.075  0.00  0.00    -0.275 OA
ATOM     17  N   UNL     1      -8.421  -5.686  -2.052  0.00  0.00    -0.304 N 
ATOM     18  H   UNL     1      -8.048  -5.866  -2.929  0.00  0.00    +0.149 HD
BRANCH  17  19
ATOM     19  C   UNL     1      -9.870  -5.741  -1.846  0.00  0.00    +0.156 C 
ATOM     20  C   UNL     1     -10.459  -4.336  -1.983  0.00  0.00    +0.038 C 
BRANCH  19  21
ATOM     21  C   UNL     1     -10.489  -6.648  -2.878  0.00  0.00    +0.233 C 
ATOM     22  O   UNL     1      -9.789  -7.194  -3.705  0.00  0.00    -0.274 OA
ATOM     23  N   UNL     1     -11.822  -6.852  -2.884  0.00  0.00    -0.317 N 
ATOM     24  C   UNL     1     -12.424  -7.733  -3.887  0.00  0.00    +0.128 C 
ATOM     25  H   UNL     1     -12.382  -6.415  -2.223  0.00  0.00    +0.148 HD
ENDBRANCH  19  21
ENDBRANCH  17  19
ENDBRANCH   5  15
BRANCH   1  26
ATOM     26  C   UNL     1      -2.894  -2.834   0.240  0.00  0.00    +0.072 C 
ATOM     27  C   UNL     1      -2.587  -2.406  -1.196  0.00  0.00    +0.017 C 
BRANCH  26  28
ATOM     28  C   UNL     1      -1.776  -2.352   1.166  0.00  0.00    +0.012 C 
BRANCH  28  29
ATOM     29  C   UNL     1      -1.760  -0.823   1.194  0.00  0.00    +0.000 C 
BRANCH  29  31
ATOM     30  C   UNL     1      -0.626   1.189   2.149  0.00  0.00    +0.004 C 
ATOM     31  C   UNL     1      -0.642  -0.341   2.121  0.00  0.00    -0.003 C 
ENDBRANCH  29  31
ENDBRANCH  28  29
ENDBRANCH  26  28
ENDBRANCH   1  26
TORSDOF 7
