REMARK  Name = ZINC37655924
REMARK  6 active torsions:
REMARK  status: ('A' for Active; 'I' for Inactive)
REMARK    1  A    between atoms: C_1  and  C_2
REMARK    2  A    between atoms: C_7  and  N_12
REMARK    3  A    between atoms: C_9  and  C_11
REMARK    4  A    between atoms: N_12  and  S_13
REMARK    5  A    between atoms: S_13  and  N_16
REMARK    6  A    between atoms: C_19  and  C_22
REMARK                            x       y       z     vdW  Elec       q    Type
REMARK                         _______ _______ _______ _____ _____    ______ ____
ROOT
ATOM      1  S   UNL     1       0.906  -3.850   3.238  0.00  0.00    +0.097 S 
ATOM      2  O   UNL     1       0.782  -4.939   2.333  0.00  0.00    -0.141 OA
ATOM      3  O   UNL     1       1.723  -3.914   4.399  0.00  0.00    -0.141 OA
ENDROOT
BRANCH   1   4
ATOM      4  N   UNL     1      -0.625  -3.489   3.756  0.00  0.00    -0.167 NA
ATOM      5  C   UNL     1      -0.836  -2.759   5.014  0.00  0.00    +0.111 C 
ATOM      6  C   UNL     1      -1.716  -1.536   4.733  0.00  0.00    +0.032 C 
ATOM      7  C   UNL     1      -3.005  -1.988   4.044  0.00  0.00    +0.105 C 
ATOM      8  C   UNL     1      -2.666  -2.656   2.709  0.00  0.00    +0.032 C 
ATOM      9  C   UNL     1      -1.797  -3.886   2.964  0.00  0.00    +0.111 C 
BRANCH   7  10
ATOM     10  C   UNL     1      -3.888  -0.792   3.796  0.00  0.00    +0.359 C 
ATOM     11  O   UNL     1      -4.646  -0.781   2.841  0.00  0.00    -0.246 OA
ATOM     12  O   UNL     1      -3.844   0.164   4.551  0.00  0.00    -0.246 OA
ENDBRANCH   7  10
ENDBRANCH   1   4
BRANCH   1  13
ATOM     13  N   UNL     1       1.441  -2.557   2.353  0.00  0.00    -0.176 NA
ATOM     14  H   UNL     1       2.189  -2.027   2.671  0.00  0.00    +0.149 HD
BRANCH  13  20
ATOM     15  C   UNL     1       0.159   1.181  -0.618  0.00  0.00    +0.008 C 
ATOM     16  C   UNL     1       0.130  -0.336  -0.425  0.00  0.00    -0.010 C 
ATOM     17  C   UNL     1       0.868  -1.012  -1.582  0.00  0.00    +0.003 C 
ATOM     18  C   UNL     1       0.839  -2.530  -1.389  0.00  0.00    +0.002 C 
ATOM     19  C   UNL     1       1.523  -2.889  -0.069  0.00  0.00    +0.021 C 
ATOM     20  C   UNL     1       0.786  -2.213   1.089  0.00  0.00    +0.081 C 
ATOM     21  C   UNL     1       0.815  -0.696   0.896  0.00  0.00    +0.007 C 
ATOM     22  C   UNL     1       0.077  -0.020   2.053  0.00  0.00    +0.009 C 
ENDBRANCH  13  20
ENDBRANCH   1  13
TORSDOF 4
