REMARK  Name = ZINC59170691
REMARK  8 active torsions:
REMARK  status: ('A' for Active; 'I' for Inactive)
REMARK    1  A    between atoms: C_1  and  C_2
REMARK    2  A    between atoms: C_2  and  O_3
REMARK    3  A    between atoms: O_3  and  C_4
REMARK    4  A    between atoms: N_12  and  C_13
REMARK    5  A    between atoms: C_16  and  S_19
REMARK    6  A    between atoms: S_19  and  N_22
REMARK    7  A    between atoms: C_23  and  C_25
REMARK    8  A    between atoms: N_27  and  C_28
REMARK                            x       y       z     vdW  Elec       q    Type
REMARK                         _______ _______ _______ _____ _____    ______ ____
ROOT
ATOM      1  C   UNL     1       0.757  -2.057  -1.447  0.00  0.00    +0.163 A 
ATOM      2  C   UNL     1      -0.181  -2.914  -0.898  0.00  0.00    +0.049 A 
ATOM      3  C   UNL     1      -0.511  -4.101  -1.535  0.00  0.00    +0.004 A 
ATOM      4  C   UNL     1       0.093  -4.447  -2.722  0.00  0.00    +0.012 A 
ATOM      5  C   UNL     1       1.047  -3.593  -3.290  0.00  0.00    +0.022 A 
ATOM      6  C   UNL     1       1.374  -2.384  -2.650  0.00  0.00    +0.179 A 
ATOM      7  O   UNL     1       2.287  -1.550  -3.207  0.00  0.00    -0.435 OA
ATOM      8  C   UNL     1       3.234  -2.114  -4.000  0.00  0.00    +0.212 A 
ATOM      9  N   UNL     1       4.486  -1.714  -3.949  0.00  0.00    -0.325 N 
ATOM     10  C   UNL     1       2.815  -3.190  -4.920  0.00  0.00    +0.098 A 
ATOM     11  C   UNL     1       1.710  -3.941  -4.550  0.00  0.00    +0.030 A 
ATOM     12  H   UNL     1       5.171  -2.203  -4.432  0.00  0.00    +0.169 HD
ENDROOT
BRANCH   9  13
ATOM     13  C   UNL     1       4.822  -0.610  -3.217  0.00  0.00    +0.042 A 
ATOM     14  C   UNL     1       4.044   0.548  -3.295  0.00  0.00    +0.027 A 
ATOM     15  C   UNL     1       4.389   1.658  -2.553  0.00  0.00    +0.030 A 
ATOM     16  C   UNL     1       5.503   1.627  -1.733  0.00  0.00    +0.105 A 
ATOM     17  C   UNL     1       6.279   0.485  -1.651  0.00  0.00    +0.030 A 
ATOM     18  C   UNL     1       5.943  -0.635  -2.383  0.00  0.00    +0.027 A 
BRANCH  16  19
ATOM     19  S   UNL     1       5.937   3.051  -0.789  0.00  0.00    +0.056 S 
ATOM     20  O   UNL     1       7.328   2.952  -0.520  0.00  0.00    -0.153 OA
ATOM     21  O   UNL     1       5.367   4.169  -1.456  0.00  0.00    -0.153 OA
BRANCH  19  22
ATOM     22  N   UNL     1       5.163   2.925   0.669  0.00  0.00    -0.204 NA
ATOM     23  H   UNL     1       4.598   2.159   0.855  0.00  0.00    +0.144 HD
ATOM     24  H   UNL     1       5.274   3.619   1.339  0.00  0.00    +0.144 HD
ENDBRANCH  19  22
ENDBRANCH  16  19
ENDBRANCH   9  13
BRANCH  10  25
ATOM     25  C   UNL     1       3.546  -3.461  -6.169  0.00  0.00    +0.253 C 
ATOM     26  O   UNL     1       3.245  -4.420  -6.854  0.00  0.00    -0.270 OA
ATOM     27  N   UNL     1       4.548  -2.646  -6.554  0.00  0.00    -0.279 N 
ATOM     28  H   UNL     1       4.819  -1.909  -5.984  0.00  0.00    +0.155 HD
BRANCH  27  29
ATOM     29  C   UNL     1       5.197  -2.863  -7.774  0.00  0.00    +0.069 A 
ATOM     30  C   UNL     1       5.143  -4.112  -8.379  0.00  0.00    +0.026 A 
ATOM     31  C   UNL     1       5.785  -4.323  -9.584  0.00  0.00    +0.002 A 
ATOM     32  C   UNL     1       6.481  -3.293 -10.189  0.00  0.00    +0.003 A 
ATOM     33  C   UNL     1       6.539  -2.047  -9.591  0.00  0.00    +0.040 A 
ATOM     34  C   UNL     1       5.893  -1.827  -8.388  0.00  0.00    +0.144 A 
ATOM     35  F   UNL     1       5.943  -0.608  -7.806  0.00  0.00    -0.204 F 
ENDBRANCH  27  29
ENDBRANCH  10  25
BRANCH   1  36
ATOM     36  O   UNL     1       1.071  -0.895  -0.814  0.00  0.00    -0.489 OA
BRANCH  36  38
ATOM     37  C   UNL     1       0.877   0.717   0.977  0.00  0.00    +0.048 C 
ATOM     38  C   UNL     1       0.398  -0.624   0.417  0.00  0.00    +0.226 C 
ENDBRANCH  36  38
ENDBRANCH   1  36
TORSDOF 7
