REMARK  Name = ZINC65441542
REMARK  10 active torsions:
REMARK  status: ('A' for Active; 'I' for Inactive)
REMARK    1  A    between atoms: C_1  and  C_2
REMARK    2  A    between atoms: C_2  and  C_3
REMARK    3  A    between atoms: C_2  and  N_4
REMARK    4  A    between atoms: C_7  and  C_9
REMARK    5  A    between atoms: C_9  and  N_10
REMARK    6  A    between atoms: N_13  and  C_14
REMARK    7  A    between atoms: C_14  and  C_15
REMARK    8  A    between atoms: C_19  and  S_21
REMARK    9  A    between atoms: S_21  and  N_24
REMARK   10  A    between atoms: N_24  and  C_25
REMARK                            x       y       z     vdW  Elec       q    Type
REMARK                         _______ _______ _______ _____ _____    ______ ____
ROOT
ATOM      1  N   UNL     1       1.718  -3.643   4.477  0.00  0.00    -0.299 N 
ATOM      2  C   UNL     1       2.705  -4.346   5.069  0.00  0.00    +0.300 C 
ATOM      3  O   UNL     1       3.724  -4.597   4.456  0.00  0.00    -0.253 OA
ATOM      4  N   UNL     1       2.561  -4.769   6.340  0.00  0.00    -0.295 N 
ATOM      5  H   UNL     1       0.905  -3.443   4.966  0.00  0.00    +0.150 HD
ATOM      6  H   UNL     1       1.748  -4.569   6.829  0.00  0.00    +0.151 HD
ENDROOT
BRANCH   1   7
ATOM      7  C   UNL     1       1.874  -3.183   3.095  0.00  0.00    +0.107 C 
BRANCH   7  11
ATOM      8  N   UNL     1       0.713  -0.491   1.192  0.00  0.00    +0.381 N 
ATOM      9  C   UNL     1      -0.018  -0.094   2.423  0.00  0.00    -0.078 C 
ATOM     10  C   UNL     1       0.491  -1.107   3.479  0.00  0.00    -0.015 C 
ATOM     11  C   UNL     1       0.621  -2.416   2.668  0.00  0.00    -0.012 C 
ATOM     12  C   UNL     1       0.742  -1.969   1.200  0.00  0.00    -0.074 C 
ATOM     13  H   UNL     1       1.652  -0.124   1.211  0.00  0.00    -0.081 HD
BRANCH   8  15
ATOM     14  C   UNL     1      -0.019   1.526   0.010  0.00  0.00    -0.014 C 
ATOM     15  C   UNL     1       0.002  -0.004   0.002  0.00  0.00    -0.075 C 
ATOM     16  C   UNL     1       0.718  -0.497  -1.257  0.00  0.00    -0.014 C 
ENDBRANCH   8  15
ENDBRANCH   7  11
ENDBRANCH   1   7
BRANCH   4  17
ATOM     17  C   UNL     1       3.633  -5.533   6.983  0.00  0.00    +0.141 C 
BRANCH  17  18
ATOM     18  C   UNL     1       3.226  -5.883   8.391  0.00  0.00    -0.028 A 
ATOM     19  C   UNL     1       3.523  -5.022   9.431  0.00  0.00    +0.005 A 
ATOM     20  C   UNL     1       3.149  -5.343  10.723  0.00  0.00    +0.002 A 
ATOM     21  C   UNL     1       2.478  -6.525  10.974  0.00  0.00    +0.028 A 
ATOM     22  C   UNL     1       2.180  -7.386   9.934  0.00  0.00    +0.106 A 
ATOM     23  C   UNL     1       2.550  -7.062   8.642  0.00  0.00    +0.033 A 
BRANCH  22  24
ATOM     24  S   UNL     1       1.325  -8.893  10.255  0.00  0.00    +0.058 S 
ATOM     25  O   UNL     1       1.649  -9.777   9.191  0.00  0.00    -0.153 OA
ATOM     26  O   UNL     1       1.571  -9.216  11.617  0.00  0.00    -0.153 OA
BRANCH  24  27
ATOM     27  N   UNL     1      -0.294  -8.573  10.129  0.00  0.00    -0.193 NA
ATOM     28  C   UNL     1      -0.865  -8.178   8.838  0.00  0.00    +0.127 C 
ATOM     29  H   UNL     1      -0.866  -8.647  10.909  0.00  0.00    +0.148 HD
ENDBRANCH  24  27
ENDBRANCH  22  24
ENDBRANCH  17  18
ENDBRANCH   4  17
TORSDOF 7
