REMARK  Name = ZINC12895244
REMARK  13 active torsions:
REMARK  status: ('A' for Active; 'I' for Inactive)
REMARK    1  A    between atoms: C_4  and  C_7
REMARK    2  A    between atoms: C_7  and  C_8
REMARK    3  A    between atoms: C_7  and  O_14
REMARK    4  A    between atoms: O_14  and  C_15
REMARK    5  A    between atoms: C_15  and  C_16
REMARK    6  A    between atoms: C_16  and  C_18
REMARK    7  A    between atoms: C_16  and  O_31
REMARK    8  A    between atoms: C_18  and  N_58
REMARK    9  A    between atoms: C_19  and  C_20
REMARK   10  A    between atoms: C_19  and  N_58
REMARK   11  A    between atoms: C_20  and  C_21
REMARK   12  A    between atoms: C_24  and  S_27
REMARK   13  A    between atoms: S_27  and  N_30
REMARK                            x       y       z     vdW  Elec       q    Type
REMARK                         _______ _______ _______ _____ _____    ______ ____
ROOT
ATOM      1  C   UNL     1      -1.987   7.455   2.435  0.00  0.00    +0.123 C 
ENDROOT
BRANCH   1   2
ATOM      2  O   UNL     1      -3.160   7.668   1.647  0.00  0.00    -0.391 OA
ATOM      3  H   UNL     1      -3.069   8.368   0.987  0.00  0.00    +0.210 HD
ENDBRANCH   1   2
BRANCH   1   4
ATOM      4  C   UNL     1      -0.824   7.066   1.521  0.00  0.00    +0.190 C 
BRANCH   4   5
ATOM      5  O   UNL     1      -1.101   5.805   0.908  0.00  0.00    -0.365 OA
BRANCH   5   6
ATOM      6  C   UNL     1      -0.070   5.347   0.030  0.00  0.00    +0.178 C 
BRANCH   6  10
ATOM      7  C   UNL     1      -0.013   1.076   0.008  0.00  0.00    +0.000 A 
ATOM      8  C   UNL     1      -1.219   1.751   0.017  0.00  0.00    +0.000 A 
ATOM      9  C   UNL     1      -1.238   3.133   0.030  0.00  0.00    +0.006 A 
ATOM     10  C   UNL     1      -0.050   3.840   0.022  0.00  0.00    -0.015 A 
ATOM     11  C   UNL     1       1.156   3.165   0.008  0.00  0.00    +0.006 A 
ATOM     12  C   UNL     1       1.175   1.783   0.000  0.00  0.00    +0.000 A 
ENDBRANCH   6  10
BRANCH   6  13
ATOM     13  C   UNL     1      -0.337   5.853  -1.365  0.00  0.00    -0.015 A 
ATOM     14  C   UNL     1      -1.637   5.964  -1.823  0.00  0.00    +0.006 A 
ATOM     15  C   UNL     1      -1.882   6.432  -3.100  0.00  0.00    +0.000 A 
ATOM     16  C   UNL     1      -0.827   6.780  -3.923  0.00  0.00    +0.000 A 
ATOM     17  C   UNL     1       0.473   6.663  -3.467  0.00  0.00    +0.000 A 
ATOM     18  C   UNL     1       0.718   6.200  -2.188  0.00  0.00    +0.006 A 
ENDBRANCH   6  13
ENDBRANCH   5   6
ENDBRANCH   4   5
ENDBRANCH   1   4
BRANCH   1  19
ATOM     19  C   UNL     1      -1.637   8.741   3.186  0.00  0.00    -0.049 C 
BRANCH  19  20
ATOM     20  N   UNL     1      -2.711   9.044   4.152  0.00  0.00    +0.381 N 
ATOM     21  H   UNL     1      -2.799   8.266   4.815  0.00  0.00    -0.086 HD
ATOM     22  H   UNL     1      -3.596   9.165   3.646  0.00  0.00    -0.086 HD
BRANCH  20  23
ATOM     23  C   UNL     1      -2.400  10.282   4.892  0.00  0.00    -0.078 C 
BRANCH  23  24
ATOM     24  C   UNL     1      -3.528  10.570   5.884  0.00  0.00    +0.016 C 
BRANCH  24  25
ATOM     25  C   UNL     1      -3.218  11.833   6.644  0.00  0.00    -0.049 A 
ATOM     26  C   UNL     1      -2.511  11.769   7.831  0.00  0.00    +0.005 A 
ATOM     27  C   UNL     1      -2.223  12.929   8.527  0.00  0.00    +0.029 A 
ATOM     28  C   UNL     1      -2.649  14.150   8.041  0.00  0.00    +0.105 A 
ATOM     29  C   UNL     1      -3.360  14.214   6.857  0.00  0.00    +0.029 A 
ATOM     30  C   UNL     1      -3.645  13.055   6.159  0.00  0.00    +0.005 A 
BRANCH  28  31
ATOM     31  S   UNL     1      -2.285  15.628   8.930  0.00  0.00    +0.056 S 
ATOM     32  O   UNL     1      -1.139  15.352   9.723  0.00  0.00    -0.153 OA
ATOM     33  O   UNL     1      -2.322  16.689   7.986  0.00  0.00    -0.153 OA
BRANCH  31  34
ATOM     34  N   UNL     1      -3.538  15.887   9.982  0.00  0.00    -0.204 NA
ATOM     35  H   UNL     1      -4.283  15.266  10.011  0.00  0.00    +0.144 HD
ATOM     36  H   UNL     1      -3.526  16.659  10.568  0.00  0.00    +0.144 HD
ENDBRANCH  31  34
ENDBRANCH  28  31
ENDBRANCH  24  25
ENDBRANCH  23  24
ENDBRANCH  20  23
ENDBRANCH  19  20
ENDBRANCH   1  19
TORSDOF 13
