REMARK  Name = ZINC21323781
REMARK  9 active torsions:
REMARK  status: ('A' for Active; 'I' for Inactive)
REMARK    1  A    between atoms: C_1  and  C_2
REMARK    2  A    between atoms: C_2  and  C_22
REMARK    3  A    between atoms: N_3  and  N_4
REMARK    4  A    between atoms: C_8  and  S_11
REMARK    5  A    between atoms: N_9  and  N_10
REMARK    6  A    between atoms: S_11  and  C_12
REMARK    7  A    between atoms: C_12  and  C_13
REMARK    8  A    between atoms: N_15  and  C_16
REMARK    9  A    between atoms: C_16  and  C_17
REMARK                            x       y       z     vdW  Elec       q    Type
REMARK                         _______ _______ _______ _____ _____    ______ ____
ROOT
ATOM      1  N   UNL     1       6.010   6.032  -0.021  0.00  0.00    -0.204 N 
ATOM      2  C   UNL     1       5.990   7.419  -0.014  0.00  0.00    +0.254 A 
ATOM      3  N   UNL     1       4.918   8.174  -0.000  0.00  0.00    -0.109 NA
ATOM      4  N   UNL     1       5.332   9.513   0.003  0.00  0.00    -0.119 NA
ATOM      5  C   UNL     1       6.644   9.531  -0.009  0.00  0.00    +0.210 A 
ATOM      6  N   UNL     1       7.085   8.239  -0.014  0.00  0.00    -0.211 N 
ATOM      7  H   UNL     1       6.970   5.495  -0.033  0.00  0.00    +0.178 HD
ENDROOT
BRANCH   1  10
ATOM      8  C   UNL     1       6.141   3.280  -0.036  0.00  0.00    +0.068 C 
ATOM      9  C   UNL     1       4.826   4.015  -0.021  0.00  0.00    +0.063 C 
ATOM     10  N   UNL     1       4.807   5.314  -0.014  0.00  0.00    -0.184 NA
BRANCH   9  11
ATOM     11  C   UNL     1       3.560   3.260  -0.013  0.00  0.00    -0.002 A 
ATOM     12  C   UNL     1       3.586   1.852  -0.021  0.00  0.00    +0.010 A 
ATOM     13  C   UNL     1       2.434   1.135  -0.014  0.00  0.00    +0.009 A 
ATOM     14  C   UNL     1       1.192   1.798   0.000  0.00  0.00    -0.018 A 
ATOM     15  C   UNL     1      -0.013   1.076   0.008  0.00  0.00    +0.008 A 
ATOM     16  C   UNL     1      -1.199   1.743   0.017  0.00  0.00    +0.001 A 
ATOM     17  C   UNL     1      -1.239   3.136   0.030  0.00  0.00    +0.001 A 
ATOM     18  C   UNL     1      -0.093   3.870   0.023  0.00  0.00    +0.008 A 
ATOM     19  C   UNL     1       1.152   3.215   0.008  0.00  0.00    -0.017 A 
ATOM     20  C   UNL     1       2.353   3.941   0.001  0.00  0.00    +0.018 A 
ENDBRANCH   9  11
ENDBRANCH   1  10
BRANCH   6  21
ATOM     21  N   UNL     1       8.389   7.835  -0.022  0.00  0.00    -0.294 N 
ATOM     22  H   UNL     1       9.196   8.583  -0.021  0.00  0.00    +0.163 HD
ATOM     23  H   UNL     1       8.633   6.762  -0.029  0.00  0.00    +0.163 HD
ENDBRANCH   6  21
BRANCH   5  24
ATOM     24  S   UNL     1       7.659  10.971  -0.011  0.00  0.00    -0.075 S 
BRANCH  24  25
ATOM     25  C   UNL     1       6.473  12.344   0.007  0.00  0.00    +0.173 C 
BRANCH  25  26
ATOM     26  C   UNL     1       7.221  13.653   0.007  0.00  0.00    +0.224 C 
ATOM     27  O   UNL     1       8.433  13.659  -0.004  0.00  0.00    -0.275 OA
ATOM     28  N   UNL     1       6.541  14.817   0.019  0.00  0.00    -0.308 N 
ATOM     29  H   UNL     1       5.441  14.811   0.028  0.00  0.00    +0.149 HD
BRANCH  28  30
ATOM     30  C   UNL     1       7.267  16.089   0.019  0.00  0.00    +0.178 C 
BRANCH  30  31
ATOM     31  C   UNL     1       6.282  17.230   0.033  0.00  0.00    +0.122 A 
ATOM     32  C   UNL     1       5.777  17.820   1.132  0.00  0.00    +0.046 A 
ATOM     33  C   UNL     1       4.899  18.834   0.686  0.00  0.00    +0.041 A 
ATOM     34  C   UNL     1       4.920  18.803  -0.659  0.00  0.00    +0.195 A 
ATOM     35  O   UNL     1       5.763  17.834  -1.048  0.00  0.00    -0.466 OA
ENDBRANCH  30  31
ENDBRANCH  28  30
ENDBRANCH  25  26
ENDBRANCH  24  25
ENDBRANCH   5  24
TORSDOF 8
