REMARK  Name = ZINC49574748
REMARK  11 active torsions:
REMARK  status: ('A' for Active; 'I' for Inactive)
REMARK    1  A    between atoms: C_1  and  C_2
REMARK    2  A    between atoms: C_2  and  C_4
REMARK    3  A    between atoms: C_2  and  N_14
REMARK    4  A    between atoms: C_7  and  S_10
REMARK    5  A    between atoms: S_10  and  N_13
REMARK    6  A    between atoms: N_14  and  C_15
REMARK    7  A    between atoms: C_15  and  C_17
REMARK    8  A    between atoms: C_15  and  C_18
REMARK    9  A    between atoms: N_20  and  C_21
REMARK   10  A    between atoms: C_21  and  C_22
REMARK   11  A    between atoms: C_22  and  C_23
REMARK                            x       y       z     vdW  Elec       q    Type
REMARK                         _______ _______ _______ _____ _____    ______ ____
ROOT
ATOM      1  N   UNL     1       0.755  -0.369  -1.226  0.00  0.00    +0.391 N 
ATOM      2  H   UNL     1       1.696  -0.006  -1.246  0.00  0.00    -0.084 HD
ATOM      3  H   UNL     1       0.783  -1.377  -1.249  0.00  0.00    -0.084 HD
ENDROOT
BRANCH   1   5
ATOM      4  C   UNL     1       0.928  -0.326   1.216  0.00  0.00    -0.009 C 
ATOM      5  C   UNL     1       0.085   0.074   0.004  0.00  0.00    -0.043 C 
BRANCH   5   6
ATOM      6  C   UNL     1      -1.272  -0.576   0.099  0.00  0.00    -0.062 A 
ATOM      7  C   UNL     1      -1.430  -1.900  -0.264  0.00  0.00    +0.004 A 
ATOM      8  C   UNL     1      -2.675  -2.496  -0.176  0.00  0.00    +0.029 A 
ATOM      9  C   UNL     1      -3.760  -1.768   0.274  0.00  0.00    +0.105 A 
ATOM     10  C   UNL     1      -3.601  -0.444   0.638  0.00  0.00    +0.029 A 
ATOM     11  C   UNL     1      -2.356   0.151   0.555  0.00  0.00    +0.004 A 
BRANCH   9  12
ATOM     12  S   UNL     1      -5.346  -2.528   0.385  0.00  0.00    +0.056 S 
ATOM     13  O   UNL     1      -6.303  -1.480   0.317  0.00  0.00    -0.153 OA
ATOM     14  O   UNL     1      -5.340  -3.615  -0.531  0.00  0.00    -0.153 OA
BRANCH  12  15
ATOM     15  N   UNL     1      -5.470  -3.185   1.899  0.00  0.00    -0.204 NA
ATOM     16  H   UNL     1      -6.337  -3.256   2.328  0.00  0.00    +0.144 HD
ATOM     17  H   UNL     1      -4.675  -3.499   2.359  0.00  0.00    +0.144 HD
ENDBRANCH  12  15
ENDBRANCH   9  12
ENDBRANCH   5   6
ENDBRANCH   1   5
BRANCH   1  18
ATOM     18  C   UNL     1       0.014   0.127  -2.393  0.00  0.00    +0.014 C 
ATOM     19  C   UNL     1       0.100   1.654  -2.441  0.00  0.00    -0.004 C 
BRANCH  18  20
ATOM     20  C   UNL     1       0.612  -0.450  -3.650  0.00  0.00    +0.199 C 
ATOM     21  O   UNL     1       1.562  -1.200  -3.581  0.00  0.00    -0.278 OA
ATOM     22  N   UNL     1       0.092  -0.131  -4.852  0.00  0.00    -0.316 N 
ATOM     23  H   UNL     1      -0.668   0.469  -4.908  0.00  0.00    +0.149 HD
BRANCH  22  24
ATOM     24  C   UNL     1       0.673  -0.692  -6.074  0.00  0.00    +0.109 C 
BRANCH  24  25
ATOM     25  C   UNL     1      -0.098  -0.175  -7.290  0.00  0.00    +0.054 C 
BRANCH  25  26
ATOM     26  C   UNL     1       0.500  -0.752  -8.547  0.00  0.00    -0.046 A 
ATOM     27  C   UNL     1       1.522  -0.084  -9.195  0.00  0.00    +0.006 A 
ATOM     28  C   UNL     1       2.072  -0.612 -10.348  0.00  0.00    +0.038 A 
ATOM     29  C   UNL     1       1.599  -1.811 -10.854  0.00  0.00    +0.123 A 
ATOM     30  C   UNL     1       0.575  -2.479 -10.204  0.00  0.00    +0.038 A 
ATOM     31  C   UNL     1       0.030  -1.952  -9.048  0.00  0.00    +0.006 A 
ATOM     32  F   UNL     1       2.135  -2.328 -11.980  0.00  0.00    -0.205 F 
ENDBRANCH  25  26
ENDBRANCH  24  25
ENDBRANCH  22  24
ENDBRANCH  18  20
ENDBRANCH   1  18
TORSDOF 9
