REMARK  Name = ZINC39983984
REMARK  11 active torsions:
REMARK  status: ('A' for Active; 'I' for Inactive)
REMARK    1  A    between atoms: C_1  and  C_2
REMARK    2  A    between atoms: N_4  and  C_5
REMARK    3  A    between atoms: N_4  and  C_11
REMARK    4  A    between atoms: C_5  and  C_6
REMARK    5  A    between atoms: C_6  and  C_7
REMARK    6  A    between atoms: C_7  and  O_9
REMARK    7  A    between atoms: O_9  and  C_10
REMARK    8  A    between atoms: C_14  and  N_17
REMARK    9  A    between atoms: N_17  and  C_18
REMARK   10  A    between atoms: N_21  and  S_22
REMARK   11  A    between atoms: S_22  and  C_25
REMARK                            x       y       z     vdW  Elec       q    Type
REMARK                         _______ _______ _______ _____ _____    ______ ____
ROOT
ATOM      1  C   UNL     1      -6.074   3.414  -0.104  0.00  0.00    +0.237 C 
ATOM      2  C   UNL     1      -7.166   3.787  -1.081  0.00  0.00    +0.192 C 
ATOM      3  N   UNL     1      -7.148   3.328  -2.298  0.00  0.00    -0.110 NA
ATOM      4  N   UNL     1      -8.155   4.599  -0.674  0.00  0.00    -0.226 NA
ATOM      5  C   UNL     1      -8.196   5.076   0.552  0.00  0.00    +0.089 A 
ATOM      6  C   UNL     1      -9.255   5.931   0.948  0.00  0.00    +0.030 A 
ATOM      7  C   UNL     1      -9.302   6.424   2.205  0.00  0.00    +0.002 A 
ATOM      8  C   UNL     1      -8.329   6.128   3.174  0.00  0.00    +0.002 A 
ATOM      9  C   UNL     1      -7.277   5.324   2.902  0.00  0.00    +0.027 A 
ATOM     10  C   UNL     1      -7.154   4.746   1.556  0.00  0.00    +0.063 A 
ATOM     11  N   UNL     1      -6.154   3.966   1.257  0.00  0.00    -0.359 N 
ATOM     12  H   UNL     1      -5.476   3.753   1.919  0.00  0.00    +0.162 HD
ENDROOT
BRANCH   3  13
ATOM     13  S   UNL     1      -8.350   3.745  -3.358  0.00  0.00    +0.100 S 
ATOM     14  O   UNL     1      -9.548   3.162  -2.863  0.00  0.00    -0.146 OA
ATOM     15  O   UNL     1      -8.221   5.141  -3.590  0.00  0.00    -0.146 OA
BRANCH  13  16
ATOM     16  C   UNL     1      -7.996   2.946  -4.888  0.00  0.00    +0.113 A 
ATOM     17  C   UNL     1      -7.214   3.581  -5.835  0.00  0.00    +0.029 A 
ATOM     18  C   UNL     1      -6.936   2.954  -7.035  0.00  0.00    +0.002 A 
ATOM     19  C   UNL     1      -7.439   1.691  -7.288  0.00  0.00    +0.000 A 
ATOM     20  C   UNL     1      -8.220   1.056  -6.340  0.00  0.00    +0.002 A 
ATOM     21  C   UNL     1      -8.494   1.681  -5.139  0.00  0.00    +0.029 A 
ENDBRANCH  13  16
ENDBRANCH   3  13
BRANCH   1  22
ATOM     22  N   UNL     1      -6.053   1.953   0.006  0.00  0.00    -0.318 N 
ATOM     23  H   UNL     1      -6.873   1.469   0.193  0.00  0.00    +0.148 HD
BRANCH  22  27
ATOM     24  C   UNL     1      -2.471  -0.122  -0.481  0.00  0.00    +0.036 A 
ATOM     25  C   UNL     1      -2.505   1.255  -0.656  0.00  0.00    +0.025 A 
ATOM     26  C   UNL     1      -3.692   1.942  -0.495  0.00  0.00    +0.025 A 
ATOM     27  C   UNL     1      -4.851   1.256  -0.158  0.00  0.00    +0.029 A 
ATOM     28  C   UNL     1      -4.817  -0.121   0.018  0.00  0.00    +0.025 A 
ATOM     29  C   UNL     1      -3.631  -0.809  -0.148  0.00  0.00    +0.025 A 
BRANCH  24  33
ATOM     30  C   UNL     1      -1.329  -1.344   1.772  0.00  0.00    +0.109 C 
ATOM     31  C   UNL     1      -0.658  -1.374   0.422  0.00  0.00    +0.217 C 
ATOM     32  O   UNL     1       0.429  -1.897   0.297  0.00  0.00    -0.276 OA
ATOM     33  N   UNL     1      -1.267  -0.820  -0.645  0.00  0.00    -0.271 N 
BRANCH  33  34
ATOM     34  C   UNL     1      -0.669  -0.947  -1.976  0.00  0.00    +0.125 C 
BRANCH  34  35
ATOM     35  C   UNL     1      -1.198  -2.212  -2.654  0.00  0.00    +0.140 C 
BRANCH  35  36
ATOM     36  C   UNL     1      -0.583  -2.343  -4.024  0.00  0.00    +0.308 C 
ATOM     37  O   UNL     1       0.198  -1.509  -4.418  0.00  0.00    -0.251 OA
BRANCH  36  38
ATOM     38  O   UNL     1      -0.903  -3.385  -4.807  0.00  0.00    -0.468 OA
ATOM     39  C   UNL     1      -0.283  -3.446  -6.093  0.00  0.00    +0.280 C 
ENDBRANCH  36  38
ENDBRANCH  35  36
ENDBRANCH  34  35
ENDBRANCH  33  34
ENDBRANCH  24  33
ENDBRANCH  22  27
ENDBRANCH   1  22
TORSDOF 9
