REMARK  Name = ZINC59460645
REMARK  5 active torsions:
REMARK  status: ('A' for Active; 'I' for Inactive)
REMARK    1  A    between atoms: C_8  and  S_10
REMARK    2  A    between atoms: S_10  and  C_11
REMARK    3  A    between atoms: C_11  and  C_12
REMARK    4  A    between atoms: C_12  and  C_18
REMARK    5  A    between atoms: N_13  and  N_14
REMARK                            x       y       z     vdW  Elec       q    Type
REMARK                         _______ _______ _______ _____ _____    ______ ____
ROOT
ATOM      1  C   UNL     1       5.386  -5.704  -0.091  0.00  0.00    +0.079 C 
ATOM      2  N   UNL     1       4.407  -6.460  -0.481  0.00  0.00    -0.175 NA
ENDROOT
BRANCH   2   3
ATOM      3  N   UNL     1       4.674  -7.663  -1.147  0.00  0.00    -0.248 N 
ATOM      4  C   UNL     1       3.642  -8.407  -1.658  0.00  0.00    +0.187 C 
ATOM      5  N   UNL     1       3.896  -9.551  -2.292  0.00  0.00    -0.370 N 
ATOM      6  N   UNL     1       2.386  -7.986  -1.521  0.00  0.00    -0.370 N 
ATOM      7  H   UNL     1       5.588  -7.970  -1.247  0.00  0.00    +0.192 HD
ATOM      8  H   UNL     1       3.166 -10.077  -2.654  0.00  0.00    +0.159 HD
ATOM      9  H   UNL     1       2.201  -7.153  -1.059  0.00  0.00    +0.159 HD
ATOM     10  H   UNL     1       1.656  -8.512  -1.882  0.00  0.00    +0.159 HD
ATOM     11  H   UNL     1       4.811  -9.858  -2.392  0.00  0.00    +0.159 HD
ENDBRANCH   2   3
BRANCH   1  12
ATOM     12  C   UNL     1       6.771  -6.029  -0.482  0.00  0.00    -0.001 A 
ATOM     13  C   UNL     1       7.041  -6.519  -1.762  0.00  0.00    +0.011 A 
ATOM     14  C   UNL     1       8.338  -6.821  -2.122  0.00  0.00    +0.016 A 
ATOM     15  C   UNL     1       9.370  -6.641  -1.217  0.00  0.00    +0.018 A 
ATOM     16  C   UNL     1       9.109  -6.156   0.053  0.00  0.00    +0.016 A 
ATOM     17  C   UNL     1       7.817  -5.845   0.424  0.00  0.00    +0.011 A 
ATOM     18 BR   UNL     1      11.145  -7.058  -1.718  0.00  0.00    -0.050 Br
ENDBRANCH   1  12
BRANCH   1  19
ATOM     19  C   UNL     1       5.109  -4.492   0.760  0.00  0.00    +0.134 C 
BRANCH  19  20
ATOM     20  S   UNL     1       3.326  -4.363   1.068  0.00  0.00    -0.092 S 
BRANCH  20  28
ATOM     21  C   UNL     1       1.224   0.561   4.650  0.00  0.00    +0.002 A 
ATOM     22  C   UNL     1       2.495   1.081   4.844  0.00  0.00    +0.001 A 
ATOM     23  C   UNL     1       3.583   0.441   4.278  0.00  0.00    +0.017 A 
ATOM     24  C   UNL     1       3.388  -0.696   3.534  0.00  0.00    +0.040 A 
ATOM     25  C   UNL     1       2.108  -1.255   3.316  0.00  0.00    +0.079 A 
ATOM     26  C   UNL     1       1.020  -0.574   3.909  0.00  0.00    +0.029 A 
ATOM     27  N   UNL     1       2.080  -2.376   2.562  0.00  0.00    -0.233 NA
ATOM     28  C   UNL     1       3.168  -2.917   2.062  0.00  0.00    +0.136 A 
ATOM     29  S   UNL     1       4.447  -1.815   2.649  0.00  0.00    -0.061 S 
ENDBRANCH  20  28
ENDBRANCH  19  20
ENDBRANCH   1  19
TORSDOF 5
