REMARK  Name = ZINC63295972
REMARK  4 active torsions:
REMARK  status: ('A' for Active; 'I' for Inactive)
REMARK    1  A    between atoms: C_6  and  C_7
REMARK    2  A    between atoms: C_7  and  N_8
REMARK    3  A    between atoms: C_9  and  C_11
REMARK    4  A    between atoms: C_11  and  N_12
REMARK                            x       y       z     vdW  Elec       q    Type
REMARK                         _______ _______ _______ _____ _____    ______ ____
ROOT
ATOM      1  N   UNL     1      -4.571  -2.691  -3.017  0.00  0.00    -0.291 N 
ATOM      2  C   UNL     1      -5.164  -3.026  -4.181  0.00  0.00    +0.303 C 
ATOM      3  O   UNL     1      -4.703  -2.630  -5.234  0.00  0.00    -0.253 OA
ATOM      4  N   UNL     1      -6.267  -3.800  -4.177  0.00  0.00    -0.283 N 
ATOM      5  C   UNL     1      -6.886  -4.173  -2.901  0.00  0.00    +0.114 C 
ATOM      6  C   UNL     1      -6.945  -5.708  -2.790  0.00  0.00    +0.052 C 
ATOM      7  C   UNL     1      -7.450  -6.219  -4.116  0.00  0.00    -0.035 C 
ATOM      8  C   UNL     1      -8.445  -7.045  -4.418  0.00  0.00    +0.001 A 
ATOM      9  C   UNL     1      -9.342  -7.847  -3.571  0.00  0.00    +0.030 A 
ATOM     10  C   UNL     1     -10.282  -8.583  -4.223  0.00  0.00    +0.042 A 
ATOM     11  C   UNL     1     -10.416  -8.600  -5.616  0.00  0.00    +0.022 A 
ATOM     12  C   UNL     1      -9.629  -7.901  -6.471  0.00  0.00    +0.027 A 
ATOM     13  C   UNL     1      -8.598  -7.095  -5.904  0.00  0.00    +0.043 A 
ATOM     14  N   UNL     1      -7.700  -6.352  -6.479  0.00  0.00    -0.376 N 
ATOM     15  C   UNL     1      -6.832  -5.792  -5.442  0.00  0.00    +0.124 C 
ATOM     16  C   UNL     1      -6.842  -4.255  -5.452  0.00  0.00    +0.138 C 
ATOM     17 CL   UNL     1     -11.371  -9.551  -3.278  0.00  0.00    -0.084 Cl
ATOM     18  H   UNL     1      -4.979  -2.944  -2.175  0.00  0.00    +0.151 HD
ATOM     19  H   UNL     1      -7.618  -6.196  -7.433  0.00  0.00    +0.160 HD
ENDROOT
BRANCH   1  20
ATOM     20  C   UNL     1      -3.311  -1.943  -3.026  0.00  0.00    +0.201 C 
BRANCH  20  22
ATOM     21  N   UNL     1      -1.721  -1.024  -1.369  0.00  0.00    -0.310 N 
ATOM     22  C   UNL     1      -2.864  -1.698  -1.608  0.00  0.00    +0.231 C 
ATOM     23  O   UNL     1      -3.531  -2.106  -0.682  0.00  0.00    -0.274 OA
ATOM     24  H   UNL     1      -1.187  -0.697  -2.110  0.00  0.00    +0.149 HD
BRANCH  21  25
ATOM     25  C   UNL     1      -1.286  -0.785   0.009  0.00  0.00    +0.139 C 
BRANCH  25  31
ATOM     26  C   UNL     1      -0.008   1.366   0.011  0.00  0.00    +0.009 A 
ATOM     27  C   UNL     1       1.179   2.076   0.003  0.00  0.00    +0.050 A 
ATOM     28  C   UNL     1       2.389   1.403  -0.015  0.00  0.00    +0.166 A 
ATOM     29  C   UNL     1       2.407   0.010  -0.026  0.00  0.00    +0.167 A 
ATOM     30  C   UNL     1       1.215  -0.695  -0.018  0.00  0.00    +0.054 A 
ATOM     31  C   UNL     1       0.010  -0.016   0.001  0.00  0.00    -0.027 A 
ATOM     32  O   UNL     1       3.706  -0.410  -0.044  0.00  0.00    -0.453 OA
ATOM     33  C   UNL     1       4.474   0.736  -0.456  0.00  0.00    +0.466 C 
ATOM     34  O   UNL     1       3.677   1.855  -0.027  0.00  0.00    -0.453 OA
ENDBRANCH  25  31
ENDBRANCH  21  25
ENDBRANCH  20  22
ENDBRANCH   1  20
TORSDOF 4
