REMARK  Name = ZINC09716357
REMARK  4 active torsions:
REMARK  status: ('A' for Active; 'I' for Inactive)
REMARK    1  A    between atoms: C_4  and  O_7
REMARK    2  A    between atoms: O_7  and  C_8
REMARK    3  A    between atoms: C_11  and  N_14
REMARK    4  A    between atoms: C_21  and  O_23
REMARK                            x       y       z     vdW  Elec       q    Type
REMARK                         _______ _______ _______ _____ _____    ______ ____
ROOT
ATOM      1  N   UNL     1      -2.084   8.430  -1.830  0.00  0.00    -0.328 N 
ATOM      2  C   UNL     1      -1.004   7.888  -2.488  0.00  0.00    +0.180 C 
ATOM      3  N   UNL     1      -0.112   7.087  -1.806  0.00  0.00    -0.296 N 
ATOM      4  C   UNL     1       0.977   6.540  -2.470  0.00  0.00    +0.234 A 
ATOM      5  N   UNL     1       1.823   5.775  -1.801  0.00  0.00    -0.217 NA
ATOM      6  C   UNL     1       2.880   5.231  -2.399  0.00  0.00    +0.053 A 
ATOM      7  C   UNL     1       3.086   5.471  -3.736  0.00  0.00    +0.035 A 
ATOM      8  C   UNL     1       2.176   6.285  -4.417  0.00  0.00    +0.220 A 
ATOM      9  N   UNL     1       1.145   6.797  -3.758  0.00  0.00    -0.177 NA
ATOM     10  C   UNL     1       4.246   4.894  -4.499  0.00  0.00    +0.042 C 
ATOM     11  C   UNL     1       5.333   4.416  -3.536  0.00  0.00    +0.005 C 
ATOM     12  C   UNL     1       4.688   3.516  -2.476  0.00  0.00    +0.006 C 
ATOM     13  C   UNL     1       3.809   4.381  -1.575  0.00  0.00    +0.056 C 
ATOM     14  H   UNL     1      -2.172   8.320  -0.871  0.00  0.00    +0.169 HD
ATOM     15  H   UNL     1      -1.329   8.766  -4.296  0.00  0.00    +0.159 HD
ATOM     16  H   UNL     1      -0.246   6.906  -0.863  0.00  0.00    +0.172 HD
ATOM     17  N   UNL     1      -0.771   8.089  -3.777  0.00  0.00    -0.371 N 
ATOM     18  H   UNL     1      -0.028   7.563  -4.252  0.00  0.00    +0.159 HD
ENDROOT
BRANCH   1  22
ATOM     19  C   UNL     1      -4.975  10.547  -3.961  0.00  0.00    +0.129 A 
ATOM     20  C   UNL     1      -4.607  10.964  -2.690  0.00  0.00    +0.048 A 
ATOM     21  C   UNL     1      -3.650  10.263  -1.984  0.00  0.00    +0.029 A 
ATOM     22  C   UNL     1      -3.055   9.141  -2.546  0.00  0.00    +0.042 A 
ATOM     23  C   UNL     1      -3.420   8.728  -3.821  0.00  0.00    +0.029 A 
ATOM     24  C   UNL     1      -4.382   9.426  -4.523  0.00  0.00    +0.048 A 
BRANCH  19  25
ATOM     25  O   UNL     1      -5.918  11.238  -4.656  0.00  0.00    -0.456 OA
BRANCH  25  29
ATOM     26  C   UNL     1      -9.671   9.563  -5.017  0.00  0.00    +0.000 A 
ATOM     27  C   UNL     1      -9.348  10.696  -5.741  0.00  0.00    +0.004 A 
ATOM     28  C   UNL     1      -8.092  11.259  -5.622  0.00  0.00    +0.046 A 
ATOM     29  C   UNL     1      -7.154  10.686  -4.775  0.00  0.00    +0.128 A 
ATOM     30  C   UNL     1      -7.479   9.546  -4.053  0.00  0.00    +0.046 A 
ATOM     31  C   UNL     1      -8.738   8.990  -4.172  0.00  0.00    +0.004 A 
ENDBRANCH  25  29
ENDBRANCH  19  25
ENDBRANCH   1  22
BRANCH   8  32
ATOM     32  O   UNL     1       2.345   6.549  -5.736  0.00  0.00    -0.492 OA
ATOM     33  H   UNL     1       1.911   5.914  -6.322  0.00  0.00    +0.294 HD
ENDBRANCH   8  32
TORSDOF 4
