REMARK  Name = ZINC08310360
REMARK  5 active torsions:
REMARK  status: ('A' for Active; 'I' for Inactive)
REMARK    1  A    between atoms: C_3  and  N_10
REMARK    2  A    between atoms: C_6  and  C_7
REMARK    3  A    between atoms: C_11  and  C_13
REMARK    4  A    between atoms: C_13  and  N_54
REMARK    5  A    between atoms: C_17  and  C_19
REMARK                            x       y       z     vdW  Elec       q    Type
REMARK                         _______ _______ _______ _____ _____    ______ ____
ROOT
ATOM      1  C   UNL     1      -0.641   1.809  -1.048  0.00  0.00    -0.077 C 
ATOM      2  C   UNL     1       0.024   1.316   0.250  0.00  0.00    -0.020 C 
ATOM      3  C   UNL     1      -0.978   1.662   1.376  0.00  0.00    -0.013 C 
ATOM      4  C   UNL     1      -1.830   2.793   0.743  0.00  0.00    -0.037 C 
ATOM      5  N   UNL     1      -1.940   2.358  -0.658  0.00  0.00    +0.390 N 
ATOM      6  H   UNL     1      -2.662   1.632  -0.741  0.00  0.00    -0.080 HD
ENDROOT
BRANCH   4   7
ATOM      7  C   UNL     1      -3.185   2.869   1.398  0.00  0.00    -0.057 A 
ATOM      8  C   UNL     1      -4.138   1.905   1.125  0.00  0.00    +0.006 A 
ATOM      9  C   UNL     1      -5.384   1.967   1.723  0.00  0.00    +0.049 A 
ATOM     10  C   UNL     1      -5.674   3.001   2.597  0.00  0.00    +0.162 A 
ATOM     11  C   UNL     1      -4.718   3.968   2.872  0.00  0.00    +0.162 A 
ATOM     12  C   UNL     1      -3.470   3.899   2.276  0.00  0.00    +0.051 A 
ATOM     13  O   UNL     1      -5.014   4.983   3.735  0.00  0.00    -0.488 OA
ATOM     14  C   UNL     1      -5.181   4.609   5.104  0.00  0.00    +0.232 C 
ATOM     15  C   UNL     1      -6.600   4.126   5.362  0.00  0.00    +0.082 C 
ATOM     16  C   UNL     1      -6.922   2.848   4.604  0.00  0.00    +0.232 C 
ATOM     17  O   UNL     1      -6.899   3.075   3.193  0.00  0.00    -0.488 OA
ENDBRANCH   4   7
BRANCH   5  18
ATOM     18  C   UNL     1      -2.304   3.511  -1.534  0.00  0.00    +0.020 C 
BRANCH  18  20
ATOM     19  N   UNL     1      -2.709   3.920  -3.940  0.00  0.00    -0.287 N 
ATOM     20  C   UNL     1      -2.519   3.030  -2.946  0.00  0.00    +0.201 C 
ATOM     21  O   UNL     1      -2.521   1.841  -3.188  0.00  0.00    -0.278 OA
ATOM     22  H   UNL     1      -2.638   4.870  -3.761  0.00  0.00    +0.155 HD
BRANCH  19  25
ATOM     23  C   UNL     1      -4.187   3.762  -7.296  0.00  0.00    +0.015 A 
ATOM     24  C   UNL     1      -3.889   4.199  -6.025  0.00  0.00    +0.024 A 
ATOM     25  C   UNL     1      -3.010   3.474  -5.227  0.00  0.00    +0.033 A 
ATOM     26  C   UNL     1      -2.424   2.309  -5.712  0.00  0.00    +0.024 A 
ATOM     27  C   UNL     1      -2.722   1.864  -6.981  0.00  0.00    +0.015 A 
ATOM     28  C   UNL     1      -3.605   2.590  -7.785  0.00  0.00    +0.037 A 
BRANCH  28  29
ATOM     29  C   UNL     1      -3.921   2.119  -9.147  0.00  0.00    +0.242 C 
ATOM     30  O   UNL     1      -4.689   2.751  -9.846  0.00  0.00    -0.270 OA
ATOM     31  N   UNL     1      -3.358   0.988  -9.617  0.00  0.00    -0.325 N 
ATOM     32  H   UNL     1      -2.746   0.483  -9.060  0.00  0.00    +0.145 HD
ATOM     33  H   UNL     1      -3.566   0.678 -10.513  0.00  0.00    +0.145 HD
ENDBRANCH  28  29
ENDBRANCH  19  25
ENDBRANCH  18  20
ENDBRANCH   5  18
TORSDOF 5
