REMARK  Name = ZINC42505958
REMARK  12 active torsions:
REMARK  status: ('A' for Active; 'I' for Inactive)
REMARK    1  A    between atoms: C_1  and  C_2
REMARK    2  A    between atoms: C_7  and  N_8
REMARK    3  A    between atoms: C_9  and  C_11
REMARK    4  A    between atoms: C_11  and  C_13
REMARK    5  A    between atoms: C_11  and  N_14
REMARK    6  A    between atoms: N_14  and  C_15
REMARK    7  A    between atoms: N_14  and  C_16
REMARK    8  A    between atoms: C_16  and  C_17
REMARK    9  A    between atoms: N_19  and  C_20
REMARK   10  A    between atoms: C_20  and  C_21
REMARK   11  A    between atoms: C_20  and  C_22
REMARK   12  A    between atoms: C_20  and  C_23
REMARK                            x       y       z     vdW  Elec       q    Type
REMARK                         _______ _______ _______ _____ _____    ______ ____
ROOT
ATOM      1  C   UNL     1      -0.165   0.057   4.885  0.00  0.00    +0.017 C 
ATOM      2  C   UNL     1      -1.357   0.997   5.067  0.00  0.00    -0.004 C 
ENDROOT
BRANCH   1   4
ATOM      3  N   UNL     1      -0.107  -0.055   2.414  0.00  0.00    -0.287 N 
ATOM      4  C   UNL     1      -0.310  -0.692   3.585  0.00  0.00    +0.203 C 
ATOM      5  O   UNL     1      -0.608  -1.867   3.592  0.00  0.00    -0.277 OA
ATOM      6  H   UNL     1       0.205   0.863   2.409  0.00  0.00    +0.155 HD
BRANCH   3  13
ATOM      7  C   UNL     1      -1.108   1.461   0.225  0.00  0.00    +0.046 C 
ATOM      8  C   UNL     1      -0.837  -0.017   0.112  0.00  0.00    -0.028 A 
ATOM      9  C   UNL     1      -1.068  -0.673  -1.081  0.00  0.00    +0.020 A 
ATOM     10  C   UNL     1      -0.819  -2.030  -1.185  0.00  0.00    +0.018 A 
ATOM     11  C   UNL     1      -0.338  -2.734  -0.094  0.00  0.00    +0.017 A 
ATOM     12  C   UNL     1      -0.105  -2.083   1.101  0.00  0.00    +0.024 A 
ATOM     13  C   UNL     1      -0.348  -0.719   1.206  0.00  0.00    +0.036 A 
ATOM     14 BR   UNL     1      -1.137  -2.926  -2.820  0.00  0.00    -0.050 Br
ENDBRANCH   3  13
ENDBRANCH   1   4
BRANCH   1  15
ATOM     15  N   UNL     1      -0.120  -0.900   5.999  0.00  0.00    +0.391 N 
ATOM     16  C   UNL     1       1.096  -1.718   5.894  0.00  0.00    -0.094 C 
ATOM     17  H   UNL     1      -0.932  -1.498   5.961  0.00  0.00    -0.080 HD
BRANCH  15  18
ATOM     18  C   UNL     1      -0.110  -0.168   7.272  0.00  0.00    +0.019 C 
BRANCH  18  19
ATOM     19  C   UNL     1      -0.188  -1.148   8.415  0.00  0.00    +0.197 C 
ATOM     20  O   UNL     1      -0.247  -2.338   8.190  0.00  0.00    -0.278 OA
ATOM     21  N   UNL     1      -0.193  -0.701   9.687  0.00  0.00    -0.312 N 
ATOM     22  H   UNL     1      -0.146   0.251   9.866  0.00  0.00    +0.149 HD
BRANCH  21  23
ATOM     23  C   UNL     1      -0.269  -1.653  10.797  0.00  0.00    +0.026 C 
ATOM     24  C   UNL     1       0.933  -2.599  10.742  0.00  0.00    +0.031 C 
ATOM     25  C   UNL     1      -0.258  -0.891  12.124  0.00  0.00    +0.031 C 
ATOM     26  C   UNL     1      -1.562  -2.465  10.686  0.00  0.00    +0.031 C 
ENDBRANCH  21  23
ENDBRANCH  18  19
ENDBRANCH  15  18
ENDBRANCH   1  15
TORSDOF 6
