REMARK  Name = ZINC39631575
REMARK  15 active torsions:
REMARK  status: ('A' for Active; 'I' for Inactive)
REMARK    1  A    between atoms: C_1  and  C_2
REMARK    2  A    between atoms: C_2  and  C_3
REMARK    3  A    between atoms: C_3  and  C_4
REMARK    4  A    between atoms: C_3  and  C_6
REMARK    5  A    between atoms: C_4  and  C_5
REMARK    6  A    between atoms: C_10  and  C_19
REMARK    7  A    between atoms: N_21  and  C_22
REMARK    8  A    between atoms: C_22  and  C_24
REMARK    9  A    between atoms: C_22  and  C_25
REMARK   10  A    between atoms: C_25  and  C_26
REMARK   11  A    between atoms: C_26  and  C_27
REMARK   12  A    between atoms: C_27  and  C_28
REMARK   13  A    between atoms: C_28  and  C_29
REMARK   14  A    between atoms: C_28  and  C_30
REMARK   15  A    between atoms: C_28  and  O_31
REMARK                            x       y       z     vdW  Elec       q    Type
REMARK                         _______ _______ _______ _____ _____    ______ ____
ROOT
ATOM      1  C   UNL     1       0.552  -2.002  -1.674  0.00  0.00    +0.219 C 
ATOM      2  O   UNL     1       1.476  -2.760  -1.880  0.00  0.00    -0.275 OA
ATOM      3  N   UNL     1      -0.702  -2.484  -1.560  0.00  0.00    -0.300 N 
ATOM      4  C   UNL     1      -1.949  -1.722  -1.316  0.00  0.00    +0.121 C 
ATOM      5  C   UNL     1      -3.007  -2.408  -2.210  0.00  0.00    +0.100 C 
ATOM      6  C   UNL     1      -2.474  -3.835  -2.424  0.00  0.00    -0.004 C 
ATOM      7  C   UNL     1      -1.145  -3.896  -1.657  0.00  0.00    +0.115 C 
ATOM      8  C   UNL     1      -2.231  -4.091  -3.908  0.00  0.00    -0.010 C 
ATOM      9  C   UNL     1      -1.756  -5.534  -4.101  0.00  0.00    -0.082 C 
ATOM     10  N   UNL     1      -2.772  -6.459  -3.584  0.00  0.00    +0.379 N 
ATOM     11  C   UNL     1      -2.932  -6.269  -2.138  0.00  0.00    -0.082 C 
ATOM     12  C   UNL     1      -3.457  -4.857  -1.861  0.00  0.00    -0.010 C 
ATOM     13  H   UNL     1      -3.652  -6.282  -4.045  0.00  0.00    -0.086 HD
ATOM     14  H   UNL     1      -2.484  -7.409  -3.768  0.00  0.00    -0.086 HD
ENDROOT
BRANCH   5  15
ATOM     15  C   UNL     1      -4.341  -2.444  -1.511  0.00  0.00    +0.218 C 
ATOM     16  O   UNL     1      -4.392  -2.424  -0.299  0.00  0.00    -0.275 OA
ATOM     17  N   UNL     1      -5.479  -2.498  -2.232  0.00  0.00    -0.312 N 
ATOM     18  H   UNL     1      -5.438  -2.514  -3.201  0.00  0.00    +0.149 HD
BRANCH  17  19
ATOM     19  C   UNL     1      -6.776  -2.532  -1.552  0.00  0.00    +0.070 C 
ATOM     20  C   UNL     1      -7.221  -1.105  -1.230  0.00  0.00    +0.028 C 
BRANCH  19  21
ATOM     21  C   UNL     1      -7.811  -3.196  -2.462  0.00  0.00    +0.022 C 
BRANCH  21  22
ATOM     22  C   UNL     1      -7.431  -4.662  -2.683  0.00  0.00    +0.005 C 
BRANCH  22  23
ATOM     23  C   UNL     1      -8.466  -5.326  -3.593  0.00  0.00    +0.034 C 
BRANCH  23  24
ATOM     24  C   UNL     1      -8.085  -6.791  -3.814  0.00  0.00    +0.061 C 
ATOM     25  C   UNL     1      -9.048  -7.422  -4.822  0.00  0.00    +0.041 C 
ATOM     26  C   UNL     1      -6.656  -6.872  -4.355  0.00  0.00    +0.041 C 
BRANCH  24  27
ATOM     27  O   UNL     1      -8.165  -7.496  -2.574  0.00  0.00    -0.389 OA
ATOM     28  H   UNL     1      -7.937  -8.434  -2.638  0.00  0.00    +0.210 HD
ENDBRANCH  24  27
ENDBRANCH  23  24
ENDBRANCH  22  23
ENDBRANCH  21  22
ENDBRANCH  19  21
ENDBRANCH  17  19
ENDBRANCH   5  15
BRANCH   1  29
ATOM     29  C   UNL     1       0.805  -0.523  -1.544  0.00  0.00    +0.075 C 
BRANCH  29  31
ATOM     30  C   UNL     1       0.478   1.476  -0.080  0.00  0.00    +0.004 C 
ATOM     31  C   UNL     1       0.350  -0.047  -0.163  0.00  0.00    +0.009 C 
ENDBRANCH  29  31
BRANCH  29  32
ATOM     32  C   UNL     1       2.300  -0.244  -1.712  0.00  0.00    +0.009 C 
ATOM     33  C   UNL     1       2.720  -0.565  -3.148  0.00  0.00    +0.004 C 
ENDBRANCH  29  32
ENDBRANCH   1  29
TORSDOF 10
