REMARK  Name = ZINC07912930
REMARK  9 active torsions:
REMARK  status: ('A' for Active; 'I' for Inactive)
REMARK    1  A    between atoms: C_1  and  N_55
REMARK    2  A    between atoms: C_2  and  C_3
REMARK    3  A    between atoms: C_2  and  N_55
REMARK    4  A    between atoms: N_5  and  C_6
REMARK    5  A    between atoms: C_13  and  C_14
REMARK    6  A    between atoms: C_13  and  N_55
REMARK    7  A    between atoms: N_19  and  C_20
REMARK    8  A    between atoms: C_20  and  C_21
REMARK    9  A    between atoms: C_21  and  C_22
REMARK                            x       y       z     vdW  Elec       q    Type
REMARK                         _______ _______ _______ _____ _____    ______ ____
ROOT
ATOM      1  C   UNL     1       3.674   1.744  -0.291  0.00  0.00    +0.019 C 
ENDROOT
BRANCH   1   2
ATOM      2  C   UNL     1       4.765   0.736  -0.545  0.00  0.00    +0.204 C 
ATOM      3  O   UNL     1       4.515  -0.450  -0.514  0.00  0.00    -0.277 OA
ATOM      4  N   UNL     1       6.020   1.153  -0.806  0.00  0.00    -0.242 N 
ATOM      5  C   UNL     1       6.996   0.252  -1.034  0.00  0.00    +0.306 C 
ATOM      6  O   UNL     1       6.745  -0.937  -1.003  0.00  0.00    -0.252 OA
ATOM      7  N   UNL     1       8.251   0.669  -1.295  0.00  0.00    -0.299 N 
ATOM      8  H   UNL     1       6.221   2.102  -0.831  0.00  0.00    +0.159 HD
ATOM      9  H   UNL     1       8.451   1.617  -1.320  0.00  0.00    +0.150 HD
BRANCH   7  10
ATOM     10  C   UNL     1       9.312  -0.311  -1.543  0.00  0.00    +0.110 C 
BRANCH  10  11
ATOM     11  C   UNL     1      10.628   0.420  -1.811  0.00  0.00    +0.049 C 
BRANCH  11  12
ATOM     12  C   UNL     1      11.720  -0.587  -2.066  0.00  0.00    -0.072 C 
ATOM     13  C   UNL     1      11.985  -0.897  -3.294  0.00  0.00    -0.028 C 
ATOM     14  C   UNL     1      13.035  -1.889  -3.703  0.00  0.00    +0.027 C 
ATOM     15  C   UNL     1      14.000  -2.143  -2.543  0.00  0.00    +0.004 C 
ATOM     16  C   UNL     1      13.177  -2.442  -1.284  0.00  0.00    +0.005 C 
ATOM     17  C   UNL     1      12.435  -1.165  -0.879  0.00  0.00    +0.030 C 
ENDBRANCH  11  12
ENDBRANCH  10  11
ENDBRANCH   7  10
ENDBRANCH   1   2
BRANCH   1  19
ATOM     18  C   UNL     1       2.478   0.277   1.220  0.00  0.00    -0.095 C 
ATOM     19  N   UNL     1       2.405   1.023  -0.054  0.00  0.00    +0.389 N 
ATOM     20  H   UNL     1       2.251   0.358  -0.822  0.00  0.00    -0.081 HD
BRANCH  19  21
ATOM     21  C   UNL     1       1.280   1.980  -0.015  0.00  0.00    +0.019 C 
BRANCH  21  22
ATOM     22  C   UNL     1      -0.014   1.209   0.005  0.00  0.00    +0.201 C 
ATOM     23  O   UNL     1       0.003  -0.004   0.005  0.00  0.00    -0.278 OA
ATOM     24  N   UNL     1      -1.191   1.867   0.018  0.00  0.00    -0.286 N 
ATOM     25  H   UNL     1      -1.205   2.833   0.099  0.00  0.00    +0.155 HD
BRANCH  24  26
ATOM     26  C   UNL     1      -2.392   1.155  -0.086  0.00  0.00    +0.052 A 
ATOM     27  C   UNL     1      -2.411  -0.091  -0.699  0.00  0.00    +0.025 A 
ATOM     28  C   UNL     1      -3.597  -0.793  -0.795  0.00  0.00    +0.002 A 
ATOM     29  C   UNL     1      -4.766  -0.252  -0.292  0.00  0.00    +0.002 A 
ATOM     30  C   UNL     1      -4.752   0.990   0.314  0.00  0.00    +0.022 A 
ATOM     31  C   UNL     1      -3.568   1.696   0.419  0.00  0.00    +0.062 A 
ATOM     32 CL   UNL     1      -3.550   3.257   1.179  0.00  0.00    -0.082 Cl
ENDBRANCH  24  26
ENDBRANCH  21  22
ENDBRANCH  19  21
ENDBRANCH   1  19
TORSDOF 8
