REMARK  Name = ZINC04139854
REMARK  12 active torsions:
REMARK  status: ('A' for Active; 'I' for Inactive)
REMARK    1  A    between atoms: C_1  and  C_2
REMARK    2  A    between atoms: C_8  and  C_26
REMARK    3  A    between atoms: C_9  and  C_20
REMARK    4  A    between atoms: N_10  and  C_11
REMARK    5  A    between atoms: C_11  and  C_12
REMARK    6  A    between atoms: C_12  and  C_14
REMARK    7  A    between atoms: C_12  and  O_19
REMARK    8  A    between atoms: C_14  and  N_62
REMARK    9  A    between atoms: C_15  and  C_16
REMARK   10  A    between atoms: C_15  and  C_17
REMARK   11  A    between atoms: C_15  and  C_18
REMARK   12  A    between atoms: C_15  and  N_62
REMARK                            x       y       z     vdW  Elec       q    Type
REMARK                         _______ _______ _______ _____ _____    ______ ____
ROOT
ATOM      1  C   UNL     1      -2.197   0.046   6.369  0.00  0.00    +0.044 C 
ATOM      2  C   UNL     1      -1.184   0.417   5.318  0.00  0.00    -0.050 A 
ATOM      3  C   UNL     1      -0.720  -0.550   4.436  0.00  0.00    +0.005 A 
ATOM      4  C   UNL     1       0.206  -0.231   3.467  0.00  0.00    +0.027 A 
ATOM      5  C   UNL     1       0.684   1.072   3.368  0.00  0.00    +0.050 A 
ATOM      6  C   UNL     1       0.210   2.047   4.264  0.00  0.00    +0.008 A 
ATOM      7  C   UNL     1      -0.729   1.703   5.238  0.00  0.00    +0.014 A 
ATOM      8  C   UNL     1       0.891   3.300   3.909  0.00  0.00    +0.015 A 
ATOM      9  C   UNL     1       1.720   3.008   2.846  0.00  0.00    +0.058 A 
ATOM     10  N   UNL     1       1.589   1.679   2.524  0.00  0.00    -0.337 N 
ENDROOT
BRANCH   9  11
ATOM     11  C   UNL     1       2.606   3.971   2.162  0.00  0.00    -0.001 A 
ATOM     12  C   UNL     1       2.505   4.158   0.782  0.00  0.00    +0.010 A 
ATOM     13  C   UNL     1       3.332   5.064   0.150  0.00  0.00    +0.001 A 
ATOM     14  C   UNL     1       4.267   5.777   0.878  0.00  0.00    +0.000 A 
ATOM     15  C   UNL     1       4.376   5.592   2.245  0.00  0.00    +0.001 A 
ATOM     16  C   UNL     1       3.552   4.694   2.891  0.00  0.00    +0.010 A 
ENDBRANCH   9  11
BRANCH   8  17
ATOM     17  C   UNL     1       0.724   4.616   4.565  0.00  0.00    -0.015 A 
ATOM     18  C   UNL     1       0.165   5.684   3.862  0.00  0.00    +0.008 A 
ATOM     19  C   UNL     1       0.007   6.907   4.482  0.00  0.00    +0.001 A 
ATOM     20  C   UNL     1       0.411   7.078   5.794  0.00  0.00    +0.000 A 
ATOM     21  C   UNL     1       0.971   6.024   6.495  0.00  0.00    +0.001 A 
ATOM     22  C   UNL     1       1.130   4.795   5.888  0.00  0.00    +0.008 A 
ENDBRANCH   8  17
BRANCH  10  23
ATOM     23  C   UNL     1       2.312   1.002   1.444  0.00  0.00    +0.151 C 
BRANCH  23  24
ATOM     24  C   UNL     1       1.435   0.960   0.192  0.00  0.00    +0.117 C 
BRANCH  24  25
ATOM     25  O   UNL     1       0.293   0.137   0.438  0.00  0.00    -0.392 OA
ATOM     26  H   UNL     1       0.509  -0.777   0.666  0.00  0.00    +0.210 HD
ENDBRANCH  24  25
BRANCH  24  27
ATOM     27  C   UNL     1       2.238   0.381  -0.975  0.00  0.00    -0.048 C 
BRANCH  27  28
ATOM     28  N   UNL     1       1.427   0.455  -2.204  0.00  0.00    +0.384 N 
ATOM     29  H   UNL     1       1.191   1.436  -2.396  0.00  0.00    -0.085 HD
ATOM     30  H   UNL     1       0.564  -0.086  -2.074  0.00  0.00    -0.085 HD
BRANCH  28  31
ATOM     31  C   UNL     1       2.179  -0.097  -3.347  0.00  0.00    -0.077 C 
ATOM     32  C   UNL     1       2.530  -1.561  -3.073  0.00  0.00    -0.011 C 
ATOM     33  C   UNL     1       1.313  -0.007  -4.606  0.00  0.00    -0.011 C 
ATOM     34  C   UNL     1       3.464   0.706  -3.554  0.00  0.00    -0.011 C 
ENDBRANCH  28  31
ENDBRANCH  27  28
ENDBRANCH  24  27
ENDBRANCH  23  24
ENDBRANCH  10  23
TORSDOF 8
