REMARK  Name = ZINC33708743
REMARK  10 active torsions:
REMARK  status: ('A' for Active; 'I' for Inactive)
REMARK    1  A    between atoms: C_1  and  C_2
REMARK    2  A    between atoms: C_2  and  C_3
REMARK    3  A    between atoms: C_3  and  C_4
REMARK    4  A    between atoms: C_4  and  N_5
REMARK    5  A    between atoms: C_10  and  C_29
REMARK    6  A    between atoms: C_13  and  C_18
REMARK    7  A    between atoms: C_13  and  C_26
REMARK    8  A    between atoms: C_18  and  C_19
REMARK    9  A    between atoms: C_22  and  O_25
REMARK   10  A    between atoms: C_34  and  O_35
REMARK                            x       y       z     vdW  Elec       q    Type
REMARK                         _______ _______ _______ _____ _____    ______ ____
ROOT
ATOM      1  N   UNL     1      -0.209   5.679   2.619  0.00  0.00    -0.242 N 
ATOM      2  C   UNL     1      -0.373   4.496   1.954  0.00  0.00    +0.224 C 
ATOM      3  O   UNL     1      -1.404   3.872   1.818  0.00  0.00    -0.275 OA
ATOM      4  C   UNL     1       0.978   4.128   1.428  0.00  0.00    +0.077 C 
ATOM      5  C   UNL     1       1.159   3.598   0.010  0.00  0.00    -0.023 C 
ATOM      6  N   UNL     1       2.496   4.146  -0.390  0.00  0.00    +0.396 N 
ATOM      7  C   UNL     1       2.727   5.396   0.411  0.00  0.00    +0.052 C 
ATOM      8  C   UNL     1       1.473   5.599   1.150  0.00  0.00    +0.086 C 
ATOM      9  C   UNL     1       0.977   6.299   2.313  0.00  0.00    +0.225 C 
ATOM     10  O   UNL     1       1.494   7.231   2.890  0.00  0.00    -0.275 OA
ATOM     11  H   UNL     1       3.277   3.401  -0.176  0.00  0.00    -0.083 HD
ATOM     12  H   UNL     1       2.492   4.374  -1.467  0.00  0.00    -0.083 HD
ENDROOT
BRANCH   5  13
ATOM     13  C   UNL     1       1.176   2.091   0.002  0.00  0.00    -0.018 A 
ATOM     14  C   UNL     1       1.369   1.396   1.180  0.00  0.00    +0.020 A 
ATOM     15  C   UNL     1       1.385   0.013   1.174  0.00  0.00    +0.018 A 
ATOM     16  C   UNL     1       1.209  -0.677  -0.012  0.00  0.00    +0.019 A 
ATOM     17  C   UNL     1       1.017   0.014  -1.193  0.00  0.00    +0.047 A 
ATOM     18  C   UNL     1       1.000   1.401  -1.188  0.00  0.00    +0.119 A 
ATOM     19 BR   UNL     1       1.650  -0.936   2.788  0.00  0.00    -0.050 Br
BRANCH  18  20
ATOM     20  O   UNL     1       0.816   2.083  -2.349  0.00  0.00    -0.507 OA
ATOM     21  H   UNL     1       0.676   1.535  -3.293  0.00  0.00    +0.292 HD
ENDBRANCH  18  20
ENDBRANCH   5  13
BRANCH   7  22
ATOM     22  C   UNL     1       2.994   6.564  -0.503  0.00  0.00    +0.347 C 
ATOM     23  O   UNL     1       2.523   7.648  -0.252  0.00  0.00    -0.248 OA
ATOM     24  O   UNL     1       3.755   6.400  -1.597  0.00  0.00    -0.248 OA
ENDBRANCH   7  22
BRANCH   1  25
ATOM     25  C   UNL     1      -1.192   6.226   3.558  0.00  0.00    +0.116 C 
BRANCH  25  26
ATOM     26  C   UNL     1      -0.888   5.717   4.968  0.00  0.00    +0.019 C 
BRANCH  26  28
ATOM     27  C   UNL     1      -1.610   5.779   7.359  0.00  0.00    +0.004 C 
ATOM     28  C   UNL     1      -1.914   6.288   5.949  0.00  0.00    -0.002 C 
ENDBRANCH  26  28
ENDBRANCH  25  26
ENDBRANCH   1  25
BRANCH   7  29
ATOM     29  C   UNL     1       3.893   5.203   1.382  0.00  0.00    +0.035 C 
BRANCH  29  30
ATOM     30  C   UNL     1       5.167   4.997   0.604  0.00  0.00    -0.048 A 
ATOM     31  C   UNL     1       5.560   3.720   0.249  0.00  0.00    +0.007 A 
ATOM     32  C   UNL     1       6.724   3.528  -0.470  0.00  0.00    +0.045 A 
ATOM     33  C   UNL     1       7.505   4.618  -0.826  0.00  0.00    +0.117 A 
ATOM     34  C   UNL     1       7.111   5.898  -0.464  0.00  0.00    +0.045 A 
ATOM     35  C   UNL     1       5.944   6.085   0.250  0.00  0.00    +0.007 A 
BRANCH  33  36
ATOM     36  O   UNL     1       8.653   4.432  -1.529  0.00  0.00    -0.507 OA
ATOM     37  H   UNL     1       9.272   5.297  -1.810  0.00  0.00    +0.292 HD
ENDBRANCH  33  36
ENDBRANCH  29  30
ENDBRANCH   7  29
TORSDOF 9
