REMARK  Name = ZINC04177763
REMARK  10 active torsions:
REMARK  status: ('A' for Active; 'I' for Inactive)
REMARK    1  A    between atoms: C_1  and  C_2
REMARK    2  A    between atoms: C_5  and  C_36
REMARK    3  A    between atoms: N_8  and  S_10
REMARK    4  A    between atoms: S_10  and  C_13
REMARK    5  A    between atoms: C_16  and  C_19
REMARK    6  A    between atoms: N_21  and  C_22
REMARK    7  A    between atoms: C_23  and  C_33
REMARK    8  A    between atoms: C_30  and  C_31
REMARK    9  A    between atoms: C_30  and  C_32
REMARK   10  A    between atoms: C_30  and  N_69
REMARK                            x       y       z     vdW  Elec       q    Type
REMARK                         _______ _______ _______ _____ _____    ______ ____
ROOT
ATOM      1  C   UNL     1      -7.645   1.503   0.083  0.00  0.00    +0.249 C 
ATOM      2  O   UNL     1      -8.150   1.175   1.139  0.00  0.00    -0.270 OA
ATOM      3  N   UNL     1      -8.228   1.153  -1.081  0.00  0.00    -0.275 N 
ATOM      4  H   UNL     1      -7.825   1.415  -1.923  0.00  0.00    +0.156 HD
ENDROOT
BRANCH   3   5
ATOM      5  C   UNL     1      -9.403   0.418  -1.074  0.00  0.00    +0.085 A 
ATOM      6  C   UNL     1     -10.148  -0.028  -2.158  0.00  0.00    +0.068 A 
ATOM      7  C   UNL     1     -11.349  -0.790  -1.874  0.00  0.00    -0.027 A 
ATOM      8  C   UNL     1     -11.621  -0.974  -0.562  0.00  0.00    -0.021 A 
ATOM      9  S   UNL     1     -10.303  -0.160   0.290  0.00  0.00    -0.079 S 
ATOM     10  C   UNL     1     -12.792  -1.711   0.007  0.00  0.00    -0.035 C 
ATOM     11  C   UNL     1     -13.154  -2.434  -2.277  0.00  0.00    -0.073 C 
ATOM     12  C   UNL     1     -12.281  -1.363  -2.936  0.00  0.00    +0.018 C 
ATOM     13  N   UNL     1     -13.797  -1.870  -1.072  0.00  0.00    +0.384 N 
ATOM     14  H   UNL     1     -14.188  -0.949  -1.303  0.00  0.00    -0.081 HD
BRANCH   6  15
ATOM     15  C   UNL     1      -9.734   0.257  -3.535  0.00  0.00    +0.244 C 
ATOM     16  O   UNL     1      -9.003  -0.519  -4.123  0.00  0.00    -0.270 OA
ATOM     17  N   UNL     1     -10.162   1.377  -4.149  0.00  0.00    -0.325 N 
ATOM     18  H   UNL     1     -10.744   1.995  -3.680  0.00  0.00    +0.145 HD
ATOM     19  H   UNL     1      -9.888   1.565  -5.061  0.00  0.00    +0.145 HD
ENDBRANCH   6  15
BRANCH  13  20
ATOM     20  C   UNL     1     -14.890  -2.757  -0.619  0.00  0.00    -0.074 C 
ATOM     21  C   UNL     1     -14.341  -4.136  -0.248  0.00  0.00    -0.014 C 
ATOM     22  C   UNL     1     -15.565  -2.131   0.603  0.00  0.00    -0.014 C 
ENDBRANCH  13  20
ENDBRANCH   3   5
BRANCH   1  26
ATOM     23  C   UNL     1      -4.043   3.754   0.061  0.00  0.00    +0.106 A 
ATOM     24  C   UNL     1      -4.642   3.400  -1.135  0.00  0.00    +0.029 A 
ATOM     25  C   UNL     1      -5.809   2.665  -1.135  0.00  0.00    +0.015 A 
ATOM     26  C   UNL     1      -6.392   2.287   0.075  0.00  0.00    +0.037 A 
ATOM     27  C   UNL     1      -5.786   2.651   1.279  0.00  0.00    +0.015 A 
ATOM     28  C   UNL     1      -4.616   3.382   1.264  0.00  0.00    +0.029 A 
BRANCH  23  29
ATOM     29  S   UNL     1      -2.550   4.688   0.052  0.00  0.00    +0.061 S 
ATOM     30  O   UNL     1      -2.485   5.364   1.300  0.00  0.00    -0.153 OA
ATOM     31  O   UNL     1      -2.509   5.377  -1.190  0.00  0.00    -0.153 OA
BRANCH  29  37
ATOM     32  C   UNL     1      -2.198   1.093  -1.204  0.00  0.00    +0.009 C 
ATOM     33  C   UNL     1      -0.752   1.593  -1.232  0.00  0.00    +0.002 C 
ATOM     34  C   UNL     1      -0.013   1.086   0.008  0.00  0.00    +0.009 C 
ATOM     35  C   UNL     1      -0.729   1.579   1.268  0.00  0.00    +0.002 C 
ATOM     36  C   UNL     1      -0.717   3.111   1.290  0.00  0.00    +0.112 C 
ATOM     37  N   UNL     1      -1.296   3.606   0.034  0.00  0.00    -0.176 NA
ATOM     38  C   UNL     1      -0.741   3.124  -1.238  0.00  0.00    +0.112 C 
ATOM     39  C   UNL     1      -0.008   1.045   2.507  0.00  0.00    +0.009 C 
ENDBRANCH  29  37
ENDBRANCH  23  29
ENDBRANCH   1  26
TORSDOF 6
