REMARK  Name = ZINC10191128
REMARK  12 active torsions:
REMARK  status: ('A' for Active; 'I' for Inactive)
REMARK    1  A    between atoms: C_1  and  C_2
REMARK    2  A    between atoms: C_6  and  N_8
REMARK    3  A    between atoms: N_8  and  S_9
REMARK    4  A    between atoms: S_9  and  C_12
REMARK    5  A    between atoms: C_15  and  C_32
REMARK    6  A    between atoms: C_16  and  C_18
REMARK    7  A    between atoms: C_18  and  O_20
REMARK    8  A    between atoms: O_20  and  C_21
REMARK    9  A    between atoms: C_21  and  C_23
REMARK   10  A    between atoms: C_21  and  C_26
REMARK   11  A    between atoms: C_23  and  C_24
REMARK   12  A    between atoms: C_23  and  C_25
REMARK                            x       y       z     vdW  Elec       q    Type
REMARK                         _______ _______ _______ _____ _____    ______ ____
ROOT
ATOM      1  C   UNL     1       0.684  -0.566   1.530  0.00  0.00    +0.109 A 
ATOM      2  C   UNL     1       2.062  -0.490   1.632  0.00  0.00    +0.029 A 
ATOM      3  C   UNL     1       2.696  -0.851   2.808  0.00  0.00    +0.006 A 
ATOM      4  C   UNL     1       1.958  -1.299   3.884  0.00  0.00    -0.036 A 
ATOM      5  C   UNL     1       0.568  -1.383   3.786  0.00  0.00    +0.064 A 
ATOM      6  C   UNL     1      -0.066  -1.012   2.598  0.00  0.00    +0.044 A 
ATOM      7  C   UNL     1       2.651  -1.697   5.161  0.00  0.00    +0.044 C 
ENDROOT
BRANCH   1   8
ATOM      8  S   UNL     1      -0.113  -0.098   0.030  0.00  0.00    +0.072 S 
ATOM      9  O   UNL     1      -1.358  -0.782   0.002  0.00  0.00    -0.150 OA
ATOM     10  O   UNL     1       0.854  -0.233  -1.003  0.00  0.00    -0.150 OA
BRANCH   8  11
ATOM     11  N   UNL     1      -0.462   1.517   0.144  0.00  0.00    -0.216 N 
ATOM     12  H   UNL     1      -1.385   1.813   0.156  0.00  0.00    +0.174 HD
BRANCH  11  18
ATOM     13  C   UNL     1       1.474   5.532   2.214  0.00  0.00    +0.044 C 
ATOM     14  C   UNL     1       1.538   4.409   1.211  0.00  0.00    -0.049 A 
ATOM     15  C   UNL     1       2.623   4.305   0.359  0.00  0.00    +0.003 A 
ATOM     16  C   UNL     1       2.686   3.276  -0.563  0.00  0.00    +0.002 A 
ATOM     17  C   UNL     1       1.664   2.350  -0.637  0.00  0.00    +0.024 A 
ATOM     18  C   UNL     1       0.573   2.452   0.216  0.00  0.00    +0.048 A 
ATOM     19  C   UNL     1       0.511   3.489   1.139  0.00  0.00    +0.027 A 
ENDBRANCH  11  18
ENDBRANCH   8  11
ENDBRANCH   1   8
BRANCH   5  20
ATOM     20  C   UNL     1      -0.229  -1.861   4.934  0.00  0.00    +0.340 C 
ATOM     21  O   UNL     1       0.329  -2.290   5.924  0.00  0.00    -0.245 OA
BRANCH  20  22
ATOM     22  O   UNL     1      -1.575  -1.823   4.882  0.00  0.00    -0.448 OA
BRANCH  22  23
ATOM     23  C   UNL     1      -2.293  -2.309   6.046  0.00  0.00    +0.265 C 
BRANCH  23  24
ATOM     24  C   UNL     1      -3.619  -2.882   5.616  0.00  0.00    +0.261 C 
ATOM     25  O   UNL     1      -3.928  -2.880   4.443  0.00  0.00    -0.271 OA
ATOM     26  N   UNL     1      -4.462  -3.396   6.534  0.00  0.00    -0.237 N 
ATOM     27  C   UNL     1      -5.647  -3.908   6.149  0.00  0.00    +0.303 C 
ATOM     28  O   UNL     1      -5.957  -3.906   4.973  0.00  0.00    -0.253 OA
ATOM     29  N   UNL     1      -6.490  -4.421   7.066  0.00  0.00    -0.313 N 
ATOM     30  H   UNL     1      -4.214  -3.397   7.472  0.00  0.00    +0.159 HD
ATOM     31  H   UNL     1      -6.242  -4.423   8.005  0.00  0.00    +0.146 HD
ATOM     32  H   UNL     1      -7.343  -4.790   6.789  0.00  0.00    +0.146 HD
ENDBRANCH  23  24
BRANCH  23  33
ATOM     33  C   UNL     1      -2.529  -1.153   7.020  0.00  0.00    +0.033 C 
ATOM     34  C   UNL     1      -1.183  -0.572   7.457  0.00  0.00    +0.011 C 
ATOM     35  C   UNL     1      -3.354  -0.065   6.329  0.00  0.00    +0.011 C 
ENDBRANCH  23  33
ENDBRANCH  22  23
ENDBRANCH  20  22
ENDBRANCH   5  20
TORSDOF 8
