REMARK  Name = ZINC64147772
REMARK  8 active torsions:
REMARK  status: ('A' for Active; 'I' for Inactive)
REMARK    1  A    between atoms: C_1  and  N_2
REMARK    2  A    between atoms: N_2  and  C_3
REMARK    3  A    between atoms: C_3  and  C_4
REMARK    4  A    between atoms: C_9  and  N_10
REMARK    5  A    between atoms: C_16  and  C_18
REMARK    6  A    between atoms: C_18  and  C_20
REMARK    7  A    between atoms: C_18  and  N_30
REMARK    8  A    between atoms: C_20  and  C_21
REMARK                            x       y       z     vdW  Elec       q    Type
REMARK                         _______ _______ _______ _____ _____    ______ ____
ROOT
ATOM      1  C   UNL     1       0.194   0.040  -2.460  0.00  0.00    +0.165 C 
ENDROOT
BRANCH   1   2
ATOM      2  N   UNL     1      -0.288  -0.820  -3.544  0.00  0.00    -0.288 N 
ATOM      3  C   UNL     1       0.318  -1.998  -3.790  0.00  0.00    +0.298 C 
ATOM      4  O   UNL     1       1.266  -2.347  -3.113  0.00  0.00    -0.253 OA
ATOM      5  N   UNL     1      -0.126  -2.788  -4.787  0.00  0.00    -0.313 N 
ATOM      6  H   UNL     1      -1.044  -0.541  -4.084  0.00  0.00    +0.151 HD
ATOM      7  H   UNL     1      -0.881  -2.510  -5.328  0.00  0.00    +0.146 HD
ATOM      8  H   UNL     1       0.311  -3.636  -4.965  0.00  0.00    +0.146 HD
ENDBRANCH   1   2
BRANCH   1  11
ATOM      9  C   UNL     1       0.067   1.448  -0.001  0.00  0.00    +0.132 C 
ATOM     10  N   UNL     1       0.092  -0.017   0.011  0.00  0.00    -0.299 N 
ATOM     11  C   UNL     1       0.097  -0.700  -1.151  0.00  0.00    +0.236 C 
ATOM     12  O   UNL     1       0.024  -1.911  -1.143  0.00  0.00    -0.274 OA
BRANCH  10  13
ATOM     13  C   UNL     1       0.111  -0.739   1.285  0.00  0.00    +0.144 C 
BRANCH  13  14
ATOM     14  C   UNL     1      -1.299  -0.903   1.791  0.00  0.00    -0.009 A 
ATOM     15  C   UNL     1      -2.364  -0.493   1.014  0.00  0.00    +0.007 A 
ATOM     16  C   UNL     1      -3.658  -0.643   1.477  0.00  0.00    +0.000 A 
ATOM     17  C   UNL     1      -3.890  -1.205   2.720  0.00  0.00    +0.002 A 
ATOM     18  C   UNL     1      -2.830  -1.617   3.502  0.00  0.00    +0.023 A 
ATOM     19  C   UNL     1      -1.528  -1.473   3.037  0.00  0.00    +0.035 A 
BRANCH  19  20
ATOM     20  N   UNL     1      -0.453  -1.894   3.823  0.00  0.00    -0.325 N 
ATOM     21  C   UNL     1       0.253  -0.953   4.707  0.00  0.00    +0.133 C 
ATOM     22  C   UNL     1       0.339  -1.576   6.105  0.00  0.00    +0.178 C 
ATOM     23  O   UNL     1       0.895  -2.889   6.002  0.00  0.00    -0.377 OA
ATOM     24  C   UNL     1       0.105  -3.800   5.234  0.00  0.00    +0.178 C 
ATOM     25  C   UNL     1       0.003  -3.292   3.796  0.00  0.00    +0.133 C 
ENDBRANCH  19  20
ENDBRANCH  13  14
ENDBRANCH  10  13
ENDBRANCH   1  11
BRANCH   1  26
ATOM     26  C   UNL     1       1.652   0.423  -2.723  0.00  0.00    +0.065 C 
BRANCH  26  27
ATOM     27  C   UNL     1       1.733   1.268  -3.968  0.00  0.00    -0.039 C 
ATOM     28  C   UNL     1       1.750   2.619  -4.034  0.00  0.00    -0.001 A 
ATOM     29  C   UNL     1       1.698   3.665  -3.007  0.00  0.00    +0.010 A 
ATOM     30  C   UNL     1       1.732   4.962  -3.389  0.00  0.00    +0.001 A 
ATOM     31  C   UNL     1       1.815   5.331  -4.739  0.00  0.00    +0.002 A 
ATOM     32  C   UNL     1       1.866   4.427  -5.740  0.00  0.00    +0.026 A 
ATOM     33  C   UNL     1       1.837   3.034  -5.453  0.00  0.00    +0.043 A 
ATOM     34  N   UNL     1       1.873   1.981  -6.233  0.00  0.00    -0.380 N 
ATOM     35  C   UNL     1       1.819   0.777  -5.396  0.00  0.00    +0.144 C 
ATOM     36  H   UNL     1       1.930   1.996  -7.201  0.00  0.00    +0.160 HD
ENDBRANCH  26  27
ENDBRANCH   1  26
TORSDOF 7
