REMARK  Name = ZINC59170521
REMARK  8 active torsions:
REMARK  status: ('A' for Active; 'I' for Inactive)
REMARK    1  A    between atoms: C_1  and  C_2
REMARK    2  A    between atoms: C_5  and  S_8
REMARK    3  A    between atoms: S_8  and  N_11
REMARK    4  A    between atoms: N_11  and  N_12
REMARK    5  A    between atoms: C_14  and  C_27
REMARK    6  A    between atoms: N_29  and  C_30
REMARK    7  A    between atoms: C_34  and  O_36
REMARK    8  A    between atoms: O_36  and  C_37
REMARK                            x       y       z     vdW  Elec       q    Type
REMARK                         _______ _______ _______ _____ _____    ______ ____
ROOT
ATOM      1  N   UNL     1       3.296  -3.584  -0.165  0.00  0.00    -0.260 N 
ATOM      2  C   UNL     1       4.384  -4.268   0.056  0.00  0.00    +0.225 A 
ATOM      3  C   UNL     1       5.050  -4.246   1.379  0.00  0.00    +0.099 A 
ATOM      4  C   UNL     1       5.825  -5.346   1.713  0.00  0.00    +0.030 A 
ATOM      5  C   UNL     1       5.952  -6.389   0.765  0.00  0.00    +0.026 A 
ATOM      6  C   UNL     1       6.567  -7.664   1.135  0.00  0.00    -0.007 A 
ATOM      7  C   UNL     1       7.067  -7.890   2.421  0.00  0.00    +0.009 A 
ATOM      8  C   UNL     1       7.633  -9.094   2.723  0.00  0.00    +0.001 A 
ATOM      9  C   UNL     1       7.719 -10.103   1.767  0.00  0.00    +0.001 A 
ATOM     10  C   UNL     1       7.242  -9.915   0.505  0.00  0.00    +0.008 A 
ATOM     11  C   UNL     1       6.653  -8.687   0.160  0.00  0.00    -0.017 A 
ATOM     12  C   UNL     1       6.148  -8.457  -1.133  0.00  0.00    +0.012 A 
ATOM     13  C   UNL     1       5.588  -7.263  -1.464  0.00  0.00    +0.047 A 
ATOM     14  C   UNL     1       5.485  -6.220  -0.543  0.00  0.00    +0.138 A 
ATOM     15  O   UNL     1       4.949  -5.034  -0.922  0.00  0.00    -0.437 OA
ATOM     16  H   UNL     1       2.864  -3.112   0.564  0.00  0.00    +0.189 HD
ENDROOT
BRANCH   3  17
ATOM     17  C   UNL     1       4.896  -3.108   2.297  0.00  0.00    +0.253 C 
ATOM     18  O   UNL     1       4.147  -2.193   2.012  0.00  0.00    -0.270 OA
ATOM     19  N   UNL     1       5.585  -3.079   3.455  0.00  0.00    -0.281 N 
ATOM     20  H   UNL     1       6.251  -3.760   3.641  0.00  0.00    +0.155 HD
BRANCH  19  21
ATOM     21  C   UNL     1       5.341  -2.067   4.389  0.00  0.00    +0.037 A 
ATOM     22  C   UNL     1       4.063  -1.538   4.523  0.00  0.00    +0.023 A 
ATOM     23  C   UNL     1       3.822  -0.539   5.445  0.00  0.00    +0.005 A 
ATOM     24  C   UNL     1       4.850  -0.062   6.236  0.00  0.00    +0.046 A 
ATOM     25  C   UNL     1       6.128  -0.586   6.107  0.00  0.00    +0.122 A 
ATOM     26  C   UNL     1       6.373  -1.594   5.187  0.00  0.00    +0.069 A 
BRANCH  25  27
ATOM     27  O   UNL     1       7.138  -0.116   6.885  0.00  0.00    -0.495 OA
ATOM     28  C   UNL     1       6.812   0.919   7.816  0.00  0.00    +0.277 C 
ENDBRANCH  25  27
ENDBRANCH  19  21
ENDBRANCH   3  17
BRANCH   1  29
ATOM     29  N   UNL     1       2.751  -3.533  -1.455  0.00  0.00    -0.157 N 
ATOM     30  H   UNL     1       3.140  -4.063  -2.167  0.00  0.00    +0.194 HD
BRANCH  29  31
ATOM     31  S   UNL     1       1.442  -2.566  -1.762  0.00  0.00    +0.085 S 
ATOM     32  O   UNL     1       0.400  -3.008  -0.904  0.00  0.00    -0.149 OA
ATOM     33  O   UNL     1       1.296  -2.517  -3.175  0.00  0.00    -0.149 OA
BRANCH  31  38
ATOM     34  C   UNL     1       2.887   3.016   0.015  0.00  0.00    +0.044 C 
ATOM     35  C   UNL     1       2.526   1.622  -0.428  0.00  0.00    -0.050 A 
ATOM     36  C   UNL     1       2.889   1.182  -1.688  0.00  0.00    +0.005 A 
ATOM     37  C   UNL     1       2.558  -0.097  -2.095  0.00  0.00    +0.029 A 
ATOM     38  C   UNL     1       1.865  -0.936  -1.243  0.00  0.00    +0.110 A 
ATOM     39  C   UNL     1       1.504  -0.496   0.017  0.00  0.00    +0.029 A 
ATOM     40  C   UNL     1       1.839   0.781   0.426  0.00  0.00    +0.005 A 
ENDBRANCH  31  38
ENDBRANCH  29  31
ENDBRANCH   1  29
TORSDOF 6
