REMARK  Name = ZINC44662812
REMARK  7 active torsions:
REMARK  status: ('A' for Active; 'I' for Inactive)
REMARK    1  A    between atoms: C_4  and  C_7
REMARK    2  A    between atoms: C_9  and  C_17
REMARK    3  A    between atoms: C_17  and  C_19
REMARK    4  A    between atoms: C_19  and  O_20
REMARK    5  A    between atoms: O_20  and  C_21
REMARK    6  A    between atoms: C_21  and  C_23
REMARK    7  A    between atoms: C_26  and  N_29
REMARK                            x       y       z     vdW  Elec       q    Type
REMARK                         _______ _______ _______ _____ _____    ______ ____
ROOT
ATOM      1  C   UNL     1       4.652  -0.400   2.436  0.00  0.00    +0.199 C 
ATOM      2  O   UNL     1       4.696   0.811   2.359  0.00  0.00    -0.289 OA
ENDROOT
BRANCH   1   4
ATOM      3  C   UNL     1       4.349  -0.673  -0.152  0.00  0.00    +0.144 C 
ATOM      4  C   UNL     1       4.486  -1.176   1.269  0.00  0.00    +0.034 C 
ATOM      5  C   UNL     1       4.416  -2.555   1.183  0.00  0.00    +0.007 A 
ATOM      6  C   UNL     1       4.480  -3.583   2.153  0.00  0.00    +0.010 A 
ATOM      7  C   UNL     1       4.382  -4.879   1.779  0.00  0.00    +0.001 A 
ATOM      8  C   UNL     1       4.214  -5.266   0.440  0.00  0.00    +0.002 A 
ATOM      9  C   UNL     1       4.140  -4.363  -0.562  0.00  0.00    +0.026 A 
ATOM     10  C   UNL     1       4.239  -2.930  -0.241  0.00  0.00    +0.044 A 
ATOM     11  N   UNL     1       4.202  -1.865  -0.993  0.00  0.00    -0.373 N 
ATOM     12  H   UNL     1       4.095  -1.862  -1.957  0.00  0.00    +0.161 HD
BRANCH   3  16
ATOM     13  C   UNL     1       0.891   1.809  -0.507  0.00  0.00    +0.000 A 
ATOM     14  C   UNL     1       2.144   2.381  -0.399  0.00  0.00    +0.000 A 
ATOM     15  C   UNL     1       3.264   1.578  -0.283  0.00  0.00    +0.006 A 
ATOM     16  C   UNL     1       3.129   0.202  -0.276  0.00  0.00    -0.021 A 
ATOM     17  C   UNL     1       1.875  -0.370  -0.384  0.00  0.00    +0.006 A 
ATOM     18  C   UNL     1       0.756   0.433  -0.501  0.00  0.00    +0.000 A 
ENDBRANCH   3  16
ENDBRANCH   1   4
BRANCH   1  19
ATOM     19  C   UNL     1       4.773  -1.075   3.778  0.00  0.00    +0.311 C 
BRANCH  19  20
ATOM     20  O   UNL     1       4.931  -0.085   4.796  0.00  0.00    -0.453 OA
BRANCH  20  21
ATOM     21  C   UNL     1       5.054  -0.526   6.064  0.00  0.00    +0.340 C 
ATOM     22  O   UNL     1       5.028  -1.718   6.298  0.00  0.00    -0.245 OA
BRANCH  21  23
ATOM     23  C   UNL     1       5.220   0.439   7.167  0.00  0.00    +0.059 A 
ATOM     24  C   UNL     1       5.244   1.811   6.900  0.00  0.00    +0.017 A 
ATOM     25  C   UNL     1       5.399   2.709   7.932  0.00  0.00    +0.024 A 
ATOM     26  C   UNL     1       5.531   2.252   9.239  0.00  0.00    +0.035 A 
ATOM     27  C   UNL     1       5.508   0.887   9.509  0.00  0.00    +0.024 A 
ATOM     28  C   UNL     1       5.348  -0.016   8.482  0.00  0.00    +0.017 A 
BRANCH  26  29
ATOM     29  N   UNL     1       5.688   3.164  10.282  0.00  0.00    -0.270 N 
ATOM     30  C   UNL     1       5.079   4.365  10.224  0.00  0.00    +0.301 C 
ATOM     31  O   UNL     1       4.317   4.617   9.310  0.00  0.00    -0.253 OA
ATOM     32  N   UNL     1       5.316   5.287  11.178  0.00  0.00    -0.313 N 
ATOM     33  H   UNL     1       6.234   2.933  11.050  0.00  0.00    +0.156 HD
ATOM     34  H   UNL     1       5.923   5.086  11.907  0.00  0.00    +0.146 HD
ATOM     35  H   UNL     1       4.878   6.152  11.136  0.00  0.00    +0.146 HD
ENDBRANCH  26  29
ENDBRANCH  21  23
ENDBRANCH  20  21
ENDBRANCH  19  20
ENDBRANCH   1  19
TORSDOF 7
