REMARK  Name = ZINC37614757
REMARK  8 active torsions:
REMARK  status: ('A' for Active; 'I' for Inactive)
REMARK    1  A    between atoms: C_1  and  C_2
REMARK    2  A    between atoms: C_2  and  C_3
REMARK    3  A    between atoms: C_2  and  C_6
REMARK    4  A    between atoms: C_2  and  N_23
REMARK    5  A    between atoms: N_8  and  C_9
REMARK    6  A    between atoms: C_14  and  O_17
REMARK    7  A    between atoms: O_17  and  C_18
REMARK    8  A    between atoms: C_18  and  C_19
REMARK                            x       y       z     vdW  Elec       q    Type
REMARK                         _______ _______ _______ _____ _____    ______ ____
ROOT
ATOM      1  C   UNL     1      -1.412  -0.526   0.013  0.00  0.00    +0.202 C 
ATOM      2  O   UNL     1      -1.939  -0.827   1.062  0.00  0.00    -0.277 OA
ATOM      3  N   UNL     1      -2.090  -0.657  -1.144  0.00  0.00    -0.314 N 
ATOM      4  H   UNL     1      -1.669  -0.416  -1.984  0.00  0.00    +0.149 HD
ENDROOT
BRANCH   3   5
ATOM      5  C   UNL     1      -3.465  -1.164  -1.134  0.00  0.00    +0.075 C 
ATOM      6  C   UNL     1      -3.444  -2.694  -1.142  0.00  0.00    +0.022 C 
ATOM      7  C   UNL     1      -4.879  -3.224  -1.131  0.00  0.00    +0.004 C 
ATOM      8  C   UNL     1      -5.619  -2.717  -2.371  0.00  0.00    +0.032 C 
ATOM      9  C   UNL     1      -5.640  -1.187  -2.363  0.00  0.00    +0.120 C 
ATOM     10  C   UNL     1      -4.205  -0.657  -2.373  0.00  0.00    +0.054 C 
BRANCH   9  11
ATOM     11  O   UNL     1      -6.331  -0.714  -3.520  0.00  0.00    -0.368 OA
BRANCH  11  12
ATOM     12  C   UNL     1      -7.737  -0.540  -3.328  0.00  0.00    +0.273 C 
BRANCH  12  13
ATOM     13  C   UNL     1      -8.370  -0.033  -4.625  0.00  0.00    +0.413 C 
ATOM     14  F   UNL     1      -8.151  -0.964  -5.646  0.00  0.00    -0.168 F 
ATOM     15  F   UNL     1      -9.746   0.137  -4.436  0.00  0.00    -0.168 F 
ATOM     16  F   UNL     1      -7.793   1.191  -4.978  0.00  0.00    -0.168 F 
ENDBRANCH  12  13
ENDBRANCH  11  12
ENDBRANCH   9  11
ENDBRANCH   3   5
BRANCH   1  18
ATOM     17  C   UNL     1      -0.019   1.526   0.010  0.00  0.00    -0.001 C 
ATOM     18  C   UNL     1       0.002  -0.004   0.002  0.00  0.00    +0.007 C 
BRANCH  18  19
ATOM     19  N   UNL     1       0.690  -0.478  -1.207  0.00  0.00    +0.388 N 
ATOM     20  H   UNL     1       1.636  -0.129  -1.214  0.00  0.00    -0.089 HD
ATOM     21  H   UNL     1       0.703  -1.487  -1.212  0.00  0.00    -0.089 HD
ATOM     22  H   UNL     1       0.202  -0.144  -2.024  0.00  0.00    -0.089 HD
ENDBRANCH  18  19
BRANCH  18  23
ATOM     23  C   UNL     1       0.742  -0.511   1.242  0.00  0.00    -0.014 C 
ATOM     24  C   UNL     1       1.015   0.495   2.362  0.00  0.00    +0.003 C 
ATOM     25  C   UNL     1       2.163   0.006   1.476  0.00  0.00    +0.003 C 
ENDBRANCH  18  23
ENDBRANCH   1  18
TORSDOF 7
