REMARK  Name = ZINC16489415
REMARK  7 active torsions:
REMARK  status: ('A' for Active; 'I' for Inactive)
REMARK    1  A    between atoms: C_1  and  C_2
REMARK    2  A    between atoms: C_3  and  N_21
REMARK    3  A    between atoms: C_4  and  C_20
REMARK    4  A    between atoms: N_5  and  C_7
REMARK    5  A    between atoms: C_7  and  C_8
REMARK    6  A    between atoms: N_10  and  C_11
REMARK    7  A    between atoms: C_14  and  N_18
REMARK                            x       y       z     vdW  Elec       q    Type
REMARK                         _______ _______ _______ _____ _____    ______ ____
ROOT
ATOM      1  C   UNL     1       1.481  -3.683   1.772  0.00  0.00    +0.239 C 
ATOM      2  O   UNL     1       2.392  -3.038   1.298  0.00  0.00    -0.273 OA
ATOM      3  N   UNL     1       1.745  -4.751   2.550  0.00  0.00    -0.284 N 
ATOM      4  H   UNL     1       1.020  -5.227   2.983  0.00  0.00    +0.155 HD
ENDROOT
BRANCH   3   5
ATOM      5  C   UNL     1       3.069  -5.174   2.733  0.00  0.00    +0.036 A 
ATOM      6  C   UNL     1       3.355  -6.528   2.850  0.00  0.00    +0.045 A 
ATOM      7  C   UNL     1       4.660  -6.946   3.031  0.00  0.00    +0.065 A 
ATOM      8  C   UNL     1       5.685  -6.011   3.095  0.00  0.00    +0.062 A 
ATOM      9  C   UNL     1       5.399  -4.656   2.978  0.00  0.00    +0.065 A 
ATOM     10  C   UNL     1       4.094  -4.240   2.792  0.00  0.00    +0.045 A 
ATOM     11 CL   UNL     1       6.679  -3.487   3.060  0.00  0.00    -0.082 Cl
ATOM     12 CL   UNL     1       5.017  -8.638   3.177  0.00  0.00    -0.082 Cl
BRANCH   8  13
ATOM     13  N   UNL     1       7.008  -6.433   3.279  0.00  0.00    -0.356 N 
ATOM     14  H   UNL     1       7.208  -7.379   3.361  0.00  0.00    +0.142 HD
ATOM     15  H   UNL     1       7.724  -5.780   3.324  0.00  0.00    +0.142 HD
ENDBRANCH   8  13
ENDBRANCH   3   5
BRANCH   1  16
ATOM     16  C   UNL     1       0.053  -3.291   1.490  0.00  0.00    +0.239 C 
BRANCH  16  21
ATOM     17  C   UNL     1      -0.008   1.503   0.003  0.00  0.00    +0.070 C 
ATOM     18  C   UNL     1       0.007  -0.004  -0.001  0.00  0.00    +0.090 A 
ATOM     19  C   UNL     1       0.003  -0.821  -1.137  0.00  0.00    +0.169 A 
ATOM     20  C   UNL     1       0.019  -2.109  -0.723  0.00  0.00    +0.067 A 
ATOM     21  N   UNL     1       0.033  -2.108   0.627  0.00  0.00    -0.257 N 
ATOM     22  N   UNL     1       0.030  -0.774   1.056  0.00  0.00    -0.173 NA
ATOM     23  C   UNL     1       0.021  -3.328  -1.609  0.00  0.00    +0.068 C 
BRANCH  19  24
ATOM     24  N   UNL     1      -0.017  -0.359  -2.542  0.00  0.00    +0.060 N 
ATOM     25  O   UNL     1       1.022  -0.160  -3.128  0.00  0.00    -0.126 OA
ATOM     26  O   UNL     1      -1.072  -0.180  -3.105  0.00  0.00    -0.126 OA
ENDBRANCH  19  24
ENDBRANCH  16  21
ENDBRANCH   1  16
TORSDOF 5
