REMARK  Name = ZINC53126211
REMARK  10 active torsions:
REMARK  status: ('A' for Active; 'I' for Inactive)
REMARK    1  A    between atoms: C_1  and  C_2
REMARK    2  A    between atoms: C_2  and  C_4
REMARK    3  A    between atoms: C_2  and  N_12
REMARK    4  A    between atoms: N_12  and  C_13
REMARK    5  A    between atoms: N_12  and  C_14
REMARK    6  A    between atoms: C_14  and  C_15
REMARK    7  A    between atoms: N_17  and  C_18
REMARK    8  A    between atoms: C_18  and  C_19
REMARK    9  A    between atoms: C_22  and  S_25
REMARK   10  A    between atoms: S_25  and  N_28
REMARK                            x       y       z     vdW  Elec       q    Type
REMARK                         _______ _______ _______ _____ _____    ______ ____
ROOT
ATOM      1  C   UNL     1      -2.763  -2.504   0.139  0.00  0.00    +0.197 C 
ATOM      2  O   UNL     1      -3.692  -1.728   0.232  0.00  0.00    -0.278 OA
ATOM      3  N   UNL     1      -2.990  -3.832   0.155  0.00  0.00    -0.313 N 
ATOM      4  H   UNL     1      -2.248  -4.452   0.081  0.00  0.00    +0.149 HD
ENDROOT
BRANCH   1   5
ATOM      5  C   UNL     1      -1.356  -1.981   0.004  0.00  0.00    +0.019 C 
BRANCH   5   6
ATOM      6  N   UNL     1      -1.376  -0.512   0.012  0.00  0.00    +0.388 N 
ATOM      7  C   UNL     1      -2.087  -0.026  -1.178  0.00  0.00    -0.095 C 
ATOM      8  H   UNL     1      -1.848  -0.187   0.843  0.00  0.00    -0.081 HD
BRANCH   6  10
ATOM      9  C   UNL     1      -0.019   1.526   0.010  0.00  0.00    -0.008 C 
ATOM     10  C   UNL     1       0.002  -0.004   0.002  0.00  0.00    -0.038 C 
BRANCH  10  11
ATOM     11  C   UNL     1       0.731  -0.503   1.223  0.00  0.00    -0.023 A 
ATOM     12  C   UNL     1       0.018  -0.951   2.319  0.00  0.00    +0.043 A 
ATOM     13  C   UNL     1       0.687  -1.410   3.440  0.00  0.00    +0.124 A 
ATOM     14  C   UNL     1       2.071  -1.421   3.464  0.00  0.00    +0.041 A 
ATOM     15  C   UNL     1       2.785  -0.973   2.368  0.00  0.00    +0.041 A 
ATOM     16  C   UNL     1       2.115  -0.519   1.244  0.00  0.00    +0.125 A 
ATOM     17  F   UNL     1       2.812  -0.086   0.171  0.00  0.00    -0.205 F 
ATOM     18  F   UNL     1      -0.010  -1.847   4.512  0.00  0.00    -0.205 F 
ENDBRANCH  10  11
ENDBRANCH   6  10
ENDBRANCH   5   6
ENDBRANCH   1   5
BRANCH   3  19
ATOM     19  C   UNL     1      -4.359  -4.340   0.286  0.00  0.00    +0.139 C 
BRANCH  19  20
ATOM     20  C   UNL     1      -4.338  -5.846   0.278  0.00  0.00    -0.030 A 
ATOM     21  C   UNL     1      -4.439  -6.532  -0.918  0.00  0.00    +0.007 A 
ATOM     22  C   UNL     1      -4.420  -7.915  -0.926  0.00  0.00    +0.029 A 
ATOM     23  C   UNL     1      -4.300  -8.611   0.263  0.00  0.00    +0.105 A 
ATOM     24  C   UNL     1      -4.199  -7.925   1.458  0.00  0.00    +0.029 A 
ATOM     25  C   UNL     1      -4.213  -6.543   1.466  0.00  0.00    +0.007 A 
BRANCH  23  26
ATOM     26  S   UNL     1      -4.277 -10.373   0.253  0.00  0.00    +0.056 S 
ATOM     27  O   UNL     1      -4.705 -10.791   1.542  0.00  0.00    -0.153 OA
ATOM     28  O   UNL     1      -4.936 -10.781  -0.938  0.00  0.00    -0.153 OA
BRANCH  26  29
ATOM     29  N   UNL     1      -2.696 -10.841   0.104  0.00  0.00    -0.204 NA
ATOM     30  H   UNL     1      -1.996 -10.173   0.042  0.00  0.00    +0.144 HD
ATOM     31  H   UNL     1      -2.470 -11.784   0.079  0.00  0.00    +0.144 HD
ENDBRANCH  26  29
ENDBRANCH  23  26
ENDBRANCH  19  20
ENDBRANCH   3  19
TORSDOF 8
