REMARK  Name = ZINC18744620
REMARK  11 active torsions:
REMARK  status: ('A' for Active; 'I' for Inactive)
REMARK    1  A    between atoms: C_1  and  C_2
REMARK    2  A    between atoms: C_4  and  C_31
REMARK    3  A    between atoms: C_6  and  O_8
REMARK    4  A    between atoms: O_8  and  C_9
REMARK    5  A    between atoms: C_9  and  C_10
REMARK    6  A    between atoms: C_13  and  S_16
REMARK    7  A    between atoms: N_14  and  N_15
REMARK    8  A    between atoms: S_16  and  C_17
REMARK    9  A    between atoms: C_17  and  C_19
REMARK   10  A    between atoms: C_17  and  C_20
REMARK   11  A    between atoms: N_25  and  C_26
REMARK                            x       y       z     vdW  Elec       q    Type
REMARK                         _______ _______ _______ _____ _____    ______ ____
ROOT
ATOM      1  C   UNL     1      12.718   3.680   0.199  0.00  0.00    +0.189 A 
ATOM      2  N   UNL     1      12.214   2.689  -0.479  0.00  0.00    -0.128 NA
ATOM      3  N   UNL     1      10.999   2.479  -0.116  0.00  0.00    -0.121 NA
ATOM      4  C   UNL     1      10.657   3.338   0.816  0.00  0.00    +0.209 A 
ATOM      5  N   UNL     1      11.745   4.129   1.049  0.00  0.00    -0.225 N 
ENDROOT
BRANCH   5   6
ATOM      6  N   UNL     1      11.842   5.157   1.944  0.00  0.00    -0.295 N 
ATOM      7  H   UNL     1      12.165   4.826   2.841  0.00  0.00    +0.163 HD
ATOM      8  H   UNL     1      12.441   5.888   1.591  0.00  0.00    +0.163 HD
ENDBRANCH   5   6
BRANCH   1   9
ATOM      9  C   UNL     1      14.116   4.230   0.071  0.00  0.00    +0.306 C 
BRANCH   9  10
ATOM     10  O   UNL     1      14.983   3.542   0.974  0.00  0.00    -0.484 OA
BRANCH  10  16
ATOM     11  C   UNL     1      18.528   6.415  -0.758  0.00  0.00    +0.044 C 
ATOM     12  C   UNL     1      18.053   5.315   0.155  0.00  0.00    -0.047 A 
ATOM     13  C   UNL     1      18.946   4.689   1.005  0.00  0.00    +0.007 A 
ATOM     14  C   UNL     1      18.513   3.680   1.845  0.00  0.00    -0.047 A 
ATOM     15  C   UNL     1      17.186   3.294   1.836  0.00  0.00    +0.049 A 
ATOM     16  C   UNL     1      16.288   3.920   0.984  0.00  0.00    +0.122 A 
ATOM     17  C   UNL     1      16.727   4.928   0.138  0.00  0.00    +0.049 A 
ATOM     18  C   UNL     1      19.489   3.000   2.771  0.00  0.00    +0.044 C 
ENDBRANCH  10  16
ENDBRANCH   9  10
ENDBRANCH   1   9
BRANCH   4  19
ATOM     19  S   UNL     1       9.093   3.444   1.621  0.00  0.00    -0.072 S 
BRANCH  19  20
ATOM     20  C   UNL     1       8.218   2.098   0.785  0.00  0.00    +0.137 C 
ATOM     21  C   UNL     1       8.883   0.764   1.132  0.00  0.00    +0.029 C 
BRANCH  20  22
ATOM     22  C   UNL     1       6.781   2.076   1.238  0.00  0.00    +0.234 C 
ATOM     23  O   UNL     1       6.464   2.617   2.276  0.00  0.00    -0.274 OA
ATOM     24  N   UNL     1       5.848   1.455   0.490  0.00  0.00    -0.239 N 
ATOM     25  C   UNL     1       4.563   1.435   0.895  0.00  0.00    +0.306 C 
ATOM     26  O   UNL     1       4.245   1.978   1.935  0.00  0.00    -0.252 OA
ATOM     27  N   UNL     1       3.630   0.814   0.146  0.00  0.00    -0.296 N 
ATOM     28  H   UNL     1       6.101   1.022  -0.341  0.00  0.00    +0.159 HD
ATOM     29  H   UNL     1       3.883   0.381  -0.684  0.00  0.00    +0.151 HD
BRANCH  27  30
ATOM     30  C   UNL     1       2.232   0.792   0.586  0.00  0.00    +0.074 C 
ATOM     31  C   UNL     1       1.453   1.995  -0.001  0.00  0.00    +0.022 C 
ATOM     32  C   UNL     1      -0.019   1.534   0.011  0.00  0.00    +0.002 C 
ATOM     33  C   UNL     1       0.002  -0.004   0.002  0.00  0.00    +0.002 C 
ATOM     34  C   UNL     1       1.486  -0.425  -0.014  0.00  0.00    +0.022 C 
ENDBRANCH  27  30
ENDBRANCH  20  22
ENDBRANCH  19  20
ENDBRANCH   4  19
TORSDOF 8
