REMARK  Name = ZINC45072145
REMARK  11 active torsions:
REMARK  status: ('A' for Active; 'I' for Inactive)
REMARK    1  A    between atoms: C_1  and  C_2
REMARK    2  A    between atoms: C_2  and  C_3
REMARK    3  A    between atoms: C_3  and  N_4
REMARK    4  A    between atoms: C_5  and  C_7
REMARK    5  A    between atoms: C_7  and  C_8
REMARK    6  A    between atoms: C_8  and  N_9
REMARK    7  A    between atoms: N_9  and  C_10
REMARK    8  A    between atoms: C_10  and  C_12
REMARK    9  A    between atoms: C_10  and  C_14
REMARK   10  A    between atoms: C_12  and  C_13
REMARK   11  A    between atoms: C_19  and  O_20
REMARK                            x       y       z     vdW  Elec       q    Type
REMARK                         _______ _______ _______ _____ _____    ______ ____
ROOT
ATOM      1  N   UNL     1      -4.326  -6.005  -0.097  0.00  0.00    +0.384 N 
ATOM      2  H   UNL     1      -3.798  -6.383  -0.869  0.00  0.00    -0.085 HD
ATOM      3  H   UNL     1      -3.795  -6.105   0.755  0.00  0.00    -0.085 HD
ENDROOT
BRANCH   1   4
ATOM      4  C   UNL     1      -4.598  -4.582  -0.340  0.00  0.00    -0.073 C 
BRANCH   4   5
ATOM      5  C   UNL     1      -3.281  -3.847  -0.598  0.00  0.00    +0.077 C 
BRANCH   5   7
ATOM      6  N   UNL     1      -2.542  -1.541  -1.100  0.00  0.00    -0.315 N 
ATOM      7  C   UNL     1      -3.560  -2.388  -0.848  0.00  0.00    +0.211 C 
ATOM      8  O   UNL     1      -4.700  -1.975  -0.821  0.00  0.00    -0.276 OA
ATOM      9  H   UNL     1      -1.630  -1.871  -1.121  0.00  0.00    +0.149 HD
BRANCH   6  10
ATOM     10  C   UNL     1      -2.813  -0.121  -1.343  0.00  0.00    +0.104 C 
BRANCH  10  12
ATOM     11  C   UNL     1      -1.780   2.095  -1.854  0.00  0.00    +0.005 C 
ATOM     12  C   UNL     1      -1.496   0.613  -1.601  0.00  0.00    +0.015 C 
ENDBRANCH  10  12
ENDBRANCH   6  10
ENDBRANCH   5   7
ENDBRANCH   4   5
ENDBRANCH   1   4
BRANCH   1  13
ATOM     13  C   UNL     1      -5.596  -6.731   0.030  0.00  0.00    -0.038 C 
BRANCH  13  14
ATOM     14  C   UNL     1      -6.316  -6.271   1.271  0.00  0.00    -0.019 A 
ATOM     15  C   UNL     1      -5.618  -5.635   2.280  0.00  0.00    +0.020 A 
ATOM     16  C   UNL     1      -6.279  -5.212   3.419  0.00  0.00    +0.018 A 
ATOM     17  C   UNL     1      -7.639  -5.425   3.552  0.00  0.00    +0.019 A 
ATOM     18  C   UNL     1      -8.341  -6.061   2.546  0.00  0.00    +0.047 A 
ATOM     19  C   UNL     1      -7.681  -6.481   1.400  0.00  0.00    +0.119 A 
ATOM     20 BR   UNL     1      -5.321  -4.342   4.798  0.00  0.00    -0.050 Br
BRANCH  19  21
ATOM     21  O   UNL     1      -8.371  -7.102   0.406  0.00  0.00    -0.507 OA
ATOM     22  H   UNL     1      -8.415  -8.063   0.500  0.00  0.00    +0.292 HD
ENDBRANCH  19  21
ENDBRANCH  13  14
BRANCH  13  23
ATOM     23  C   UNL     1      -5.317  -8.232   0.129  0.00  0.00    -0.015 C 
ATOM     24  C   UNL     1      -4.713  -8.727  -1.187  0.00  0.00    +0.002 C 
ENDBRANCH  13  23
ENDBRANCH   1  13
TORSDOF 9
