REMARK  Name = ZINC20891243
REMARK  7 active torsions:
REMARK  status: ('A' for Active; 'I' for Inactive)
REMARK    1  A    between atoms: C_1  and  C_2
REMARK    2  A    between atoms: C_21  and  C_23
REMARK    3  A    between atoms: C_26  and  O_31
REMARK    4  A    between atoms: C_27  and  O_29
REMARK    5  A    between atoms: O_29  and  C_30
REMARK    6  A    between atoms: O_31  and  C_32
REMARK    7  A    between atoms: C_32  and  C_33
REMARK                            x       y       z     vdW  Elec       q    Type
REMARK                         _______ _______ _______ _____ _____    ______ ____
ROOT
ATOM      1  C   UNL     1       3.619   2.963  -2.571  0.00  0.00    +0.068 C 
ATOM      2  C   UNL     1       5.108   3.094  -2.378  0.00  0.00    +0.067 A 
ATOM      3  C   UNL     1       5.754   3.406  -1.163  0.00  0.00    +0.033 A 
ATOM      4  C   UNL     1       7.082   3.437  -1.399  0.00  0.00    +0.136 A 
ATOM      5  N   UNL     1       7.261   3.144  -2.736  0.00  0.00    -0.193 N 
ATOM      6  N   UNL     1       6.008   2.937  -3.306  0.00  0.00    -0.168 NA
ATOM      7  C   UNL     1       8.481   3.064  -3.397  0.00  0.00    +0.196 A 
ATOM      8  N   UNL     1       9.689   3.248  -2.920  0.00  0.00    -0.221 NA
ATOM      9  C   UNL     1      10.796   3.132  -3.684  0.00  0.00    +0.081 A 
ATOM     10  C   UNL     1      12.146   3.298  -3.295  0.00  0.00    +0.029 A 
ATOM     11  C   UNL     1      13.160   3.150  -4.205  0.00  0.00    +0.002 A 
ATOM     12  C   UNL     1      12.903   2.834  -5.532  0.00  0.00    +0.001 A 
ATOM     13  C   UNL     1      11.595   2.665  -5.947  0.00  0.00    +0.017 A 
ATOM     14  C   UNL     1      10.573   2.811  -5.042  0.00  0.00    +0.041 A 
ATOM     15  S   UNL     1       8.802   2.693  -5.116  0.00  0.00    -0.048 S 
ATOM     16  N   UNL     1       8.154   3.691  -0.579  0.00  0.00    -0.269 N 
ATOM     17  C   UNL     1       8.302   3.940   0.687  0.00  0.00    +0.228 C 
ATOM     18  O   UNL     1       9.453   4.010   1.062  0.00  0.00    -0.275 OA
ATOM     19  C   UNL     1       7.290   4.151   1.744  0.00  0.00    +0.166 C 
ATOM     20  S   UNL     1       5.858   3.078   1.569  0.00  0.00    -0.138 S 
ATOM     21  C   UNL     1       4.991   3.644   0.103  0.00  0.00    +0.112 C 
ATOM     22  H   UNL     1       9.172   3.711  -0.995  0.00  0.00    +0.156 HD
ENDROOT
BRANCH  21  23
ATOM     23  C   UNL     1       3.670   2.923   0.013  0.00  0.00    -0.026 A 
ATOM     24  C   UNL     1       3.631   1.543   0.087  0.00  0.00    +0.009 A 
ATOM     25  C   UNL     1       2.422   0.878   0.011  0.00  0.00    +0.050 A 
ATOM     26  C   UNL     1       1.247   1.593  -0.150  0.00  0.00    +0.163 A 
ATOM     27  C   UNL     1       1.286   2.982  -0.224  0.00  0.00    +0.162 A 
ATOM     28  C   UNL     1       2.501   3.643  -0.142  0.00  0.00    +0.054 A 
BRANCH  27  29
ATOM     29  O   UNL     1       0.134   3.689  -0.376  0.00  0.00    -0.491 OA
ATOM     30  C   UNL     1       0.250   5.112  -0.444  0.00  0.00    +0.277 C 
ENDBRANCH  27  29
BRANCH  26  31
ATOM     31  O   UNL     1       0.057   0.940  -0.231  0.00  0.00    -0.479 OA
BRANCH  31  32
ATOM     32  C   UNL     1       0.093  -0.487  -0.147  0.00  0.00    +0.324 C 
BRANCH  32  33
ATOM     33  C   UNL     1      -1.308  -1.032  -0.255  0.00  0.00    +0.248 C 
ATOM     34  O   UNL     1      -2.245  -0.274  -0.389  0.00  0.00    -0.272 OA
ATOM     35  N   UNL     1      -1.520  -2.362  -0.201  0.00  0.00    -0.327 N 
ATOM     36  H   UNL     1      -2.542  -2.760  -0.279  0.00  0.00    +0.145 HD
ATOM     37  H   UNL     1      -0.670  -3.049  -0.079  0.00  0.00    +0.145 HD
ENDBRANCH  32  33
ENDBRANCH  31  32
ENDBRANCH  26  31
ENDBRANCH  21  23
TORSDOF 5
