REMARK  Name = ZINC13274850
REMARK  7 active torsions:
REMARK  status: ('A' for Active; 'I' for Inactive)
REMARK    1  A    between atoms: C_3  and  S_21
REMARK    2  A    between atoms: C_4  and  S_10
REMARK    3  A    between atoms: C_6  and  N_7
REMARK    4  A    between atoms: S_10  and  N_13
REMARK    5  A    between atoms: C_16  and  C_19
REMARK    6  A    between atoms: S_21  and  C_22
REMARK    7  A    between atoms: N_26  and  C_27
REMARK                            x       y       z     vdW  Elec       q    Type
REMARK                         _______ _______ _______ _____ _____    ______ ____
ROOT
ATOM      1  C   UNL     1      -1.315   3.361   0.113  0.00  0.00    +0.034 A 
ATOM      2  C   UNL     1      -2.526   4.026   0.106  0.00  0.00    +0.019 A 
ATOM      3  C   UNL     1      -3.712   3.304   0.051  0.00  0.00    +0.042 A 
ATOM      4  C   UNL     1      -3.675   1.916  -0.003  0.00  0.00    +0.121 A 
ATOM      5  C   UNL     1      -2.461   1.259  -0.001  0.00  0.00    +0.062 A 
ATOM      6  C   UNL     1      -1.282   1.980   0.054  0.00  0.00    +0.128 A 
ENDROOT
BRANCH   6   7
ATOM      7  N   UNL     1       0.018   1.272   0.055  0.00  0.00    +0.056 N 
ATOM      8  O   UNL     1       0.048   0.055   0.008  0.00  0.00    -0.126 OA
ATOM      9  O   UNL     1       1.057   1.906   0.099  0.00  0.00    -0.126 OA
ENDBRANCH   6   7
BRANCH   4  10
ATOM     10  S   UNL     1      -5.176   0.996  -0.074  0.00  0.00    +0.062 S 
ATOM     11  O   UNL     1      -5.967   1.588  -1.096  0.00  0.00    -0.153 OA
ATOM     12  O   UNL     1      -4.811  -0.377  -0.093  0.00  0.00    -0.153 OA
BRANCH  10  13
ATOM     13  N   UNL     1      -5.976   1.253   1.353  0.00  0.00    -0.177 NA
ATOM     14  C   UNL     1      -5.755   0.368   2.505  0.00  0.00    +0.110 C 
ATOM     15  C   UNL     1      -7.104  -0.157   2.994  0.00  0.00    +0.032 C 
ATOM     16  C   UNL     1      -8.037   1.022   3.277  0.00  0.00    +0.105 C 
ATOM     17  C   UNL     1      -8.264   1.815   1.988  0.00  0.00    +0.032 C 
ATOM     18  C   UNL     1      -6.925   2.367   1.489  0.00  0.00    +0.110 C 
BRANCH  16  19
ATOM     19  C   UNL     1      -9.357   0.507   3.789  0.00  0.00    +0.359 C 
ATOM     20  O   UNL     1     -10.375   0.749   3.185  0.00  0.00    -0.246 OA
ATOM     21  O   UNL     1      -9.402  -0.221   4.916  0.00  0.00    -0.246 OA
ENDBRANCH  16  19
ENDBRANCH  10  13
ENDBRANCH   4  10
BRANCH   3  22
ATOM     22  S   UNL     1      -5.259   4.147   0.049  0.00  0.00    -0.047 S 
BRANCH  22  23
ATOM     23  C   UNL     1      -5.047   5.174  -1.367  0.00  0.00    +0.214 A 
ATOM     24  N   UNL     1      -4.030   5.153  -2.202  0.00  0.00    -0.101 NA
ATOM     25  N   UNL     1      -4.191   6.029  -3.128  0.00  0.00    -0.022 NA
ATOM     26  N   UNL     1      -5.295   6.669  -2.952  0.00  0.00    -0.043 NA
ATOM     27  N   UNL     1      -5.896   6.136  -1.798  0.00  0.00    -0.217 N 
BRANCH  27  28
ATOM     28  C   UNL     1      -7.168   6.537  -1.191  0.00  0.00    +0.112 C 
ATOM     29  C   UNL     1      -8.313   6.381  -2.213  0.00  0.00    +0.027 C 
ATOM     30  C   UNL     1      -9.243   7.587  -1.927  0.00  0.00    +0.002 C 
ATOM     31  C   UNL     1      -8.240   8.723  -1.606  0.00  0.00    +0.002 C 
ATOM     32  C   UNL     1      -7.122   8.025  -0.805  0.00  0.00    +0.027 C 
ENDBRANCH  27  28
ENDBRANCH  22  23
ENDBRANCH   3  22
TORSDOF 7
