REMARK  Name = ZINC27435593
REMARK  5 active torsions:
REMARK  status: ('A' for Active; 'I' for Inactive)
REMARK    1  A    between atoms: C_3  and  C_15
REMARK    2  A    between atoms: C_6  and  C_7
REMARK    3  A    between atoms: N_8  and  N_9
REMARK    4  A    between atoms: C_19  and  C_24
REMARK    5  A    between atoms: N_25  and  N_26
REMARK                            x       y       z     vdW  Elec       q    Type
REMARK                         _______ _______ _______ _____ _____    ______ ____
ROOT
ATOM      1  C   UNL     1       8.037   2.539  -0.061  0.00  0.00    +0.090 A 
ATOM      2  C   UNL     1       7.264   1.416  -0.060  0.00  0.00    +0.121 A 
ATOM      3  N   UNL     1       5.960   1.827  -0.045  0.00  0.00    -0.305 N 
ATOM      4  C   UNL     1       4.783   1.138  -0.032  0.00  0.00    +0.102 A 
ATOM      5  C   UNL     1       3.592   1.804  -0.023  0.00  0.00    +0.011 A 
ATOM      6  C   UNL     1       3.574   3.221  -0.015  0.00  0.00    +0.014 A 
ATOM      7  C   UNL     1       4.744   3.906  -0.022  0.00  0.00    +0.047 A 
ATOM      8  C   UNL     1       5.966   3.198  -0.038  0.00  0.00    +0.138 A 
ATOM      9  N   UNL     1       7.225   3.609  -0.048  0.00  0.00    -0.228 NA
ENDROOT
BRANCH   1  12
ATOM     10  C   UNL     1      11.563   3.831  -0.087  0.00  0.00    +0.010 A 
ATOM     11  C   UNL     1      10.188   3.798  -0.075  0.00  0.00    +0.011 A 
ATOM     12  C   UNL     1       9.519   2.573  -0.075  0.00  0.00    +0.002 A 
ATOM     13  C   UNL     1      10.244   1.381  -0.082  0.00  0.00    +0.011 A 
ATOM     14  C   UNL     1      11.619   1.411  -0.100  0.00  0.00    +0.010 A 
ATOM     15  C   UNL     1      12.291   2.637  -0.100  0.00  0.00    -0.005 A 
BRANCH  15  16
ATOM     16  C   UNL     1      13.764   2.671  -0.113  0.00  0.00    +0.138 C 
ATOM     17  N   UNL     1      14.439   1.562  -0.125  0.00  0.00    -0.189 NA
BRANCH  17  18
ATOM     18  N   UNL     1      15.840   1.595  -0.138  0.00  0.00    -0.226 N 
ATOM     19  C   UNL     1      16.552   0.424  -0.150  0.00  0.00    +0.088 C 
ATOM     20  N   UNL     1      16.025  -0.751  -0.152  0.00  0.00    -0.375 N 
ATOM     21  C   UNL     1      17.035  -1.815  -0.170  0.00  0.00    +0.114 C 
ATOM     22  C   UNL     1      18.357  -1.125   0.240  0.00  0.00    +0.028 C 
ATOM     23  C   UNL     1      18.062   0.340  -0.170  0.00  0.00    +0.072 C 
ATOM     24  H   UNL     1      16.367   2.560  -0.137  0.00  0.00    +0.176 HD
ATOM     25  H   UNL     1      14.931  -0.863  -0.141  0.00  0.00    +0.161 HD
ENDBRANCH  17  18
ENDBRANCH  15  16
ENDBRANCH   1  12
BRANCH   5  26
ATOM     26  C   UNL     1       2.325   1.049  -0.015  0.00  0.00    +0.139 C 
ATOM     27  N   UNL     1       1.193   1.683  -0.000  0.00  0.00    -0.189 NA
BRANCH  27  28
ATOM     28  N   UNL     1      -0.011   0.966   0.007  0.00  0.00    -0.226 N 
ATOM     29  C   UNL     1      -1.207   1.635   0.017  0.00  0.00    +0.088 C 
ATOM     30  N   UNL     1      -1.326   2.917   0.024  0.00  0.00    -0.375 N 
ATOM     31  C   UNL     1      -2.729   3.347   0.030  0.00  0.00    +0.114 C 
ATOM     32  C   UNL     1      -3.534   2.094   0.445  0.00  0.00    +0.028 C 
ATOM     33  C   UNL     1      -2.563   0.965   0.013  0.00  0.00    +0.072 C 
ATOM     34  H   UNL     1       0.004  -0.134   0.006  0.00  0.00    +0.176 HD
ATOM     35  H   UNL     1      -0.428   3.553   0.025  0.00  0.00    +0.161 HD
ENDBRANCH  27  28
ENDBRANCH   5  26
TORSDOF 5
