REMARK  Name = ZINC63385802
REMARK  8 active torsions:
REMARK  status: ('A' for Active; 'I' for Inactive)
REMARK    1  A    between atoms: C_1  and  C_2
REMARK    2  A    between atoms: C_2  and  C_3
REMARK    3  A    between atoms: C_2  and  C_4
REMARK    4  A    between atoms: C_4  and  C_6
REMARK    5  A    between atoms: C_4  and  N_20
REMARK    6  A    between atoms: N_8  and  C_9
REMARK    7  A    between atoms: C_9  and  C_10
REMARK    8  A    between atoms: C_10  and  C_11
REMARK                            x       y       z     vdW  Elec       q    Type
REMARK                         _______ _______ _______ _____ _____    ______ ____
ROOT
ATOM      1  C   UNL     1       0.626  -0.606   1.254  0.00  0.00    +0.183 C 
ENDROOT
BRANCH   1   2
ATOM      2  N   UNL     1       0.628  -2.070   1.317  0.00  0.00    -0.205 N 
ATOM      3  C   UNL     1       0.033  -2.684   2.365  0.00  0.00    +0.264 C 
ATOM      4  O   UNL     1      -0.418  -2.046   3.297  0.00  0.00    -0.269 OA
ATOM      5  C   UNL     1      -0.050  -4.158   2.336  0.00  0.00    +0.060 A 
ATOM      6  C   UNL     1      -0.409  -4.917   3.442  0.00  0.00    +0.015 A 
ATOM      7  C   UNL     1      -0.465  -6.292   3.328  0.00  0.00    +0.001 A 
ATOM      8  C   UNL     1      -0.167  -6.912   2.124  0.00  0.00    +0.002 A 
ATOM      9  C   UNL     1       0.193  -6.166   1.017  0.00  0.00    +0.025 A 
ATOM     10  C   UNL     1       0.256  -4.789   1.115  0.00  0.00    +0.055 A 
ATOM     11  N   UNL     1       0.617  -3.970   0.052  0.00  0.00    -0.264 N 
ATOM     12  N   UNL     1       1.223  -2.776   0.318  0.00  0.00    -0.157 NA
ATOM     13  H   UNL     1       0.439  -4.239  -0.863  0.00  0.00    +0.168 HD
ATOM     14  H   UNL     1       2.206  -2.908   0.504  0.00  0.00    +0.168 HD
ENDBRANCH   1   2
BRANCH   1  15
ATOM     15  C   UNL     1       2.040  -0.108   1.101  0.00  0.00    +0.235 C 
ATOM     16  O   UNL     1       2.929  -0.884   0.821  0.00  0.00    -0.274 OA
ATOM     17  N   UNL     1       2.317   1.199   1.275  0.00  0.00    -0.313 N 
ATOM     18  H   UNL     1       1.621   1.807   1.569  0.00  0.00    +0.149 HD
BRANCH  17  19
ATOM     19  C   UNL     1       3.669   1.702   1.022  0.00  0.00    +0.108 C 
BRANCH  19  20
ATOM     20  C   UNL     1       3.713   3.207   1.293  0.00  0.00    +0.052 C 
BRANCH  20  21
ATOM     21  C   UNL     1       5.105   3.724   1.033  0.00  0.00    -0.040 C 
ATOM     22  C   UNL     1       5.562   4.287  -0.109  0.00  0.00    -0.001 A 
ATOM     23  C   UNL     1       4.926   4.575  -1.400  0.00  0.00    +0.010 A 
ATOM     24  C   UNL     1       5.658   5.159  -2.376  0.00  0.00    +0.001 A 
ATOM     25  C   UNL     1       7.006   5.495  -2.186  0.00  0.00    +0.002 A 
ATOM     26  C   UNL     1       7.659   5.262  -1.028  0.00  0.00    +0.026 A 
ATOM     27  C   UNL     1       6.986   4.652   0.067  0.00  0.00    +0.043 A 
ATOM     28  N   UNL     1       7.393   4.327   1.270  0.00  0.00    -0.380 N 
ATOM     29  C   UNL     1       6.270   3.724   1.996  0.00  0.00    +0.144 C 
ATOM     30  H   UNL     1       8.286   4.465   1.622  0.00  0.00    +0.160 HD
ENDBRANCH  20  21
ENDBRANCH  19  20
ENDBRANCH  17  19
ENDBRANCH   1  15
BRANCH   1  32
ATOM     31  C   UNL     1       0.402  -0.706  -1.233  0.00  0.00    +0.009 C 
ATOM     32  C   UNL     1      -0.208  -0.149   0.055  0.00  0.00    +0.014 C 
ATOM     33  C   UNL     1      -1.641  -0.663   0.205  0.00  0.00    +0.009 C 
ENDBRANCH   1  32
TORSDOF 6
