REMARK  Name = ZINC42457824
REMARK  8 active torsions:
REMARK  status: ('A' for Active; 'I' for Inactive)
REMARK    1  A    between atoms: C_1  and  C_2
REMARK    2  A    between atoms: C_2  and  C_4
REMARK    3  A    between atoms: C_2  and  C_16
REMARK    4  A    between atoms: C_4  and  N_5
REMARK    5  A    between atoms: N_5  and  C_6
REMARK    6  A    between atoms: N_5  and  C_7
REMARK    7  A    between atoms: C_7  and  C_8
REMARK    8  A    between atoms: N_17  and  O_18
REMARK                            x       y       z     vdW  Elec       q    Type
REMARK                         _______ _______ _______ _____ _____    ______ ____
ROOT
ATOM      1  N   UNL     1      -2.107  -0.267  -1.307  0.00  0.00    +0.381 N 
ATOM      2  C   UNL     1      -1.524  -1.086  -2.378  0.00  0.00    -0.096 C 
ATOM      3  H   UNL     1      -1.983   0.710  -1.526  0.00  0.00    -0.082 HD
ENDROOT
BRANCH   1   4
ATOM      4  C   UNL     1      -1.438  -0.574  -0.036  0.00  0.00    -0.068 C 
BRANCH   4   6
ATOM      5  C   UNL     1       0.113   1.372  -0.261  0.00  0.00    +0.013 C 
ATOM      6  C   UNL     1       0.030  -0.149  -0.117  0.00  0.00    +0.036 C 
BRANCH   6   7
ATOM      7  C   UNL     1       0.746  -0.574   1.139  0.00  0.00    +0.133 C 
ATOM      8  N   UNL     1       0.879   0.257   2.119  0.00  0.00    -0.077 NA
ATOM      9  N   UNL     1       1.258  -1.849   1.242  0.00  0.00    -0.344 N 
ATOM     10  H   UNL     1       1.157  -2.473   0.506  0.00  0.00    +0.144 HD
ATOM     11  H   UNL     1       1.718  -2.123   2.050  0.00  0.00    +0.144 HD
BRANCH   8  12
ATOM     12  O   UNL     1       1.552  -0.143   3.299  0.00  0.00    -0.408 OA
ATOM     13  H   UNL     1       1.602   0.546   3.976  0.00  0.00    +0.328 HD
ENDBRANCH   8  12
ENDBRANCH   6   7
ENDBRANCH   4   6
ENDBRANCH   1   4
BRANCH   1  14
ATOM     14  C   UNL     1      -3.541  -0.564  -1.190  0.00  0.00    -0.042 C 
BRANCH  14  15
ATOM     15  C   UNL     1      -4.250  -0.123  -2.444  0.00  0.00    -0.050 A 
ATOM     16  C   UNL     1      -4.654  -1.061  -3.376  0.00  0.00    +0.005 A 
ATOM     17  C   UNL     1      -5.304  -0.658  -4.526  0.00  0.00    +0.038 A 
ATOM     18  C   UNL     1      -5.552   0.686  -4.747  0.00  0.00    +0.124 A 
ATOM     19  C   UNL     1      -5.147   1.626  -3.814  0.00  0.00    +0.053 A 
ATOM     20  C   UNL     1      -4.501   1.220  -2.661  0.00  0.00    +0.022 A 
ATOM     21 BR   UNL     1      -3.954   2.502  -1.383  0.00  0.00    -0.050 Br
ATOM     22  F   UNL     1      -6.187   1.081  -5.872  0.00  0.00    -0.205 F 
ENDBRANCH  14  15
ENDBRANCH   1  14
TORSDOF 6
