REMARK  Name = ZINC66109701
REMARK  14 active torsions:
REMARK  status: ('A' for Active; 'I' for Inactive)
REMARK    1  A    between atoms: C_1  and  C_2
REMARK    2  A    between atoms: C_2  and  C_3
REMARK    3  A    between atoms: C_3  and  C_5
REMARK    4  A    between atoms: C_3  and  N_6
REMARK    5  A    between atoms: C_7  and  C_9
REMARK    6  A    between atoms: C_12  and  N_15
REMARK    7  A    between atoms: C_16  and  C_18
REMARK    8  A    between atoms: C_18  and  N_19
REMARK    9  A    between atoms: N_19  and  C_20
REMARK   10  A    between atoms: C_20  and  C_21
REMARK   11  A    between atoms: C_24  and  O_27
REMARK   12  A    between atoms: O_27  and  C_28
REMARK   13  A    between atoms: C_28  and  C_29
REMARK   14  A    between atoms: C_28  and  C_30
REMARK                            x       y       z     vdW  Elec       q    Type
REMARK                         _______ _______ _______ _____ _____    ______ ____
ROOT
ATOM      1  N   UNL     1      -2.268   1.285  -8.187  0.00  0.00    -0.287 N 
ATOM      2  C   UNL     1      -1.660   1.542  -9.362  0.00  0.00    +0.200 C 
ATOM      3  O   UNL     1      -0.477   1.311  -9.495  0.00  0.00    -0.278 OA
ATOM      4  H   UNL     1      -3.228   1.399  -8.102  0.00  0.00    +0.155 HD
ENDROOT
BRANCH   1   8
ATOM      5  C   UNL     1      -0.028   0.002  -4.918  0.00  0.00    +0.037 A 
ATOM      6  C   UNL     1       0.524   0.900  -5.836  0.00  0.00    +0.015 A 
ATOM      7  C   UNL     1      -0.219   1.321  -6.915  0.00  0.00    +0.024 A 
ATOM      8  C   UNL     1      -1.518   0.855  -7.093  0.00  0.00    +0.033 A 
ATOM      9  C   UNL     1      -2.070  -0.038  -6.181  0.00  0.00    +0.024 A 
ATOM     10  C   UNL     1      -1.331  -0.469  -5.102  0.00  0.00    +0.015 A 
BRANCH   5  12
ATOM     11  N   UNL     1       2.022   0.003  -3.583  0.00  0.00    -0.309 N 
ATOM     12  C   UNL     1       0.766  -0.452  -3.759  0.00  0.00    +0.244 C 
ATOM     13  O   UNL     1       0.286  -1.237  -2.964  0.00  0.00    -0.270 OA
ATOM     14  H   UNL     1       2.405   0.629  -4.217  0.00  0.00    +0.149 HD
BRANCH  11  15
ATOM     15  C   UNL     1       2.810  -0.449  -2.433  0.00  0.00    +0.070 C 
ATOM     16  C   UNL     1       2.481   0.420  -1.217  0.00  0.00    +0.028 C 
BRANCH  15  18
ATOM     17  C   UNL     1       4.654  -1.292  -3.893  0.00  0.00    +0.005 C 
ATOM     18  C   UNL     1       4.300  -0.329  -2.758  0.00  0.00    +0.018 C 
ENDBRANCH  15  18
ENDBRANCH  11  15
ENDBRANCH   5  12
ENDBRANCH   1   8
BRANCH   2  19
ATOM     19  C   UNL     1      -2.450   2.116 -10.510  0.00  0.00    +0.016 C 
BRANCH  19  20
ATOM     20  N   UNL     1      -1.565   2.303 -11.668  0.00  0.00    +0.387 N 
ATOM     21  H   UNL     1      -0.819   2.936 -11.422  0.00  0.00    -0.085 HD
ATOM     22  H   UNL     1      -1.175   1.413 -11.940  0.00  0.00    -0.085 HD
BRANCH  20  23
ATOM     23  C   UNL     1      -2.335   2.862 -12.787  0.00  0.00    -0.046 C 
BRANCH  23  24
ATOM     24  C   UNL     1      -1.428   3.054 -13.975  0.00  0.00    -0.064 A 
ATOM     25  C   UNL     1      -0.750   4.247 -14.139  0.00  0.00    +0.005 A 
ATOM     26  C   UNL     1       0.082   4.426 -15.228  0.00  0.00    +0.046 A 
ATOM     27  C   UNL     1       0.237   3.406 -16.155  0.00  0.00    +0.121 A 
ATOM     28  C   UNL     1      -0.445   2.209 -15.988  0.00  0.00    +0.046 A 
ATOM     29  C   UNL     1      -1.271   2.034 -14.895  0.00  0.00    +0.005 A 
BRANCH  27  30
ATOM     30  O   UNL     1       1.054   3.579 -17.227  0.00  0.00    -0.489 OA
BRANCH  30  31
ATOM     31  C   UNL     1       1.767   4.815 -17.307  0.00  0.00    +0.167 C 
ATOM     32  C   UNL     1       3.041   4.725 -16.465  0.00  0.00    +0.051 C 
ATOM     33  C   UNL     1       2.138   5.097 -18.764  0.00  0.00    +0.051 C 
ENDBRANCH  30  31
ENDBRANCH  27  30
ENDBRANCH  23  24
ENDBRANCH  20  23
ENDBRANCH  19  20
ENDBRANCH   2  19
TORSDOF 10
