REMARK  Name = ZINC41585830
REMARK  5 active torsions:
REMARK  status: ('A' for Active; 'I' for Inactive)
REMARK    1  A    between atoms: C_1  and  C_2
REMARK    2  A    between atoms: C_4  and  O_34
REMARK    3  A    between atoms: C_5  and  C_21
REMARK    4  A    between atoms: C_11  and  C_12
REMARK    5  A    between atoms: C_21  and  N_22
REMARK                            x       y       z     vdW  Elec       q    Type
REMARK                         _______ _______ _______ _____ _____    ______ ____
ROOT
ATOM      1  C   UNL     1      -0.082   1.475   0.049  0.00  0.00    +0.045 C 
ATOM      2  C   UNL     1      -0.047  -0.032   0.025  0.00  0.00    -0.033 A 
ATOM      3  C   UNL     1      -0.024  -0.697  -1.169  0.00  0.00    +0.050 A 
ATOM      4  C   UNL     1       0.008  -2.088  -1.194  0.00  0.00    +0.125 A 
ATOM      5  C   UNL     1       0.016  -2.814  -0.013  0.00  0.00    +0.051 A 
ATOM      6  C   UNL     1      -0.007  -2.154   1.209  0.00  0.00    +0.148 A 
ATOM      7  C   UNL     1      -0.034  -0.750   1.221  0.00  0.00    +0.071 A 
ATOM      8  C   UNL     1      -0.046  -0.347   2.639  0.00  0.00    +0.232 C 
ATOM      9  O   UNL     1      -0.073   0.784   3.093  0.00  0.00    -0.283 OA
ATOM     10  C   UNL     1      -0.019  -1.615   3.383  0.00  0.00    +0.176 C 
ATOM     11  C   UNL     1      -0.019  -1.753   4.733  0.00  0.00    +0.062 C 
ATOM     12  O   UNL     1      -0.006  -2.621   2.476  0.00  0.00    -0.451 OA
ENDROOT
BRANCH  11  13
ATOM     13  C   UNL     1       0.010  -3.092   5.334  0.00  0.00    +0.032 A 
ATOM     14  C   UNL     1      -0.891  -4.077   4.906  0.00  0.00    +0.132 A 
ATOM     15  C   UNL     1      -0.855  -5.334   5.478  0.00  0.00    +0.039 A 
ATOM     16  C   UNL     1       0.066  -5.621   6.470  0.00  0.00    +0.004 A 
ATOM     17  C   UNL     1       0.959  -4.654   6.899  0.00  0.00    +0.021 A 
ATOM     18  C   UNL     1       0.943  -3.395   6.335  0.00  0.00    +0.051 A 
ATOM     19 CL   UNL     1       2.069  -2.187   6.871  0.00  0.00    -0.083 Cl
ATOM     20  F   UNL     1      -1.792  -3.798   3.939  0.00  0.00    -0.205 F 
ENDBRANCH  11  13
BRANCH   4  21
ATOM     21  O   UNL     1       0.030  -2.739  -2.384  0.00  0.00    -0.506 OA
ATOM     22  H   UNL     1       0.920  -2.908  -2.723  0.00  0.00    +0.292 HD
ENDBRANCH   4  21
BRANCH   5  23
ATOM     23  C   UNL     1       0.050  -4.320  -0.055  0.00  0.00    +0.127 C 
BRANCH  23  24
ATOM     24  N   UNL     1       1.445  -4.779  -0.060  0.00  0.00    -0.295 NA
ATOM     25  C   UNL     1       2.114  -4.442   1.204  0.00  0.00    +0.103 C 
ATOM     26  C   UNL     1       3.606  -4.772   1.092  0.00  0.00    +0.122 C 
ATOM     27  N   UNL     1       3.745  -6.174   0.669  0.00  0.00    -0.314 N 
ATOM     28  C   UNL     1       2.993  -6.622  -0.513  0.00  0.00    +0.122 C 
ATOM     29  C   UNL     1       1.525  -6.219  -0.338  0.00  0.00    +0.103 C 
ATOM     30  C   UNL     1       4.564  -7.053   1.369  0.00  0.00    +0.099 A 
ATOM     31  C   UNL     1       4.584  -8.400   1.022  0.00  0.00    +0.042 A 
ATOM     32  C   UNL     1       5.404  -9.263   1.727  0.00  0.00    +0.005 A 
ATOM     33  C   UNL     1       6.178  -8.748   2.758  0.00  0.00    +0.018 A 
ATOM     34  C   UNL     1       6.108  -7.400   3.048  0.00  0.00    +0.084 A 
ATOM     35  N   UNL     1       5.321  -6.599   2.356  0.00  0.00    -0.350 N 
ATOM     36  H   UNL     1       5.294  -5.655   2.577  0.00  0.00    +0.166 HD
ENDBRANCH  23  24
ENDBRANCH   5  23
TORSDOF 4
