REMARK  Name = ZINC24090487
REMARK  13 active torsions:
REMARK  status: ('A' for Active; 'I' for Inactive)
REMARK    1  A    between atoms: C_1  and  C_2
REMARK    2  A    between atoms: C_5  and  N_12
REMARK    3  A    between atoms: C_7  and  S_8
REMARK    4  A    between atoms: S_8  and  N_11
REMARK    5  A    between atoms: C_13  and  C_15
REMARK    6  A    between atoms: C_15  and  S_16
REMARK    7  A    between atoms: S_16  and  C_17
REMARK    8  A    between atoms: C_20  and  C_29
REMARK    9  A    between atoms: N_21  and  C_22
REMARK   10  A    between atoms: C_29  and  C_31
REMARK   11  A    between atoms: C_29  and  N_32
REMARK   12  A    between atoms: N_32  and  C_33
REMARK   13  A    between atoms: N_32  and  C_34
REMARK                            x       y       z     vdW  Elec       q    Type
REMARK                         _______ _______ _______ _____ _____    ______ ____
ROOT
ATOM      1  S   UNL     1      -6.283   2.696  -0.257  0.00  0.00    -0.076 S 
ENDROOT
BRANCH   1   2
ATOM      2  C   UNL     1      -7.649   3.805  -0.356  0.00  0.00    +0.197 A 
ATOM      3  N   UNL     1      -7.592   5.117  -0.344  0.00  0.00    -0.122 NA
ATOM      4  N   UNL     1      -8.776   5.607  -0.433  0.00  0.00    -0.135 NA
ATOM      5  C   UNL     1      -9.655   4.648  -0.507  0.00  0.00    +0.125 A 
ATOM      6  N   UNL     1      -8.968   3.463  -0.466  0.00  0.00    -0.275 N 
BRANCH   6   7
ATOM      7  C   UNL     1      -9.507   2.169  -0.522  0.00  0.00    +0.050 A 
ATOM      8  C   UNL     1     -10.158   1.736  -1.669  0.00  0.00    +0.029 A 
ATOM      9  C   UNL     1     -10.682   0.459  -1.724  0.00  0.00    +0.040 A 
ATOM     10  C   UNL     1     -10.569  -0.385  -0.632  0.00  0.00    +0.124 A 
ATOM     11  C   UNL     1      -9.925   0.048   0.515  0.00  0.00    +0.040 A 
ATOM     12  C   UNL     1      -9.395   1.322   0.572  0.00  0.00    +0.029 A 
ATOM     13  F   UNL     1     -11.088  -1.631  -0.686  0.00  0.00    -0.205 F 
ENDBRANCH   6   7
BRANCH   5  14
ATOM     14  C   UNL     1     -11.149   4.811  -0.622  0.00  0.00    -0.003 C 
ATOM     15  C   UNL     1     -11.722   5.229   0.733  0.00  0.00    -0.005 C 
BRANCH  14  16
ATOM     16  N   UNL     1     -11.453   5.844  -1.622  0.00  0.00    +0.382 N 
ATOM     17  C   UNL     1     -10.836   5.522  -2.916  0.00  0.00    -0.096 C 
ATOM     18  C   UNL     1     -12.903   6.030  -1.761  0.00  0.00    -0.096 C 
ATOM     19  H   UNL     1     -11.022   6.793  -1.269  0.00  0.00    -0.082 HD
ENDBRANCH  14  16
ENDBRANCH   5  14
ENDBRANCH   1   2
BRANCH   1  20
ATOM     20  C   UNL     1      -4.921   3.883  -0.144  0.00  0.00    +0.173 C 
BRANCH  20  22
ATOM     21  N   UNL     1      -2.456   3.823   0.046  0.00  0.00    -0.285 N 
ATOM     22  C   UNL     1      -3.614   3.140  -0.048  0.00  0.00    +0.227 C 
ATOM     23  O   UNL     1      -3.604   1.927  -0.055  0.00  0.00    -0.275 OA
ATOM     24  H   UNL     1      -2.470   4.919   0.140  0.00  0.00    +0.155 HD
BRANCH  21  29
ATOM     25  C   UNL     1       2.490   1.045  -0.039  0.00  0.00    +0.046 C 
ATOM     26  C   UNL     1       1.176   1.784  -0.017  0.00  0.00    -0.024 A 
ATOM     27  C   UNL     1       0.104   1.307  -0.750  0.00  0.00    +0.007 A 
ATOM     28  C   UNL     1      -1.099   1.984  -0.735  0.00  0.00    +0.023 A 
ATOM     29  C   UNL     1      -1.236   3.138   0.025  0.00  0.00    +0.035 A 
ATOM     30  C   UNL     1      -0.158   3.615   0.758  0.00  0.00    +0.052 A 
ATOM     31  C   UNL     1       1.045   2.936   0.736  0.00  0.00    +0.110 A 
BRANCH  31  32
ATOM     32  S   UNL     1       2.414   3.539   1.667  0.00  0.00    +0.056 S 
ATOM     33  O   UNL     1       3.530   3.553   0.786  0.00  0.00    -0.153 OA
ATOM     34  O   UNL     1       1.963   4.705   2.343  0.00  0.00    -0.153 OA
BRANCH  32  35
ATOM     35  N   UNL     1       2.747   2.413   2.834  0.00  0.00    -0.204 NA
ATOM     36  H   UNL     1       3.599   2.754   3.440  0.00  0.00    +0.144 HD
ATOM     37  H   UNL     1       2.996   1.454   2.358  0.00  0.00    +0.144 HD
ENDBRANCH  32  35
ENDBRANCH  31  32
ENDBRANCH  21  29
ENDBRANCH  20  22
ENDBRANCH   1  20
TORSDOF 9
