REMARK  Name = ZINC44779913
REMARK  11 active torsions:
REMARK  status: ('A' for Active; 'I' for Inactive)
REMARK    1  A    between atoms: C_1  and  C_2
REMARK    2  A    between atoms: C_2  and  C_3
REMARK    3  A    between atoms: C_2  and  C_4
REMARK    4  A    between atoms: C_4  and  C_6
REMARK    5  A    between atoms: C_4  and  N_10
REMARK    6  A    between atoms: C_6  and  N_7
REMARK    7  A    between atoms: N_7  and  C_8
REMARK    8  A    between atoms: N_7  and  C_9
REMARK    9  A    between atoms: C_11  and  C_13
REMARK   10  A    between atoms: C_13  and  C_20
REMARK   11  A    between atoms: C_20  and  N_22
REMARK                            x       y       z     vdW  Elec       q    Type
REMARK                         _______ _______ _______ _____ _____    ______ ____
ROOT
ATOM      1  N   UNL     1      -2.625  -0.178   0.981  0.00  0.00    -0.313 N 
ATOM      2  C   UNL     1      -2.540  -0.420   2.304  0.00  0.00    +0.225 C 
ATOM      3  O   UNL     1      -1.575  -1.001   2.753  0.00  0.00    -0.275 OA
ATOM      4  H   UNL     1      -3.358   0.351   0.630  0.00  0.00    +0.149 HD
ENDROOT
BRANCH   2   5
ATOM      5  C   UNL     1      -3.645   0.030   3.224  0.00  0.00    +0.091 C 
ATOM      6  C   UNL     1      -4.997  -0.443   2.651  0.00  0.00    +0.023 C 
ATOM      7  C   UNL     1      -4.827  -1.840   2.117  0.00  0.00    +0.001 C 
ATOM      8  C   UNL     1      -5.213  -2.917   3.149  0.00  0.00    +0.000 C 
ATOM      9  C   UNL     1      -4.713  -2.590   4.569  0.00  0.00    +0.000 C 
ATOM     10  C   UNL     1      -3.313  -2.038   4.574  0.00  0.00    +0.001 C 
ATOM     11  C   UNL     1      -3.393  -0.498   4.557  0.00  0.00    +0.023 C 
BRANCH   5  12
ATOM     12  C   UNL     1      -3.644   1.535   3.287  0.00  0.00    +0.061 C 
ATOM     13  S   UNL     1      -3.298   2.278   4.661  0.00  0.00    -0.040 S 
BRANCH  12  14
ATOM     14  N   UNL     1      -3.935   2.256   2.186  0.00  0.00    -0.355 N 
ATOM     15  H   UNL     1      -4.215   1.808   1.373  0.00  0.00    +0.143 HD
ATOM     16  H   UNL     1      -3.864   3.223   2.207  0.00  0.00    +0.143 HD
ENDBRANCH  12  14
ENDBRANCH   5  12
ENDBRANCH   2   5
BRANCH   1  17
ATOM     17  C   UNL     1      -1.609  -0.714   0.071  0.00  0.00    +0.059 C 
BRANCH  17  19
ATOM     18  C   UNL     1      -1.108   1.641  -0.596  0.00  0.00    +0.009 C 
ATOM     19  C   UNL     1      -0.498   0.322  -0.119  0.00  0.00    +0.001 C 
ATOM     20  C   UNL     1       0.225   0.544   1.210  0.00  0.00    +0.009 C 
ENDBRANCH  17  19
BRANCH  17  21
ATOM     21  C   UNL     1      -2.250  -1.029  -1.282  0.00  0.00    -0.057 C 
BRANCH  21  22
ATOM     22  N   UNL     1      -3.368  -1.962  -1.088  0.00  0.00    +0.377 N 
ATOM     23  C   UNL     1      -4.066  -2.162  -2.365  0.00  0.00    -0.097 C 
ATOM     24  C   UNL     1      -2.853  -3.250  -0.604  0.00  0.00    -0.097 C 
ATOM     25  H   UNL     1      -4.011  -1.581  -0.409  0.00  0.00    -0.083 HD
ENDBRANCH  21  22
ENDBRANCH  17  21
ENDBRANCH   1  17
TORSDOF 7
