REMARK  Name = ZINC03669535
REMARK  8 active torsions:
REMARK  status: ('A' for Active; 'I' for Inactive)
REMARK    1  A    between atoms: C_1  and  O_2
REMARK    2  A    between atoms: O_2  and  C_3
REMARK    3  A    between atoms: C_6  and  C_9
REMARK    4  A    between atoms: C_11  and  C_29
REMARK    5  A    between atoms: C_12  and  N_22
REMARK    6  A    between atoms: N_15  and  C_16
REMARK    7  A    between atoms: N_22  and  C_23
REMARK    8  A    between atoms: C_29  and  C_31
REMARK                            x       y       z     vdW  Elec       q    Type
REMARK                         _______ _______ _______ _____ _____    ______ ____
ROOT
ATOM      1  C   UNL     1       1.923   4.183  -0.287  0.00  0.00    +0.148 C 
ATOM      2  C   UNL     1       2.565   4.473   1.049  0.00  0.00    +0.051 C 
ATOM      3  C   UNL     1       2.783   5.816   1.093  0.00  0.00    +0.103 C 
ATOM      4  C   UNL     1       2.309   6.424  -0.169  0.00  0.00    +0.266 C 
ATOM      5  O   UNL     1       2.365   7.608  -0.436  0.00  0.00    -0.268 OA
ATOM      6  N   UNL     1       1.806   5.473  -0.977  0.00  0.00    -0.255 N 
ENDROOT
BRANCH   1  10
ATOM      7  C   UNL     1      -1.951   2.469   0.280  0.00  0.00    +0.120 A 
ATOM      8  C   UNL     1      -0.894   1.674  -0.140  0.00  0.00    +0.046 A 
ATOM      9  C   UNL     1       0.357   2.231  -0.324  0.00  0.00    +0.009 A 
ATOM     10  C   UNL     1       0.557   3.578  -0.085  0.00  0.00    -0.022 A 
ATOM     11  C   UNL     1      -0.493   4.371   0.339  0.00  0.00    +0.009 A 
ATOM     12  C   UNL     1      -1.746   3.819   0.524  0.00  0.00    +0.046 A 
BRANCH   7  14
ATOM     13  C   UNL     1      -4.224   2.803   0.891  0.00  0.00    +0.277 C 
ATOM     14  O   UNL     1      -3.183   1.925   0.457  0.00  0.00    -0.495 OA
ENDBRANCH   7  14
ENDBRANCH   1  10
BRANCH   6  15
ATOM     15  C   UNL     1       1.266   5.678  -2.249  0.00  0.00    +0.038 A 
ATOM     16  C   UNL     1       0.783   4.602  -2.982  0.00  0.00    +0.023 A 
ATOM     17  C   UNL     1       0.244   4.809  -4.237  0.00  0.00    +0.002 A 
ATOM     18  C   UNL     1       0.196   6.084  -4.769  0.00  0.00    +0.000 A 
ATOM     19  C   UNL     1       0.681   7.158  -4.044  0.00  0.00    +0.002 A 
ATOM     20  C   UNL     1       1.215   6.958  -2.786  0.00  0.00    +0.023 A 
ENDBRANCH   6  15
BRANCH   3  21
ATOM     21  N   UNL     1       3.355   6.498   2.142  0.00  0.00    -0.310 N 
ATOM     22  H   UNL     1       2.957   6.452   3.026  0.00  0.00    +0.152 HD
BRANCH  21  23
ATOM     23  C   UNL     1       4.509   7.257   1.936  0.00  0.00    +0.031 A 
ATOM     24  C   UNL     1       5.139   7.243   0.697  0.00  0.00    +0.023 A 
ATOM     25  C   UNL     1       6.277   7.998   0.495  0.00  0.00    +0.002 A 
ATOM     26  C   UNL     1       6.796   8.759   1.527  0.00  0.00    +0.000 A 
ATOM     27  C   UNL     1       6.175   8.771   2.762  0.00  0.00    +0.002 A 
ATOM     28  C   UNL     1       5.033   8.023   2.970  0.00  0.00    +0.023 A 
ENDBRANCH  21  23
ENDBRANCH   3  21
BRANCH   2  29
ATOM     29  C   UNL     1       2.888   3.501   2.091  0.00  0.00    +0.193 C 
ATOM     30  O   UNL     1       2.281   3.515   3.146  0.00  0.00    -0.287 OA
BRANCH  29  31
ATOM     31  C   UNL     1       3.954   2.501   1.865  0.00  0.00    +0.022 A 
ATOM     32  C   UNL     1       4.623   2.455   0.640  0.00  0.00    +0.012 A 
ATOM     33  C   UNL     1       5.619   1.522   0.437  0.00  0.00    +0.001 A 
ATOM     34  C   UNL     1       5.948   0.627   1.440  0.00  0.00    +0.000 A 
ATOM     35  C   UNL     1       5.285   0.664   2.654  0.00  0.00    +0.001 A 
ATOM     36  C   UNL     1       4.290   1.595   2.872  0.00  0.00    +0.012 A 
ENDBRANCH  29  31
ENDBRANCH   2  29
TORSDOF 7
