REMARK  Name = ZINC31809399
REMARK  4 active torsions:
REMARK  status: ('A' for Active; 'I' for Inactive)
REMARK    1  A    between atoms: C_1  and  N_2
REMARK    2  A    between atoms: C_7  and  N_22
REMARK    3  A    between atoms: C_11  and  N_21
REMARK    4  A    between atoms: C_12  and  C_14
REMARK                            x       y       z     vdW  Elec       q    Type
REMARK                         _______ _______ _______ _____ _____    ______ ____
ROOT
ATOM      1  C   UNL     1       2.074  -6.319  -0.049  0.00  0.00    +0.105 C 
ATOM      2  N   UNL     1       1.844  -4.879   0.130  0.00  0.00    -0.301 NA
ATOM      3  C   UNL     1       0.665  -4.435  -0.631  0.00  0.00    +0.089 C 
ATOM      4  C   UNL     1       0.270  -3.041  -0.141  0.00  0.00    +0.051 C 
ATOM      5  C   UNL     1       1.478  -2.143  -0.123  0.00  0.00    -0.027 A 
ATOM      6  C   UNL     1       2.744  -2.628  -0.171  0.00  0.00    +0.009 A 
ATOM      7  C   UNL     1       3.833  -1.745  -0.137  0.00  0.00    +0.104 A 
ATOM      8  N   UNL     1       3.639  -0.439  -0.062  0.00  0.00    -0.337 N 
ATOM      9  C   UNL     1       2.426   0.069  -0.018  0.00  0.00    +0.089 A 
ATOM     10  C   UNL     1       1.268  -0.739  -0.046  0.00  0.00    +0.031 A 
ATOM     11  C   UNL     1       0.008  -0.015   0.008  0.00  0.00    +0.054 A 
ATOM     12  C   UNL     1       0.047   1.361   0.082  0.00  0.00    +0.097 A 
ATOM     13  S   UNL     1       1.792   1.725   0.080  0.00  0.00    -0.064 S 
ATOM     14  C   UNL     1       3.025  -4.105  -0.266  0.00  0.00    +0.123 C 
ATOM     15  H   UNL     1       4.501   0.244  -0.035  0.00  0.00    +0.168 HD
ENDROOT
BRANCH  12  16
ATOM     16  C   UNL     1      -1.038   2.268   0.140  0.00  0.00    +0.255 C 
ATOM     17  O   UNL     1      -2.182   1.850   0.127  0.00  0.00    -0.269 OA
ATOM     18  N   UNL     1      -0.805   3.594   0.210  0.00  0.00    -0.297 N 
ATOM     19  C   UNL     1       0.519   4.231   0.240  0.00  0.00    +0.108 C 
ATOM     20  C   UNL     1       0.293   5.754   0.347  0.00  0.00    +0.020 C 
ATOM     21  C   UNL     1      -1.134   5.850   0.949  0.00  0.00    +0.020 C 
ATOM     22  C   UNL     1      -1.837   4.645   0.275  0.00  0.00    +0.108 C 
ENDBRANCH  12  16
BRANCH   7  23
ATOM     23  N   UNL     1       5.125  -2.247  -0.182  0.00  0.00    -0.312 N 
ATOM     24  C   UNL     1       5.826  -2.013   1.089  0.00  0.00    +0.134 C 
ATOM     25  C   UNL     1       7.224  -2.633   1.016  0.00  0.00    +0.178 C 
ATOM     26  O   UNL     1       7.927  -2.080  -0.100  0.00  0.00    -0.377 OA
ATOM     27  C   UNL     1       7.273  -2.291  -1.354  0.00  0.00    +0.178 C 
ATOM     28  C   UNL     1       5.876  -1.667  -1.306  0.00  0.00    +0.134 C 
ENDBRANCH   7  23
BRANCH  11  29
ATOM     29  N   UNL     1      -1.203  -0.692  -0.014  0.00  0.00    -0.356 N 
ATOM     30  H   UNL     1      -2.148  -0.131   0.028  0.00  0.00    +0.142 HD
ATOM     31  H   UNL     1      -1.218  -1.790  -0.074  0.00  0.00    +0.142 HD
ENDBRANCH  11  29
TORSDOF 3
