REMARK  Name = ZINC20680441
REMARK  10 active torsions:
REMARK  status: ('A' for Active; 'I' for Inactive)
REMARK    1  A    between atoms: C_1  and  C_2
REMARK    2  A    between atoms: C_2  and  N_3
REMARK    3  A    between atoms: N_3  and  C_4
REMARK    4  A    between atoms: N_3  and  C_6
REMARK    5  A    between atoms: C_4  and  C_5
REMARK    6  A    between atoms: C_6  and  C_7
REMARK    7  A    between atoms: C_7  and  N_8
REMARK    8  A    between atoms: C_9  and  C_11
REMARK    9  A    between atoms: C_24  and  C_27
REMARK   10  A    between atoms: C_30  and  O_33
REMARK                            x       y       z     vdW  Elec       q    Type
REMARK                         _______ _______ _______ _____ _____    ______ ____
ROOT
ATOM      1  C   UNL     1      -3.763   4.170  -2.865  0.00  0.00    +0.037 A 
ATOM      2  C   UNL     1      -3.041   5.249  -3.384  0.00  0.00    +0.015 A 
ATOM      3  C   UNL     1      -1.677   5.159  -3.526  0.00  0.00    +0.024 A 
ATOM      4  C   UNL     1      -1.003   3.996  -3.159  0.00  0.00    +0.031 A 
ATOM      5  C   UNL     1      -1.728   2.917  -2.631  0.00  0.00    -0.019 A 
ATOM      6  C   UNL     1      -3.091   3.004  -2.491  0.00  0.00    +0.019 A 
ATOM      7  C   UNL     1      -0.967   1.711  -2.238  0.00  0.00    +0.049 C 
ATOM      8  C   UNL     1      -1.600   0.367  -2.247  0.00  0.00    -0.023 C 
ATOM      9  C   UNL     1      -0.673  -0.537  -2.537  0.00  0.00    -0.030 C 
ATOM     10  C   UNL     1       0.669   0.153  -2.791  0.00  0.00    +0.033 C 
ATOM     11  C   UNL     1       0.217   1.549  -3.239  0.00  0.00    +0.029 C 
ATOM     12  C   UNL     1       1.153   2.708  -2.948  0.00  0.00    +0.105 C 
ATOM     13  N   UNL     1       0.379   3.929  -3.336  0.00  0.00    -0.336 N 
ATOM     14  H   UNL     1       0.899   4.795  -3.769  0.00  0.00    +0.147 HD
ENDROOT
BRANCH  12  15
ATOM     15  C   UNL     1       2.398   2.596  -3.789  0.00  0.00    -0.027 A 
ATOM     16  C   UNL     1       2.376   2.995  -5.112  0.00  0.00    +0.009 A 
ATOM     17  C   UNL     1       3.518   2.898  -5.883  0.00  0.00    +0.046 A 
ATOM     18  C   UNL     1       4.685   2.389  -5.332  0.00  0.00    +0.117 A 
ATOM     19  C   UNL     1       4.703   1.983  -4.006  0.00  0.00    +0.046 A 
ATOM     20  C   UNL     1       3.560   2.088  -3.237  0.00  0.00    +0.009 A 
BRANCH  18  21
ATOM     21  O   UNL     1       5.808   2.286  -6.090  0.00  0.00    -0.507 OA
ATOM     22  H   UNL     1       6.732   1.882  -5.652  0.00  0.00    +0.292 HD
ENDBRANCH  18  21
ENDBRANCH  12  15
BRANCH   1  24
ATOM     23  N   UNL     1      -5.873   5.389  -3.077  0.00  0.00    -0.313 N 
ATOM     24  C   UNL     1      -5.228   4.262  -2.715  0.00  0.00    +0.244 C 
ATOM     25  O   UNL     1      -5.853   3.322  -2.264  0.00  0.00    -0.270 OA
ATOM     26  H   UNL     1      -5.308   6.239  -3.485  0.00  0.00    +0.149 HD
BRANCH  23  27
ATOM     27  C   UNL     1      -7.328   5.480  -2.928  0.00  0.00    +0.086 C 
BRANCH  27  28
ATOM     28  C   UNL     1      -7.804   6.852  -3.409  0.00  0.00    -0.060 C 
BRANCH  28  29
ATOM     29  N   UNL     1      -9.263   6.944  -3.259  0.00  0.00    +0.380 N 
ATOM     30  H   UNL     1      -9.709   6.065  -3.748  0.00  0.00    -0.082 HD
BRANCH  29  32
ATOM     31  C   UNL     1      -9.026   8.112  -1.120  0.00  0.00    -0.017 C 
ATOM     32  C   UNL     1      -9.649   6.916  -1.842  0.00  0.00    -0.082 C 
ENDBRANCH  29  32
BRANCH  29  33
ATOM     33  C   UNL     1      -9.786   8.145  -3.924  0.00  0.00    -0.082 C 
ATOM     34  C   UNL     1     -11.301   8.015  -4.092  0.00  0.00    -0.017 C 
ENDBRANCH  29  33
ENDBRANCH  28  29
ENDBRANCH  27  28
ENDBRANCH  23  27
ENDBRANCH   1  24
TORSDOF 8
