REMARK  Name = ZINC25940244
REMARK  18 active torsions:
REMARK  status: ('A' for Active; 'I' for Inactive)
REMARK    1  A    between atoms: C_1  and  N_2
REMARK    2  A    between atoms: N_2  and  C_3
REMARK    3  A    between atoms: N_2  and  C_4
REMARK    4  A    between atoms: C_4  and  C_5
REMARK    5  A    between atoms: C_5  and  C_7
REMARK    6  A    between atoms: C_5  and  O_33
REMARK    7  A    between atoms: C_7  and  O_8
REMARK    8  A    between atoms: O_8  and  C_9
REMARK    9  A    between atoms: C_12  and  S_15
REMARK   10  A    between atoms: S_15  and  C_18
REMARK   11  A    between atoms: C_21  and  O_24
REMARK   12  A    between atoms: O_24  and  C_25
REMARK   13  A    between atoms: C_25  and  C_26
REMARK   14  A    between atoms: C_26  and  C_28
REMARK   15  A    between atoms: C_26  and  O_32
REMARK   16  A    between atoms: C_28  and  N_29
REMARK   17  A    between atoms: N_29  and  C_30
REMARK   18  A    between atoms: N_29  and  C_31
REMARK                            x       y       z     vdW  Elec       q    Type
REMARK                         _______ _______ _______ _____ _____    ______ ____
ROOT
ATOM      1  S   UNL     1       1.505   0.036  -6.390  0.00  0.00    +0.025 S 
ATOM      2  O   UNL     1       2.259  -1.151  -6.184  0.00  0.00    -0.164 OA
ATOM      3  O   UNL     1       0.431   0.104  -7.319  0.00  0.00    -0.164 OA
ENDROOT
BRANCH   1   7
ATOM      4  C   UNL     1      -0.194   1.208  -2.359  0.00  0.00    +0.121 A 
ATOM      5  C   UNL     1       0.951   0.428  -2.431  0.00  0.00    +0.047 A 
ATOM      6  C   UNL     1       1.464   0.067  -3.662  0.00  0.00    +0.031 A 
ATOM      7  C   UNL     1       0.844   0.492  -4.822  0.00  0.00    +0.094 A 
ATOM      8  C   UNL     1      -0.294   1.274  -4.753  0.00  0.00    +0.031 A 
ATOM      9  C   UNL     1      -0.815   1.633  -3.525  0.00  0.00    +0.047 A 
BRANCH   4  10
ATOM     10  O   UNL     1      -0.704   1.559  -1.150  0.00  0.00    -0.489 OA
BRANCH  10  11
ATOM     11  C   UNL     1      -0.013   1.086   0.008  0.00  0.00    +0.258 C 
BRANCH  11  12
ATOM     12  C   UNL     1      -0.729   1.579   1.267  0.00  0.00    +0.135 C 
BRANCH  12  13
ATOM     13  O   UNL     1      -0.647   3.004   1.334  0.00  0.00    -0.390 OA
ATOM     14  H   UNL     1      -1.074   3.618   0.527  0.00  0.00    +0.210 HD
ENDBRANCH  12  13
BRANCH  12  15
ATOM     15  C   UNL     1      -0.064   0.971   2.503  0.00  0.00    -0.045 C 
BRANCH  15  17
ATOM     16  C   UNL     1      -2.161   0.741   3.692  0.00  0.00    -0.096 C 
ATOM     17  N   UNL     1      -0.823   1.348   3.703  0.00  0.00    +0.378 N 
ATOM     18  C   UNL     1      -0.091   0.987   4.924  0.00  0.00    -0.096 C 
ATOM     19  H   UNL     1      -0.948   2.441   3.695  0.00  0.00    -0.083 HD
ENDBRANCH  15  17
ENDBRANCH  12  15
ENDBRANCH  11  12
ENDBRANCH  10  11
ENDBRANCH   4  10
ENDBRANCH   1   7
BRANCH   1  20
ATOM     20  C   UNL     1       2.653   1.288  -6.856  0.00  0.00    +0.094 A 
ATOM     21  C   UNL     1       2.225   2.380  -7.589  0.00  0.00    +0.031 A 
ATOM     22  C   UNL     1       3.122   3.366  -7.950  0.00  0.00    +0.047 A 
ATOM     23  C   UNL     1       4.456   3.255  -7.586  0.00  0.00    +0.121 A 
ATOM     24  C   UNL     1       4.885   2.156  -6.856  0.00  0.00    +0.047 A 
ATOM     25  C   UNL     1       3.982   1.176  -6.492  0.00  0.00    +0.031 A 
BRANCH  23  26
ATOM     26  O   UNL     1       5.342   4.221  -7.945  0.00  0.00    -0.489 OA
BRANCH  26  27
ATOM     27  C   UNL     1       4.830   5.324  -8.697  0.00  0.00    +0.258 C 
BRANCH  27  28
ATOM     28  C   UNL     1       5.966   6.301  -9.005  0.00  0.00    +0.135 C 
BRANCH  28  29
ATOM     29  O   UNL     1       6.919   5.669  -9.863  0.00  0.00    -0.390 OA
ATOM     30  H   UNL     1       7.811   6.220 -10.194  0.00  0.00    +0.210 HD
ENDBRANCH  28  29
BRANCH  28  31
ATOM     31  C   UNL     1       5.398   7.540  -9.701  0.00  0.00    -0.045 C 
BRANCH  31  32
ATOM     32  N   UNL     1       6.488   8.479  -9.997  0.00  0.00    +0.378 N 
ATOM     33  C   UNL     1       6.025   9.566 -10.870  0.00  0.00    -0.096 C 
ATOM     34  C   UNL     1       7.076   9.011  -8.760  0.00  0.00    -0.096 C 
ATOM     35  H   UNL     1       7.274   7.926 -10.534  0.00  0.00    -0.083 HD
ENDBRANCH  31  32
ENDBRANCH  28  31
ENDBRANCH  27  28
ENDBRANCH  26  27
ENDBRANCH  23  26
ENDBRANCH   1  20
TORSDOF 14
