REMARK  Name = ZINC38688823
REMARK  7 active torsions:
REMARK  status: ('A' for Active; 'I' for Inactive)
REMARK    1  A    between atoms: C_1  and  C_2
REMARK    2  A    between atoms: C_5  and  S_8
REMARK    3  A    between atoms: S_8  and  C_9
REMARK    4  A    between atoms: C_9  and  C_10
REMARK    5  A    between atoms: C_12  and  C_23
REMARK    6  A    between atoms: N_25  and  N_26
REMARK    7  A    between atoms: C_27  and  C_28
REMARK                            x       y       z     vdW  Elec       q    Type
REMARK                         _______ _______ _______ _____ _____    ______ ____
ROOT
ATOM      1  C   UNL     1       0.095  -6.502   1.873  0.00  0.00    +0.147 C 
ATOM      2  C   UNL     1       0.166  -6.919   3.357  0.00  0.00    +0.239 C 
ATOM      3  N   UNL     1      -1.072  -7.679   3.571  0.00  0.00    -0.156 NA
ATOM      4  N   UNL     1      -1.742  -7.738   2.545  0.00  0.00    -0.077 NA
ATOM      5  N   UNL     1      -1.186  -7.088   1.437  0.00  0.00    -0.177 N 
ATOM      6  C   UNL     1      -1.738  -7.006   0.160  0.00  0.00    +0.228 A 
ATOM      7  C   UNL     1      -3.063  -7.496  -0.235  0.00  0.00    +0.204 A 
ATOM      8  N   UNL     1      -3.230  -7.245  -1.504  0.00  0.00    -0.032 NA
ATOM      9  O   UNL     1      -2.061  -6.602  -1.978  0.00  0.00    -0.239 OA
ATOM     10  N   UNL     1      -1.167  -6.477  -0.886  0.00  0.00    -0.030 NA
ATOM     11  N   UNL     1      -3.983  -8.120   0.599  0.00  0.00    -0.338 N 
ATOM     12  H   UNL     1      -3.769  -8.265   1.534  0.00  0.00    +0.144 HD
ATOM     13  H   UNL     1      -4.838  -8.411   0.247  0.00  0.00    +0.144 HD
ENDROOT
BRANCH   2  14
ATOM     14  C   UNL     1       1.373  -7.788   3.604  0.00  0.00    +0.261 C 
ATOM     15  O   UNL     1       1.249  -8.993   3.670  0.00  0.00    -0.272 OA
ATOM     16  N   UNL     1       2.589  -7.227   3.752  0.00  0.00    -0.205 N 
ATOM     17  H   UNL     1       2.688  -6.263   3.700  0.00  0.00    +0.177 HD
BRANCH  16  18
ATOM     18  N   UNL     1       3.710  -8.034   3.982  0.00  0.00    -0.188 NA
ATOM     19  C   UNL     1       4.892  -7.489   4.126  0.00  0.00    +0.136 C 
BRANCH  19  20
ATOM     20  C   UNL     1       6.014  -8.297   4.356  0.00  0.00    +0.000 C 
ATOM     21  C   UNL     1       7.330  -7.879   4.535  0.00  0.00    +0.004 A 
ATOM     22  C   UNL     1       7.933  -6.602   4.545  0.00  0.00    +0.010 A 
ATOM     23  C   UNL     1       9.270  -6.490   4.748  0.00  0.00    +0.001 A 
ATOM     24  C   UNL     1      10.077  -7.614   4.949  0.00  0.00    +0.002 A 
ATOM     25  C   UNL     1       9.568  -8.869   4.952  0.00  0.00    +0.026 A 
ATOM     26  C   UNL     1       8.176  -9.067   4.747  0.00  0.00    +0.043 A 
ATOM     27  N   UNL     1       7.449 -10.163   4.705  0.00  0.00    -0.380 N 
ATOM     28  C   UNL     1       6.047  -9.806   4.468  0.00  0.00    +0.150 C 
ATOM     29  H   UNL     1       7.787 -11.066   4.817  0.00  0.00    +0.160 HD
ENDBRANCH  19  20
ENDBRANCH  16  18
ENDBRANCH   2  14
BRANCH   1  30
ATOM     30  C   UNL     1       0.070  -4.978   1.738  0.00  0.00    +0.101 C 
BRANCH  30  31
ATOM     31  S   UNL     1      -1.237  -4.298   2.796  0.00  0.00    -0.123 S 
BRANCH  31  36
ATOM     32  C   UNL     1      -0.896   1.660   1.891  0.00  0.00    +0.044 C 
ATOM     33  C   UNL     1      -0.982   0.173   2.116  0.00  0.00    -0.050 A 
ATOM     34  C   UNL     1      -1.928  -0.340   2.985  0.00  0.00    +0.004 A 
ATOM     35  C   UNL     1      -2.009  -1.702   3.194  0.00  0.00    +0.015 A 
ATOM     36  C   UNL     1      -1.138  -2.559   2.531  0.00  0.00    +0.008 A 
ATOM     37  C   UNL     1      -0.188  -2.040   1.659  0.00  0.00    +0.015 A 
ATOM     38  C   UNL     1      -0.117  -0.677   1.450  0.00  0.00    +0.004 A 
ENDBRANCH  31  36
ENDBRANCH  30  31
ENDBRANCH   1  30
TORSDOF 6
