REMARK  Name = ZINC63279902
REMARK  7 active torsions:
REMARK  status: ('A' for Active; 'I' for Inactive)
REMARK    1  A    between atoms: C_4  and  S_7
REMARK    2  A    between atoms: S_7  and  N_10
REMARK    3  A    between atoms: N_10  and  C_11
REMARK    4  A    between atoms: C_17  and  C_21
REMARK    5  A    between atoms: N_23  and  C_24
REMARK    6  A    between atoms: C_24  and  C_25
REMARK    7  A    between atoms: C_25  and  C_26
REMARK                            x       y       z     vdW  Elec       q    Type
REMARK                         _______ _______ _______ _____ _____    ______ ____
ROOT
ATOM      1  C   UNL     1       3.567  -1.942   2.398  0.00  0.00    +0.224 C 
ATOM      2  N   UNL     1       3.710  -1.563   3.810  0.00  0.00    -0.318 N 
ATOM      3  C   UNL     1       4.246  -2.502   4.680  0.00  0.00    +0.043 A 
ATOM      4  C   UNL     1       4.454  -2.312   6.061  0.00  0.00    +0.025 A 
ATOM      5  C   UNL     1       4.990  -3.299   6.845  0.00  0.00    +0.015 A 
ATOM      6  C   UNL     1       5.349  -4.535   6.300  0.00  0.00    +0.038 A 
ATOM      7  C   UNL     1       5.152  -4.747   4.930  0.00  0.00    +0.029 A 
ATOM      8  C   UNL     1       4.614  -3.749   4.157  0.00  0.00    +0.033 A 
ATOM      9  S   UNL     1       4.225  -3.658   2.422  0.00  0.00    -0.084 S 
ATOM     10  H   UNL     1       3.440  -0.685   4.124  0.00  0.00    +0.148 HD
ENDROOT
BRANCH   6  11
ATOM     11  C   UNL     1       5.925  -5.593   7.150  0.00  0.00    +0.244 C 
ATOM     12  O   UNL     1       6.234  -6.664   6.663  0.00  0.00    -0.270 OA
ATOM     13  N   UNL     1       6.110  -5.374   8.467  0.00  0.00    -0.311 N 
ATOM     14  H   UNL     1       5.864  -4.520   8.856  0.00  0.00    +0.149 HD
BRANCH  13  15
ATOM     15  C   UNL     1       6.682  -6.426   9.312  0.00  0.00    +0.109 C 
BRANCH  15  16
ATOM     16  C   UNL     1       6.785  -5.923  10.753  0.00  0.00    +0.052 C 
BRANCH  16  17
ATOM     17  C   UNL     1       7.373  -7.005  11.622  0.00  0.00    -0.040 C 
ATOM     18  C   UNL     1       8.672  -7.152  11.969  0.00  0.00    +0.002 A 
ATOM     19  C   UNL     1       9.879  -6.379  11.652  0.00  0.00    +0.048 A 
ATOM     20  C   UNL     1      11.069  -6.783  12.158  0.00  0.00    +0.124 A 
ATOM     21  C   UNL     1      11.175  -7.919  12.975  0.00  0.00    +0.040 A 
ATOM     22  C   UNL     1      10.111  -8.679  13.308  0.00  0.00    +0.029 A 
ATOM     23  C   UNL     1       8.812  -8.346  12.832  0.00  0.00    +0.043 A 
ATOM     24  N   UNL     1       7.645  -8.915  13.012  0.00  0.00    -0.380 N 
ATOM     25  C   UNL     1       6.630  -8.141  12.288  0.00  0.00    +0.144 C 
ATOM     26  F   UNL     1      12.182  -6.074  11.868  0.00  0.00    -0.205 F 
ATOM     27  H   UNL     1       7.479  -9.712  13.539  0.00  0.00    +0.160 HD
ENDBRANCH  16  17
ENDBRANCH  15  16
ENDBRANCH  13  15
ENDBRANCH   6  11
BRANCH   1  28
ATOM     28  N   UNL     1       4.378  -1.079   1.536  0.00  0.00    -0.160 NA
ATOM     29  H   UNL     1       5.174  -0.651   1.888  0.00  0.00    +0.151 HD
BRANCH  28  30
ATOM     30  S   UNL     1       3.934  -0.832  -0.041  0.00  0.00    +0.061 S 
ATOM     31  O   UNL     1       3.674  -2.114  -0.595  0.00  0.00    -0.153 OA
ATOM     32  O   UNL     1       4.890   0.060  -0.597  0.00  0.00    -0.153 OA
BRANCH  30  36
ATOM     33  C   UNL     1      -0.017   1.378   0.010  0.00  0.00    +0.000 A 
ATOM     34  C   UNL     1       1.171   2.086   0.002  0.00  0.00    +0.002 A 
ATOM     35  C   UNL     1       2.377   1.411  -0.013  0.00  0.00    +0.028 A 
ATOM     36  C   UNL     1       2.396   0.029  -0.020  0.00  0.00    +0.105 A 
ATOM     37  C   UNL     1       1.208  -0.679  -0.012  0.00  0.00    +0.028 A 
ATOM     38  C   UNL     1       0.002  -0.004   0.002  0.00  0.00    +0.002 A 
ENDBRANCH  30  36
ENDBRANCH  28  30
ENDBRANCH   1  28
TORSDOF 7
