REMARK  Name = ZINC09953769
REMARK  10 active torsions:
REMARK  status: ('A' for Active; 'I' for Inactive)
REMARK    1  A    between atoms: C_1  and  C_2
REMARK    2  A    between atoms: C_2  and  C_3
REMARK    3  A    between atoms: C_3  and  C_4
REMARK    4  A    between atoms: C_4  and  N_5
REMARK    5  A    between atoms: C_6  and  N_36
REMARK    6  A    between atoms: C_7  and  N_14
REMARK    7  A    between atoms: N_14  and  C_15
REMARK    8  A    between atoms: C_20  and  C_22
REMARK    9  A    between atoms: C_22  and  N_69
REMARK   10  A    between atoms: C_31  and  C_33
REMARK                            x       y       z     vdW  Elec       q    Type
REMARK                         _______ _______ _______ _____ _____    ______ ____
ROOT
ATOM      1  N   UNL     1       1.226   1.608  -0.185  0.00  0.00    -0.263 N 
ATOM      2  C   UNL     1       1.056   0.270  -0.206  0.00  0.00    +0.204 C 
ATOM      3  O   UNL     1       2.016  -0.462  -0.334  0.00  0.00    -0.277 OA
ENDROOT
BRANCH   1   6
ATOM      4  N   UNL     1      -1.743   3.411   1.014  0.00  0.00    -0.280 N 
ATOM      5  C   UNL     1      -0.654   2.571   1.004  0.00  0.00    +0.127 A 
ATOM      6  C   UNL     1       0.103   2.462  -0.144  0.00  0.00    +0.140 A 
ATOM      7  C   UNL     1      -0.260   3.221  -1.272  0.00  0.00    +0.277 A 
ATOM      8  O   UNL     1       0.395   3.147  -2.298  0.00  0.00    -0.266 OA
ATOM      9  N   UNL     1      -1.339   4.026  -1.212  0.00  0.00    -0.273 N 
ATOM     10  H   UNL     1      -1.603   4.560  -2.015  0.00  0.00    +0.173 HD
ATOM     11  C   UNL     1      -2.065   4.119  -0.084  0.00  0.00    +0.331 A 
ATOM     12  O   UNL     1      -3.032   4.856  -0.056  0.00  0.00    -0.246 OA
BRANCH   5  13
ATOM     13  N   UNL     1      -0.324   1.848   2.126  0.00  0.00    -0.343 N 
ATOM     14  H   UNL     1       0.490   1.321   2.141  0.00  0.00    +0.144 HD
ATOM     15  H   UNL     1      -0.905   1.865   2.902  0.00  0.00    +0.144 HD
ENDBRANCH   5  13
BRANCH   4  16
ATOM     16  C   UNL     1      -2.555   3.537   2.226  0.00  0.00    +0.128 C 
BRANCH  16  17
ATOM     17  C   UNL     1      -1.998   4.663   3.099  0.00  0.00    +0.021 C 
BRANCH  17  19
ATOM     18  C   UNL     1      -2.290   5.921   5.238  0.00  0.00    +0.004 C 
ATOM     19  C   UNL     1      -2.847   4.795   4.365  0.00  0.00    -0.002 C 
ENDBRANCH  17  19
ENDBRANCH  16  17
ENDBRANCH   4  16
ENDBRANCH   1   6
BRANCH   1  20
ATOM     20  C   UNL     1       2.577   2.175  -0.209  0.00  0.00    +0.082 C 
ATOM     21  C   UNL     1       3.293   1.779  -1.517  0.00  0.00    +0.023 C 
ATOM     22  C   UNL     1       4.762   1.541  -1.089  0.00  0.00    +0.002 C 
ATOM     23  C   UNL     1       4.609   0.865   0.296  0.00  0.00    +0.002 C 
ATOM     24  C   UNL     1       3.414   1.594   0.944  0.00  0.00    +0.023 C 
ENDBRANCH   1  20
BRANCH   2  25
ATOM     25  C   UNL     1      -0.326  -0.316  -0.073  0.00  0.00    +0.021 C 
BRANCH  25  35
ATOM     26  C   UNL     1       0.494  -2.407   0.827  0.00  0.00    -0.041 C 
ATOM     27  C   UNL     1       0.639  -3.885   0.574  0.00  0.00    -0.061 A 
ATOM     28  C   UNL     1       0.986  -4.706   1.637  0.00  0.00    +0.002 A 
ATOM     29  C   UNL     1       1.133  -6.065   1.450  0.00  0.00    +0.000 A 
ATOM     30  C   UNL     1       0.934  -6.613   0.197  0.00  0.00    +0.000 A 
ATOM     31  C   UNL     1       0.587  -5.798  -0.862  0.00  0.00    +0.004 A 
ATOM     32  C   UNL     1       0.437  -4.432  -0.675  0.00  0.00    -0.047 A 
ATOM     33  C   UNL     1       0.049  -3.583  -1.858  0.00  0.00    +0.029 C 
ATOM     34  C   UNL     1       0.337  -2.111  -1.560  0.00  0.00    +0.024 C 
ATOM     35  N   UNL     1      -0.281  -1.784  -0.260  0.00  0.00    +0.396 N 
ATOM     36  H   UNL     1      -1.239  -2.152  -0.242  0.00  0.00    -0.080 HD
BRANCH  34  37
ATOM     37  C   UNL     1      -0.271  -1.249  -2.636  0.00  0.00    +0.197 C 
ATOM     38  O   UNL     1      -1.422  -0.879  -2.539  0.00  0.00    -0.278 OA
ATOM     39  N   UNL     1       0.465  -0.888  -3.707  0.00  0.00    -0.331 N 
ATOM     40  H   UNL     1       1.386  -1.184  -3.784  0.00  0.00    +0.145 HD
ATOM     41  H   UNL     1       0.074  -0.333  -4.399  0.00  0.00    +0.145 HD
ENDBRANCH  34  37
ENDBRANCH  25  35
ENDBRANCH   2  25
TORSDOF 9
