REMARK  Name = ZINC51644627
REMARK  5 active torsions:
REMARK  status: ('A' for Active; 'I' for Inactive)
REMARK    1  A    between atoms: C_3  and  O_9
REMARK    2  A    between atoms: C_6  and  C_7
REMARK    3  A    between atoms: O_9  and  C_10
REMARK    4  A    between atoms: C_13  and  N_16
REMARK    5  A    between atoms: C_23  and  C_26
REMARK                            x       y       z     vdW  Elec       q    Type
REMARK                         _______ _______ _______ _____ _____    ______ ____
ROOT
ATOM      1  C   UNL     1       4.718   1.399   0.086  0.00  0.00    +0.129 A 
ATOM      2  C   UNL     1       4.763   0.048   0.398  0.00  0.00    +0.048 A 
ATOM      3  C   UNL     1       5.934  -0.663   0.222  0.00  0.00    +0.027 A 
ATOM      4  C   UNL     1       7.066  -0.025  -0.268  0.00  0.00    +0.035 A 
ATOM      5  C   UNL     1       7.019   1.327  -0.580  0.00  0.00    +0.027 A 
ATOM      6  C   UNL     1       5.847   2.036  -0.408  0.00  0.00    +0.048 A 
ENDROOT
BRANCH   4   7
ATOM      7  N   UNL     1       8.254  -0.745  -0.447  0.00  0.00    -0.269 N 
ATOM      8  C   UNL     1       9.441  -0.108  -0.406  0.00  0.00    +0.307 C 
ATOM      9  O   UNL     1       9.478   1.107  -0.354  0.00  0.00    -0.252 OA
ATOM     10  N   UNL     1      10.588  -0.816  -0.423  0.00  0.00    -0.280 N 
ATOM     11  C   UNL     1      10.577  -2.268  -0.665  0.00  0.00    +0.137 C 
ATOM     12  C   UNL     1      11.592  -2.580  -1.771  0.00  0.00    +0.180 C 
ATOM     13  O   UNL     1      12.854  -2.003  -1.429  0.00  0.00    -0.364 OA
ATOM     14  C   UNL     1      12.837  -0.577  -1.329  0.00  0.00    +0.221 C 
ATOM     15  C   UNL     1      11.887  -0.160  -0.206  0.00  0.00    +0.150 C 
ATOM     16  H   UNL     1       8.223  -1.702  -0.600  0.00  0.00    +0.156 HD
BRANCH  14  17
ATOM     17  C   UNL     1      14.226  -0.077  -1.028  0.00  0.00    +0.241 C 
ATOM     18  O   UNL     1      15.123  -0.866  -0.821  0.00  0.00    -0.273 OA
ATOM     19  N   UNL     1      14.472   1.248  -0.989  0.00  0.00    -0.327 N 
ATOM     20  H   UNL     1      13.755   1.879  -1.154  0.00  0.00    +0.145 HD
ATOM     21  H   UNL     1      15.366   1.570  -0.795  0.00  0.00    +0.145 HD
ENDBRANCH  14  17
ENDBRANCH   4   7
BRANCH   1  22
ATOM     22  O   UNL     1       3.565   2.098   0.260  0.00  0.00    -0.456 OA
BRANCH  22  25
ATOM     23  C   UNL     1       3.559   5.730   0.130  0.00  0.00    +0.022 A 
ATOM     24  C   UNL     1       3.619   4.447   0.626  0.00  0.00    +0.047 A 
ATOM     25  C   UNL     1       3.504   3.361  -0.233  0.00  0.00    +0.129 A 
ATOM     26  C   UNL     1       3.328   3.565  -1.597  0.00  0.00    +0.047 A 
ATOM     27  C   UNL     1       3.267   4.844  -2.102  0.00  0.00    +0.022 A 
ATOM     28  C   UNL     1       3.382   5.939  -1.241  0.00  0.00    +0.052 A 
BRANCH  28  29
ATOM     29  C   UNL     1       3.318   7.272  -1.761  0.00  0.00    +0.099 C 
ATOM     30  N   UNL     1       3.267   8.329  -2.174  0.00  0.00    -0.191 NA
ENDBRANCH  28  29
ENDBRANCH  22  25
ENDBRANCH   1  22
TORSDOF 5
