REMARK  Name = ZINC40776837
REMARK  13 active torsions:
REMARK  status: ('A' for Active; 'I' for Inactive)
REMARK    1  A    between atoms: CD1_1  and  CG_2
REMARK    2  A    between atoms: CG_2  and  CD2_3
REMARK    3  A    between atoms: CG_2  and  CB_4
REMARK    4  A    between atoms: CB_4  and  CA_5
REMARK    5  A    between atoms: CA_5  and  C_7
REMARK    6  A    between atoms: CA_5  and  N_9
REMARK    7  A    between atoms: C_7  and  O_8
REMARK    8  A    between atoms: N_9  and  C_10
REMARK    9  A    between atoms: C_10  and  C_11
REMARK   10  A    between atoms: C_11  and  C_13
REMARK   11  A    between atoms: C_11  and  O_23
REMARK   12  A    between atoms: C_13  and  O_14
REMARK   13  A    between atoms: O_14  and  C_15
REMARK                            x       y       z     vdW  Elec       q    Type
REMARK                         _______ _______ _______ _____ _____    ______ ____
ROOT
ATOM      1  C   UNK A   0      -0.424  -4.539   2.626  0.00  0.00    +0.135 C 
ENDROOT
BRANCH   1   2
ATOM      2  O   UNK A   0       0.903  -4.062   2.853  0.00  0.00    -0.390 OA
ATOM      3  H   UNK A   0       1.542  -4.339   2.182  0.00  0.00    +0.210 HD
ENDBRANCH   1   2
BRANCH   1   4
ATOM      4  C   UNK A   0      -0.930  -4.016   1.279  0.00  0.00    -0.047 C 
BRANCH   4   5
ATOM      5  N   LEU A   1      -0.933  -2.548   1.294  0.00  0.00    +0.384 N 
ATOM      6  H1  LEU A   1       0.004  -2.211   1.455  0.00  0.00    -0.085 HD
ATOM      7  H2  LEU A   1      -1.539  -2.220   2.031  0.00  0.00    -0.085 HD
BRANCH   5   8
ATOM      8  CA  LEU A   1      -1.419  -2.046   0.001  0.00  0.00    -0.046 C 
BRANCH   8   9
ATOM      9  CB  LEU A   1      -1.280  -0.523  -0.040  0.00  0.00    -0.011 C 
BRANCH   9  11
ATOM     10  CD1 LEU A   1       0.913  -0.645  -1.230  0.00  0.00    +0.007 C 
ATOM     11  CG  LEU A   1       0.201  -0.144   0.028  0.00  0.00    -0.019 C 
ATOM     12  CD2 LEU A   1       0.334   1.378   0.117  0.00  0.00    +0.007 C 
ENDBRANCH   9  11
ENDBRANCH   8   9
BRANCH   8  13
ATOM     13  C   LEU A   1      -2.889  -2.429  -0.174  0.00  0.00    +0.140 C 
BRANCH  13  14
ATOM     14  O   LEU A   1      -3.677  -1.759   0.811  0.00  0.00    -0.397 OA
ATOM     15  H   LEU A   1      -4.623  -1.956   0.759  0.00  0.00    +0.209 HD
ENDBRANCH  13  14
ENDBRANCH   8  13
ENDBRANCH   5   8
ENDBRANCH   4   5
ENDBRANCH   1   4
BRANCH   1  16
ATOM     16  C   UNK A   0      -0.421  -6.069   2.611  0.00  0.00    +0.258 C 
BRANCH  16  17
ATOM     17  O   UNK A   0      -0.061  -6.557   3.904  0.00  0.00    -0.488 OA
BRANCH  17  18
ATOM     18  C   UNK A   0      -0.010  -7.906   4.063  0.00  0.00    +0.140 A 
ATOM     19  C   UNK A   0      -0.296  -8.742   2.994  0.00  0.00    +0.067 A 
ATOM     20  C   UNK A   0      -0.244 -10.114   3.157  0.00  0.00    +0.045 A 
ATOM     21  C   UNK A   0       0.093 -10.653   4.386  0.00  0.00    +0.021 A 
ATOM     22  C   UNK A   0       0.379  -9.822   5.453  0.00  0.00    +0.025 A 
ATOM     23  C   UNK A   0       0.333  -8.449   5.293  0.00  0.00    +0.083 A 
ATOM     24 CL   UNK A   0       0.698  -7.406   6.632  0.00  0.00    -0.080 Cl
ATOM     25 CL   UNK A   0      -0.602 -11.161   1.820  0.00  0.00    -0.083 Cl
ENDBRANCH  17  18
ENDBRANCH  16  17
ENDBRANCH   1  16
TORSDOF 11
