REMARK  Name = ZINC41158233
REMARK  2 active torsions:
REMARK  status: ('A' for Active; 'I' for Inactive)
REMARK    1  A    between atoms: C_4  and  N_10
REMARK    2  A    between atoms: C_6  and  N_9
REMARK                            x       y       z     vdW  Elec       q    Type
REMARK                         _______ _______ _______ _____ _____    ______ ____
ROOT
ATOM      1  N   UNL     1       2.863  -0.454   0.025  0.00  0.00    -0.241 N 
ATOM      2  C   UNL     1       2.312  -0.195  -1.169  0.00  0.00    +0.223 C 
ATOM      3  O   UNL     1       1.276   0.433  -1.223  0.00  0.00    -0.275 OA
ATOM      4  C   UNL     1       2.956  -0.667  -2.447  0.00  0.00    +0.103 C 
ATOM      5  C   UNL     1       4.466  -0.769  -2.241  0.00  0.00    -0.013 C 
ATOM      6  C   UNL     1       5.135  -1.346  -3.496  0.00  0.00    +0.008 C 
ATOM      7  C   UNL     1       6.118  -0.269  -4.002  0.00  0.00    +0.001 C 
ATOM      8  C   UNL     1       6.429   0.583  -2.746  0.00  0.00    +0.001 C 
ATOM      9  C   UNL     1       5.061   0.633  -2.019  0.00  0.00    +0.008 C 
ATOM     10  C   UNL     1       4.761  -1.656  -1.032  0.00  0.00    +0.103 C 
ATOM     11  C   UNL     1       4.018  -1.122   0.164  0.00  0.00    +0.223 C 
ATOM     12  O   UNL     1       4.469  -1.304   1.274  0.00  0.00    -0.275 OA
ENDROOT
BRANCH   1  16
ATOM     13  C   UNL     1      -0.137   1.342   0.015  0.00  0.00    -0.001 C 
ATOM     14  C   UNL     1       1.262   1.959  -0.050  0.00  0.00    +0.002 C 
ATOM     15  C   UNL     1       2.061   1.544   1.187  0.00  0.00    +0.021 C 
ATOM     16  C   UNL     1       2.178   0.019   1.231  0.00  0.00    +0.070 C 
ATOM     17  C   UNL     1       0.779  -0.598   1.296  0.00  0.00    -0.054 C 
ATOM     18  C   UNL     1      -0.020  -0.183   0.059  0.00  0.00    -0.014 C 
BRANCH  17  19
ATOM     19  N   UNL     1       0.890  -2.062   1.339  0.00  0.00    +0.381 N 
ATOM     20  H   UNL     1       1.417  -2.336   2.155  0.00  0.00    -0.090 HD
ATOM     21  H   UNL     1      -0.032  -2.469   1.382  0.00  0.00    -0.090 HD
ATOM     22  H   UNL     1       1.363  -2.387   0.509  0.00  0.00    -0.090 HD
ENDBRANCH  17  19
ENDBRANCH   1  16
TORSDOF 2
