REMARK  Name = ZINC12850810
REMARK  8 active torsions:
REMARK  status: ('A' for Active; 'I' for Inactive)
REMARK    1  A    between atoms: C_1  and  C_2
REMARK    2  A    between atoms: C_5  and  C_8
REMARK    3  A    between atoms: C_11  and  C_32
REMARK    4  A    between atoms: C_16  and  C_19
REMARK    5  A    between atoms: N_21  and  C_22
REMARK    6  A    between atoms: C_26  and  C_28
REMARK    7  A    between atoms: C_28  and  C_30
REMARK    8  A    between atoms: C_28  and  O_31
REMARK                            x       y       z     vdW  Elec       q    Type
REMARK                         _______ _______ _______ _____ _____    ______ ____
ROOT
ATOM      1  C   UNL     1       0.565  -5.034  -0.583  0.00  0.00    +0.113 C 
ATOM      2  C   UNL     1      -0.947  -5.181  -0.400  0.00  0.00    +0.062 C 
ATOM      3  C   UNL     1      -1.262  -6.543   0.237  0.00  0.00    +0.201 C 
ATOM      4  N   UNL     1      -0.440  -6.658   1.447  0.00  0.00    -0.226 N 
ATOM      5  C   UNL     1       0.747  -5.958   1.612  0.00  0.00    +0.126 C 
ATOM      6  N   UNL     1       1.254  -5.173   0.706  0.00  0.00    -0.364 N 
ATOM      7  C   UNL     1       1.244  -6.303   2.950  0.00  0.00    +0.091 C 
ATOM      8  C   UNL     1       0.340  -7.196   3.487  0.00  0.00    +0.104 C 
ATOM      9  N   UNL     1      -0.655  -7.418   2.590  0.00  0.00    -0.269 N 
ATOM     10  H   UNL     1      -1.405  -8.018   2.727  0.00  0.00    +0.170 HD
ATOM     11  H   UNL     1       2.076  -4.689   0.880  0.00  0.00    +0.161 HD
ENDROOT
BRANCH   1  16
ATOM     12  C   UNL     1       1.716   0.173  -2.809  0.00  0.00    +0.044 C 
ATOM     13  C   UNL     1       1.416  -1.185  -2.228  0.00  0.00    -0.050 A 
ATOM     14  C   UNL     1       1.383  -2.296  -3.050  0.00  0.00    +0.004 A 
ATOM     15  C   UNL     1       1.108  -3.542  -2.517  0.00  0.00    +0.006 A 
ATOM     16  C   UNL     1       0.866  -3.676  -1.163  0.00  0.00    -0.025 A 
ATOM     17  C   UNL     1       0.898  -2.565  -0.341  0.00  0.00    +0.006 A 
ATOM     18  C   UNL     1       1.178  -1.320  -0.873  0.00  0.00    +0.004 A 
ENDBRANCH   1  16
BRANCH   7  19
ATOM     19  C   UNL     1       2.462  -5.797   3.590  0.00  0.00    +0.253 C 
ATOM     20  O   UNL     1       2.705  -6.082   4.748  0.00  0.00    -0.270 OA
ATOM     21  N   UNL     1       3.314  -5.015   2.896  0.00  0.00    -0.281 N 
ATOM     22  H   UNL     1       3.084  -4.725   2.000  0.00  0.00    +0.155 HD
BRANCH  21  23
ATOM     23  C   UNL     1       4.528  -4.624   3.469  0.00  0.00    +0.034 A 
ATOM     24  C   UNL     1       5.195  -5.477   4.338  0.00  0.00    +0.023 A 
ATOM     25  C   UNL     1       6.394  -5.088   4.901  0.00  0.00    +0.002 A 
ATOM     26  C   UNL     1       6.931  -3.849   4.601  0.00  0.00    +0.006 A 
ATOM     27  C   UNL     1       6.269  -2.997   3.736  0.00  0.00    -0.018 A 
ATOM     28  C   UNL     1       5.073  -3.383   3.165  0.00  0.00    +0.029 A 
BRANCH  27  29
ATOM     29  C   UNL     1       6.858  -1.648   3.412  0.00  0.00    +0.141 C 
ATOM     30  C   UNL     1       7.864  -1.791   2.268  0.00  0.00    +0.043 C 
BRANCH  29  31
ATOM     31  O   UNL     1       7.520  -1.127   4.566  0.00  0.00    -0.387 OA
ATOM     32  H   UNL     1       8.242  -1.683   4.890  0.00  0.00    +0.210 HD
ENDBRANCH  29  31
ENDBRANCH  27  29
ENDBRANCH  21  23
ENDBRANCH   7  19
BRANCH   3  33
ATOM     33  C   UNL     1      -2.745  -6.616   0.604  0.00  0.00    +0.410 C 
ATOM     34  F   UNL     1      -3.520  -6.456  -0.550  0.00  0.00    -0.169 F 
ATOM     35  F   UNL     1      -3.022  -7.859   1.183  0.00  0.00    -0.169 F 
ATOM     36  F   UNL     1      -3.051  -5.599   1.515  0.00  0.00    -0.169 F 
ENDBRANCH   3  33
TORSDOF 6
