REMARK  Name = ZINC07685402
REMARK  12 active torsions:
REMARK  status: ('A' for Active; 'I' for Inactive)
REMARK    1  A    between atoms: C_1  and  C_2
REMARK    2  A    between atoms: C_2  and  C_3
REMARK    3  A    between atoms: C_3  and  N_4
REMARK    4  A    between atoms: C_5  and  N_26
REMARK    5  A    between atoms: C_6  and  C_13
REMARK    6  A    between atoms: C_13  and  C_15
REMARK    7  A    between atoms: C_15  and  N_50
REMARK    8  A    between atoms: C_16  and  N_50
REMARK    9  A    between atoms: C_17  and  C_18
REMARK   10  A    between atoms: C_17  and  N_50
REMARK   11  A    between atoms: C_18  and  O_19
REMARK   12  A    between atoms: O_19  and  C_20
REMARK                            x       y       z     vdW  Elec       q    Type
REMARK                         _______ _______ _______ _____ _____    ______ ____
ROOT
ATOM      1  N   UNL     1      -1.117  -2.110   0.101  0.00  0.00    -0.281 N 
ATOM      2  C   UNL     1      -1.186  -0.746   0.114  0.00  0.00    +0.116 A 
ATOM      3  C   UNL     1       0.002  -0.004   0.003  0.00  0.00    +0.118 A 
ATOM      4  C   UNL     1       1.264  -0.744  -0.129  0.00  0.00    +0.266 A 
ATOM      5  O   UNL     1       2.323  -0.153  -0.234  0.00  0.00    -0.267 OA
ATOM      6  N   UNL     1       1.225  -2.093  -0.125  0.00  0.00    -0.274 N 
ATOM      7  H   UNL     1       2.077  -2.611  -0.204  0.00  0.00    +0.173 HD
ATOM      8  C   UNL     1       0.058  -2.748  -0.016  0.00  0.00    +0.331 A 
ATOM      9  O   UNL     1       0.066  -3.963  -0.022  0.00  0.00    -0.246 OA
ENDROOT
BRANCH   2  10
ATOM     10  N   UNL     1      -2.386  -0.116   0.234  0.00  0.00    -0.344 N 
ATOM     11  H   UNL     1      -3.200  -0.565  -0.046  0.00  0.00    +0.144 HD
ATOM     12  H   UNL     1      -2.428   0.782   0.599  0.00  0.00    +0.144 HD
ENDBRANCH   2  10
BRANCH   3  13
ATOM     13  C   UNL     1      -0.017   1.407   0.012  0.00  0.00    +0.155 C 
ATOM     14  O   UNL     1      -1.077   2.000   0.009  0.00  0.00    -0.294 OA
BRANCH  13  15
ATOM     15  C   UNL     1       1.278   2.178   0.018  0.00  0.00    +0.002 C 
BRANCH  15  17
ATOM     16  C   UNL     1       0.343   4.033  -1.225  0.00  0.00    -0.095 C 
ATOM     17  N   UNL     1       0.972   3.624   0.048  0.00  0.00    +0.385 N 
ATOM     18  H   UNL     1       0.319   3.810   0.818  0.00  0.00    -0.081 HD
BRANCH  17  19
ATOM     19  C   UNL     1       2.211   4.398   0.271  0.00  0.00    -0.037 C 
BRANCH  19  20
ATOM     20  C   UNL     1       1.841   5.861   0.521  0.00  0.00    +0.210 C 
BRANCH  20  21
ATOM     21  O   UNL     1       1.080   5.961   1.727  0.00  0.00    -0.494 OA
BRANCH  21  22
ATOM     22  C   UNL     1       0.669   7.203   2.096  0.00  0.00    +0.120 A 
ATOM     23  C   UNL     1       0.995   8.303   1.316  0.00  0.00    +0.045 A 
ATOM     24  C   UNL     1       0.571   9.563   1.691  0.00  0.00    +0.004 A 
ATOM     25  C   UNL     1      -0.169   9.730   2.847  0.00  0.00    +0.000 A 
ATOM     26  C   UNL     1      -0.490   8.636   3.628  0.00  0.00    +0.004 A 
ATOM     27  C   UNL     1      -0.073   7.373   3.256  0.00  0.00    +0.045 A 
ENDBRANCH  21  22
ENDBRANCH  20  21
ENDBRANCH  19  20
ENDBRANCH  17  19
ENDBRANCH  15  17
ENDBRANCH  13  15
ENDBRANCH   3  13
BRANCH   1  28
ATOM     28  C   UNL     1      -2.350  -2.893   0.216  0.00  0.00    +0.128 C 
BRANCH  28  30
ATOM     29  C   UNL     1      -4.206  -3.975  -1.060  0.00  0.00    +0.005 C 
ATOM     30  C   UNL     1      -2.918  -3.158  -1.180  0.00  0.00    +0.018 C 
ENDBRANCH  28  30
ENDBRANCH   1  28
TORSDOF 10
