REMARK  Name = ZINC45805807
REMARK  11 active torsions:
REMARK  status: ('A' for Active; 'I' for Inactive)
REMARK    1  A    between atoms: C_1  and  C_2
REMARK    2  A    between atoms: C_2  and  C_3
REMARK    3  A    between atoms: C_3  and  C_4
REMARK    4  A    between atoms: C_4  and  N_5
REMARK    5  A    between atoms: N_5  and  C_6
REMARK    6  A    between atoms: N_5  and  C_10
REMARK    7  A    between atoms: C_6  and  C_7
REMARK    8  A    between atoms: C_10  and  C_11
REMARK    9  A    between atoms: N_13  and  C_14
REMARK   10  A    between atoms: C_17  and  O_20
REMARK   11  A    between atoms: O_20  and  C_21
REMARK                            x       y       z     vdW  Elec       q    Type
REMARK                         _______ _______ _______ _____ _____    ______ ____
ROOT
ATOM      1  C   UNL     1       3.833  -3.980   2.709  0.00  0.00    +0.201 C 
ATOM      2  O   UNL     1       4.684  -3.269   3.201  0.00  0.00    -0.278 OA
ATOM      3  N   UNL     1       3.760  -5.281   3.053  0.00  0.00    -0.287 N 
ATOM      4  H   UNL     1       3.135  -5.868   2.600  0.00  0.00    +0.155 HD
ENDROOT
BRANCH   3   5
ATOM      5  C   UNL     1       4.586  -5.785   4.066  0.00  0.00    +0.034 A 
ATOM      6  C   UNL     1       4.922  -4.986   5.151  0.00  0.00    +0.027 A 
ATOM      7  C   UNL     1       5.737  -5.484   6.148  0.00  0.00    +0.048 A 
ATOM      8  C   UNL     1       6.220  -6.782   6.067  0.00  0.00    +0.129 A 
ATOM      9  C   UNL     1       5.885  -7.581   4.983  0.00  0.00    +0.048 A 
ATOM     10  C   UNL     1       5.066  -7.086   3.988  0.00  0.00    +0.027 A 
BRANCH   8  11
ATOM     11  O   UNL     1       7.023  -7.271   7.049  0.00  0.00    -0.456 OA
BRANCH  11  12
ATOM     12  C   UNL     1       7.229  -6.499   8.148  0.00  0.00    +0.128 A 
ATOM     13  C   UNL     1       6.250  -6.409   9.128  0.00  0.00    +0.046 A 
ATOM     14  C   UNL     1       6.462  -5.623  10.244  0.00  0.00    +0.004 A 
ATOM     15  C   UNL     1       7.647  -4.926  10.386  0.00  0.00    +0.000 A 
ATOM     16  C   UNL     1       8.624  -5.014   9.411  0.00  0.00    +0.004 A 
ATOM     17  C   UNL     1       8.420  -5.803   8.296  0.00  0.00    +0.046 A 
ENDBRANCH  11  12
ENDBRANCH   8  11
ENDBRANCH   3   5
BRANCH   1  18
ATOM     18  C   UNL     1       2.858  -3.409   1.712  0.00  0.00    +0.020 C 
BRANCH  18  19
ATOM     19  N   UNL     1       3.196  -2.004   1.446  0.00  0.00    +0.391 N 
ATOM     20  H   UNL     1       3.239  -1.498   2.318  0.00  0.00    -0.080 HD
BRANCH  19  21
ATOM     21  C   UNL     1       4.501  -1.933   0.775  0.00  0.00    -0.078 C 
BRANCH  21  22
ATOM     22  C   UNL     1       4.911  -0.469   0.610  0.00  0.00    -0.019 C 
BRANCH  22  24
ATOM     23  C   UNL     1       6.680   1.069  -0.255  0.00  0.00    +0.004 C 
ATOM     24  C   UNL     1       6.270  -0.395  -0.090  0.00  0.00    -0.005 C 
ENDBRANCH  22  24
ENDBRANCH  21  22
ENDBRANCH  19  21
BRANCH  19  25
ATOM     25  C   UNL     1       2.168  -1.408   0.583  0.00  0.00    +0.019 C 
BRANCH  25  26
ATOM     26  C   UNL     1       0.870  -1.310   1.341  0.00  0.00    +0.194 C 
ATOM     27  O   UNL     1       0.839  -1.569   2.526  0.00  0.00    -0.278 OA
ATOM     28  N   UNL     1      -0.257  -0.936   0.703  0.00  0.00    -0.331 N 
ATOM     29  H   UNL     1      -0.232  -0.730  -0.244  0.00  0.00    +0.145 HD
ATOM     30  H   UNL     1      -1.093  -0.874   1.192  0.00  0.00    +0.145 HD
ENDBRANCH  25  26
ENDBRANCH  19  25
ENDBRANCH  18  19
ENDBRANCH   1  18
TORSDOF 10
