REMARK  Name = ZINC01875471
REMARK  6 active torsions:
REMARK  status: ('A' for Active; 'I' for Inactive)
REMARK    1  A    between atoms: C_4  and  O_31
REMARK    2  A    between atoms: C_5  and  C_7
REMARK    3  A    between atoms: N_8  and  N_9
REMARK    4  A    between atoms: C_10  and  N_30
REMARK    5  A    between atoms: C_11  and  S_22
REMARK    6  A    between atoms: S_22  and  C_25
REMARK                            x       y       z     vdW  Elec       q    Type
REMARK                         _______ _______ _______ _____ _____    ______ ____
ROOT
ATOM      1  N   UNL     1       2.412  -4.186  -0.046  0.00  0.00    -0.197 N 
ATOM      2  C   UNL     1       2.432  -4.990   1.068  0.00  0.00    +0.148 A 
ATOM      3  C   UNL     1       2.455  -6.297   0.714  0.00  0.00    +0.160 A 
ATOM      4  C   UNL     1       2.450  -6.369  -0.700  0.00  0.00    +0.113 A 
ATOM      5  C   UNL     1       2.416  -4.980  -1.176  0.00  0.00    +0.182 A 
ATOM      6  N   UNL     1       2.399  -4.734  -2.466  0.00  0.00    -0.224 NA
ATOM      7  C   UNL     1       2.410  -5.750  -3.339  0.00  0.00    +0.090 A 
ATOM      8  C   UNL     1       2.392  -5.495  -4.723  0.00  0.00    +0.030 A 
ATOM      9  C   UNL     1       2.404  -6.533  -5.603  0.00  0.00    +0.002 A 
ATOM     10  C   UNL     1       2.433  -7.853  -5.154  0.00  0.00    +0.002 A 
ATOM     11  C   UNL     1       2.450  -8.139  -3.825  0.00  0.00    +0.028 A 
ATOM     12  C   UNL     1       2.439  -7.092  -2.883  0.00  0.00    +0.066 A 
ATOM     13  N   UNL     1       2.464  -7.363  -1.574  0.00  0.00    -0.349 N 
ATOM     14  H   UNL     1       2.483  -8.283  -1.266  0.00  0.00    +0.166 HD
ENDROOT
BRANCH   3  15
ATOM     15  S   UNL     1       2.486  -7.668   1.820  0.00  0.00    +0.037 S 
ATOM     16  O   UNL     1       3.054  -8.755   1.103  0.00  0.00    -0.164 OA
ATOM     17  O   UNL     1       3.033  -7.191   3.042  0.00  0.00    -0.164 OA
BRANCH  15  18
ATOM     18  C   UNL     1       0.812  -8.105   2.155  0.00  0.00    +0.131 A 
ATOM     19  C   UNL     1       0.012  -8.982   1.501  0.00  0.00    +0.035 A 
ATOM     20  C   UNL     1      -1.283  -9.169   1.946  0.00  0.00    +0.009 A 
ATOM     21  C   UNL     1      -1.715  -8.469   3.024  0.00  0.00    +0.047 A 
ATOM     22  S   UNL     1      -0.268  -7.514   3.448  0.00  0.00    -0.078 S 
ENDBRANCH  15  18
ENDBRANCH   3  15
BRANCH   2  23
ATOM     23  N   UNL     1       2.429  -4.528   2.372  0.00  0.00    -0.341 N 
ATOM     24  H   UNL     1       2.412  -3.574   2.549  0.00  0.00    +0.144 HD
ATOM     25  H   UNL     1       2.444  -5.158   3.110  0.00  0.00    +0.144 HD
ENDBRANCH   2  23
BRANCH   1  27
ATOM     26  C   UNL     1       1.250  -2.157  -0.023  0.00  0.00    +0.145 C 
ATOM     27  N   UNL     1       2.386  -2.785  -0.038  0.00  0.00    -0.171 NA
BRANCH  26  32
ATOM     28  C   UNL     1      -0.017   1.375   0.010  0.00  0.00    +0.001 A 
ATOM     29  C   UNL     1       1.169   2.089   0.002  0.00  0.00    +0.004 A 
ATOM     30  C   UNL     1       2.383   1.428  -0.013  0.00  0.00    +0.046 A 
ATOM     31  C   UNL     1       2.420   0.044  -0.021  0.00  0.00    +0.125 A 
ATOM     32  C   UNL     1       1.222  -0.684  -0.014  0.00  0.00    +0.036 A 
ATOM     33  C   UNL     1       0.002  -0.004   0.002  0.00  0.00    +0.013 A 
BRANCH  31  34
ATOM     34  O   UNL     1       3.613  -0.607  -0.037  0.00  0.00    -0.506 OA
ATOM     35  H   UNL     1       3.967  -0.800   0.842  0.00  0.00    +0.292 HD
ENDBRANCH  31  34
ENDBRANCH  26  32
ENDBRANCH   1  27
TORSDOF 6
