REMARK  Name = ZINC12293284
REMARK  8 active torsions:
REMARK  status: ('A' for Active; 'I' for Inactive)
REMARK    1  A    between atoms: C_1  and  C_2
REMARK    2  A    between atoms: C_2  and  N_3
REMARK    3  A    between atoms: C_5  and  C_12
REMARK    4  A    between atoms: C_12  and  C_14
REMARK    5  A    between atoms: C_12  and  O_32
REMARK    6  A    between atoms: C_14  and  N_61
REMARK    7  A    between atoms: C_21  and  O_31
REMARK    8  A    between atoms: C_25  and  O_30
REMARK                            x       y       z     vdW  Elec       q    Type
REMARK                         _______ _______ _______ _____ _____    ______ ____
ROOT
ATOM      1  C   UNL     1      -3.946  -0.491  -0.697  0.00  0.00    -0.075 C 
ATOM      2  C   UNL     1      -2.448  -0.193  -0.803  0.00  0.00    +0.029 C 
ATOM      3  C   UNL     1      -2.245   1.301  -1.060  0.00  0.00    +0.110 C 
ATOM      4  C   UNL     1      -2.995   1.704  -2.331  0.00  0.00    +0.029 C 
ATOM      5  C   UNL     1      -4.476   1.352  -2.177  0.00  0.00    -0.075 C 
ATOM      6  C   UNL     1      -0.752   1.592  -1.233  0.00  0.00    +0.084 C 
ATOM      7  C   UNL     1      -0.013   1.086   0.008  0.00  0.00    +0.152 C 
ATOM      8  C   UNL     1      -0.717   1.571   1.250  0.00  0.00    +0.026 A 
ATOM      9  C   UNL     1      -0.028   1.564   2.451  0.00  0.00    +0.055 A 
ATOM     10  C   UNL     1      -0.645   2.001   3.612  0.00  0.00    +0.117 A 
ATOM     11  C   UNL     1      -1.958   2.446   3.572  0.00  0.00    +0.049 A 
ATOM     12  C   UNL     1      -2.644   2.454   2.375  0.00  0.00    +0.049 A 
ATOM     13  C   UNL     1      -2.026   2.018   1.208  0.00  0.00    +0.127 A 
ATOM     14  O   UNL     1      -2.734   2.054   0.048  0.00  0.00    -0.485 OA
ATOM     15  N   UNL     1      -4.603  -0.105  -1.964  0.00  0.00    +0.382 N 
ATOM     16  H   UNL     1      -4.144  -0.597  -2.740  0.00  0.00    -0.082 HD
ENDROOT
BRANCH  10  17
ATOM     17  O   UNL     1       0.036   1.992   4.790  0.00  0.00    -0.507 OA
ATOM     18  H   UNL     1       0.516   2.812   4.972  0.00  0.00    +0.292 HD
ENDBRANCH  10  17
BRANCH   7  19
ATOM     19  O   UNL     1       1.328   1.580  -0.002  0.00  0.00    -0.387 OA
ATOM     20  H   UNL     1       1.857   1.297   0.756  0.00  0.00    +0.210 HD
ENDBRANCH   7  19
BRANCH  15  21
ATOM     21  C   UNL     1      -6.029  -0.489  -1.929  0.00  0.00    -0.042 C 
BRANCH  21  22
ATOM     22  C   UNL     1      -6.628  -0.284  -3.321  0.00  0.00    +0.130 C 
BRANCH  22  25
ATOM     23  N   UNL     1     -10.055  -1.627  -3.433  0.00  0.00    -0.347 N 
ATOM     24  C   UNL     1      -8.700  -1.738  -3.592  0.00  0.00    +0.093 A 
ATOM     25  C   UNL     1      -8.106  -0.575  -3.280  0.00  0.00    +0.004 A 
ATOM     26  C   UNL     1      -9.168   0.359  -2.899  0.00  0.00    +0.005 A 
ATOM     27  C   UNL     1     -10.375  -0.355  -3.013  0.00  0.00    +0.049 A 
ATOM     28  C   UNL     1     -11.574   0.280  -2.712  0.00  0.00    +0.026 A 
ATOM     29  C   UNL     1     -11.568   1.597  -2.307  0.00  0.00    +0.002 A 
ATOM     30  C   UNL     1     -10.376   2.298  -2.196  0.00  0.00    +0.001 A 
ATOM     31  C   UNL     1      -9.185   1.693  -2.487  0.00  0.00    +0.010 A 
BRANCH  23  33
ATOM     32  C   UNL     1     -11.572  -2.575  -5.101  0.00  0.00    +0.027 C 
ATOM     33  C   UNL     1     -11.021  -2.700  -3.679  0.00  0.00    +0.118 C 
ENDBRANCH  23  33
ENDBRANCH  22  25
BRANCH  22  34
ATOM     34  O   UNL     1      -5.994  -1.169  -4.248  0.00  0.00    -0.389 OA
ATOM     35  H   UNL     1      -6.095  -2.105  -4.029  0.00  0.00    +0.210 HD
ENDBRANCH  22  34
ENDBRANCH  21  22
ENDBRANCH  15  21
TORSDOF 7
