REMARK  Name = ZINC66451811
REMARK  11 active torsions:
REMARK  status: ('A' for Active; 'I' for Inactive)
REMARK    1  A    between atoms: C_1  and  C_2
REMARK    2  A    between atoms: C_3  and  C_23
REMARK    3  A    between atoms: C_4  and  C_22
REMARK    4  A    between atoms: C_7  and  C_8
REMARK    5  A    between atoms: N_10  and  C_11
REMARK    6  A    between atoms: N_16  and  C_18
REMARK    7  A    between atoms: C_18  and  C_19
REMARK    8  A    between atoms: C_23  and  O_25
REMARK    9  A    between atoms: O_25  and  C_26
REMARK   10  A    between atoms: C_26  and  C_27
REMARK   11  A    between atoms: C_26  and  C_28
REMARK                            x       y       z     vdW  Elec       q    Type
REMARK                         _______ _______ _______ _____ _____    ______ ____
ROOT
ATOM      1  C   UNL     1       0.032  -0.383   2.495  0.00  0.00    +0.261 C 
ATOM      2  O   UNL     1       0.019   0.804   2.761  0.00  0.00    -0.269 OA
ATOM      3  N   UNL     1       0.054  -1.296   3.486  0.00  0.00    -0.309 N 
ATOM      4  H   UNL     1       0.065  -2.242   3.273  0.00  0.00    +0.149 HD
ENDROOT
BRANCH   1  11
ATOM      5  C   UNL     1      -0.018   1.503   0.010  0.00  0.00    +0.047 C 
ATOM      6  C   UNL     1       0.002  -0.004   0.002  0.00  0.00    -0.006 A 
ATOM      7  C   UNL     1       0.008  -0.839  -1.139  0.00  0.00    +0.083 A 
ATOM      8  C   UNL     1       0.028  -2.145  -0.686  0.00  0.00    +0.028 A 
ATOM      9  N   UNL     1       0.034  -2.127   0.656  0.00  0.00    -0.354 N 
ATOM     10  H   UNL     1       0.047  -2.911   1.228  0.00  0.00    +0.166 HD
ATOM     11  C   UNL     1       0.024  -0.821   1.093  0.00  0.00    +0.106 A 
ATOM     12  C   UNL     1       0.041  -3.378  -1.552  0.00  0.00    +0.064 C 
BRANCH   7  13
ATOM     13  C   UNL     1      -0.005  -0.400  -2.544  0.00  0.00    +0.341 C 
ATOM     14  O   UNL     1       1.042  -0.204  -3.130  0.00  0.00    -0.245 OA
BRANCH  13  15
ATOM     15  O   UNL     1      -1.178  -0.215  -3.182  0.00  0.00    -0.458 OA
BRANCH  15  16
ATOM     16  C   UNL     1      -1.115   0.211  -4.545  0.00  0.00    +0.171 C 
ATOM     17  C   UNL     1      -1.076  -1.014  -5.461  0.00  0.00    +0.052 C 
ATOM     18  C   UNL     1      -2.350   1.053  -4.872  0.00  0.00    +0.052 C 
ENDBRANCH  15  16
ENDBRANCH  13  15
ENDBRANCH   7  13
ENDBRANCH   1  11
BRANCH   3  19
ATOM     19  C   UNL     1       0.063  -0.859   4.884  0.00  0.00    +0.057 C 
ATOM     20  C   UNL     1       1.502  -0.569   5.321  0.00  0.00    +0.018 C 
ATOM     21  C   UNL     1       1.508  -0.189   6.804  0.00  0.00    -0.017 C 
ATOM     22  C   UNL     1       0.871  -1.319   7.617  0.00  0.00    -0.078 C 
ATOM     23  N   UNL     1      -0.511  -1.529   7.170  0.00  0.00    +0.387 N 
ATOM     24  C   UNL     1      -0.521  -1.963   5.768  0.00  0.00    -0.056 C 
ATOM     25  H   UNL     1      -1.026  -0.666   7.258  0.00  0.00    -0.081 HD
BRANCH  23  26
ATOM     26  C   UNL     1      -1.142  -2.560   8.005  0.00  0.00    +0.018 C 
BRANCH  26  27
ATOM     27  C   UNL     1      -1.252  -2.061   9.422  0.00  0.00    +0.194 C 
ATOM     28  O   UNL     1      -0.845  -0.955   9.709  0.00  0.00    -0.278 OA
ATOM     29  N   UNL     1      -1.804  -2.843  10.372  0.00  0.00    -0.331 N 
ATOM     30  H   UNL     1      -2.129  -3.727  10.142  0.00  0.00    +0.145 HD
ATOM     31  H   UNL     1      -1.875  -2.521  11.284  0.00  0.00    +0.145 HD
ENDBRANCH  26  27
ENDBRANCH  23  26
ENDBRANCH   3  19
TORSDOF 7
