REMARK  Name = ZINC52830754
REMARK  11 active torsions:
REMARK  status: ('A' for Active; 'I' for Inactive)
REMARK    1  A    between atoms: C_1  and  C_2
REMARK    2  A    between atoms: C_2  and  O_3
REMARK    3  A    between atoms: O_3  and  C_4
REMARK    4  A    between atoms: C_4  and  C_6
REMARK    5  A    between atoms: C_10  and  N_11
REMARK    6  A    between atoms: C_12  and  C_14
REMARK    7  A    between atoms: C_14  and  C_15
REMARK    8  A    between atoms: C_14  and  N_16
REMARK    9  A    between atoms: N_16  and  C_17
REMARK   10  A    between atoms: N_16  and  C_18
REMARK   11  A    between atoms: C_18  and  C_19
REMARK                            x       y       z     vdW  Elec       q    Type
REMARK                         _______ _______ _______ _____ _____    ______ ____
ROOT
ATOM      1  N   UNL     1      -3.573  -2.960   2.347  0.00  0.00    -0.281 N 
ATOM      2  C   UNL     1      -3.991  -3.421   3.543  0.00  0.00    +0.204 C 
ATOM      3  O   UNL     1      -4.842  -4.283   3.597  0.00  0.00    -0.277 OA
ATOM      4  H   UNL     1      -2.893  -2.270   2.304  0.00  0.00    +0.155 HD
ENDROOT
BRANCH   1   9
ATOM      5  C   UNL     1      -3.812  -3.121  -0.128  0.00  0.00    +0.091 A 
ATOM      6  C   UNL     1      -4.525  -3.818  -1.185  0.00  0.00    -0.021 A 
ATOM      7  C   UNL     1      -5.415  -4.731  -0.742  0.00  0.00    -0.004 A 
ATOM      8  S   UNL     1      -5.296  -4.656   1.021  0.00  0.00    -0.077 S 
ATOM      9  C   UNL     1      -4.117  -3.471   1.179  0.00  0.00    +0.086 A 
ATOM     10  C   UNL     1      -6.299  -5.604  -1.578  0.00  0.00    +0.043 C 
ATOM     11  C   UNL     1      -6.318  -5.044  -3.007  0.00  0.00    +0.005 C 
ATOM     12  C   UNL     1      -4.879  -4.765  -3.449  0.00  0.00    +0.005 C 
ATOM     13  C   UNL     1      -4.318  -3.572  -2.672  0.00  0.00    +0.037 C 
BRANCH   5  14
ATOM     14  C   UNL     1      -2.810  -2.097  -0.430  0.00  0.00    +0.342 C 
ATOM     15  O   UNL     1      -1.644  -2.412  -0.578  0.00  0.00    -0.245 OA
BRANCH  14  16
ATOM     16  O   UNL     1      -3.179  -0.805  -0.543  0.00  0.00    -0.461 OA
BRANCH  16  18
ATOM     17  C   UNL     1      -2.755   1.543  -0.928  0.00  0.00    +0.048 C 
ATOM     18  C   UNL     1      -2.149   0.141  -0.839  0.00  0.00    +0.229 C 
ENDBRANCH  16  18
ENDBRANCH  14  16
ENDBRANCH   5  14
ENDBRANCH   1   9
BRANCH   2  19
ATOM     19  C   UNL     1      -3.400  -2.865   4.813  0.00  0.00    +0.017 C 
ATOM     20  C   UNL     1      -2.127  -3.636   5.164  0.00  0.00    -0.004 C 
BRANCH  19  21
ATOM     21  N   UNL     1      -4.372  -3.002   5.906  0.00  0.00    +0.391 N 
ATOM     22  C   UNL     1      -5.573  -2.215   5.595  0.00  0.00    -0.094 C 
ATOM     23  H   UNL     1      -4.625  -3.973   6.012  0.00  0.00    -0.080 HD
BRANCH  21  24
ATOM     24  C   UNL     1      -3.776  -2.512   7.156  0.00  0.00    +0.019 C 
BRANCH  24  25
ATOM     25  C   UNL     1      -4.726  -2.764   8.298  0.00  0.00    +0.194 C 
ATOM     26  O   UNL     1      -5.794  -3.300   8.092  0.00  0.00    -0.278 OA
ATOM     27  N   UNL     1      -4.388  -2.395   9.550  0.00  0.00    -0.331 N 
ATOM     28  H   UNL     1      -3.533  -1.967   9.715  0.00  0.00    +0.145 HD
ATOM     29  H   UNL     1      -4.999  -2.558  10.285  0.00  0.00    +0.145 HD
ENDBRANCH  24  25
ENDBRANCH  21  24
ENDBRANCH  19  21
ENDBRANCH   2  19
TORSDOF 8
