REMARK  Name = ZINC59350326
REMARK  11 active torsions:
REMARK  status: ('A' for Active; 'I' for Inactive)
REMARK    1  A    between atoms: C_1  and  C_2
REMARK    2  A    between atoms: C_2  and  C_3
REMARK    3  A    between atoms: C_3  and  N_4
REMARK    4  A    between atoms: N_4  and  C_5
REMARK    5  A    between atoms: N_4  and  C_19
REMARK    6  A    between atoms: C_5  and  C_6
REMARK    7  A    between atoms: N_8  and  C_9
REMARK    8  A    between atoms: C_12  and  S_15
REMARK    9  A    between atoms: S_15  and  N_18
REMARK   10  A    between atoms: C_19  and  C_21
REMARK   11  A    between atoms: C_19  and  C_22
REMARK                            x       y       z     vdW  Elec       q    Type
REMARK                         _______ _______ _______ _____ _____    ______ ____
ROOT
ATOM      1  C   UNL     1      -2.608  -2.549  -0.223  0.00  0.00    +0.020 C 
ENDROOT
BRANCH   1   2
ATOM      2  C   UNL     1      -3.115  -2.226  -1.605  0.00  0.00    +0.201 C 
ATOM      3  O   UNL     1      -2.436  -1.562  -2.360  0.00  0.00    -0.278 OA
ATOM      4  N   UNL     1      -4.322  -2.674  -2.001  0.00  0.00    -0.287 N 
ATOM      5  H   UNL     1      -4.837  -3.258  -1.423  0.00  0.00    +0.155 HD
BRANCH   4   6
ATOM      6  C   UNL     1      -4.834  -2.296  -3.248  0.00  0.00    +0.033 A 
ATOM      7  C   UNL     1      -6.197  -2.082  -3.405  0.00  0.00    +0.025 A 
ATOM      8  C   UNL     1      -6.699  -1.709  -4.636  0.00  0.00    +0.030 A 
ATOM      9  C   UNL     1      -5.846  -1.549  -5.712  0.00  0.00    +0.105 A 
ATOM     10  C   UNL     1      -4.488  -1.762  -5.560  0.00  0.00    +0.030 A 
ATOM     11  C   UNL     1      -3.979  -2.129  -4.329  0.00  0.00    +0.025 A 
BRANCH   9  12
ATOM     12  S   UNL     1      -6.490  -1.074  -7.282  0.00  0.00    +0.056 S 
ATOM     13  O   UNL     1      -5.557  -1.522  -8.256  0.00  0.00    -0.153 OA
ATOM     14  O   UNL     1      -7.855  -1.467  -7.297  0.00  0.00    -0.153 OA
BRANCH  12  15
ATOM     15  N   UNL     1      -6.473   0.581  -7.337  0.00  0.00    -0.204 NA
ATOM     16  H   UNL     1      -6.362   1.037  -8.186  0.00  0.00    +0.144 HD
ATOM     17  H   UNL     1      -6.575   1.095  -6.520  0.00  0.00    +0.144 HD
ENDBRANCH  12  15
ENDBRANCH   9  12
ENDBRANCH   4   6
ENDBRANCH   1   2
BRANCH   1  18
ATOM     18  N   UNL     1      -1.279  -1.951  -0.036  0.00  0.00    +0.390 N 
ATOM     19  H   UNL     1      -0.664  -2.261  -0.773  0.00  0.00    -0.080 HD
BRANCH  18  20
ATOM     20  C   UNL     1      -0.734  -2.364   1.263  0.00  0.00    -0.040 C 
ATOM     21  C   UNL     1       0.593  -1.645   1.512  0.00  0.00    -0.008 C 
BRANCH  20  22
ATOM     22  C   UNL     1      -0.504  -3.854   1.261  0.00  0.00    -0.060 A 
ATOM     23  C   UNL     1       0.009  -4.472   0.136  0.00  0.00    +0.003 A 
ATOM     24  C   UNL     1       0.219  -5.838   0.132  0.00  0.00    +0.021 A 
ATOM     25  C   UNL     1      -0.083  -6.588   1.255  0.00  0.00    +0.059 A 
ATOM     26  C   UNL     1      -0.597  -5.968   2.381  0.00  0.00    +0.059 A 
ATOM     27  C   UNL     1      -0.802  -4.600   2.385  0.00  0.00    +0.023 A 
ATOM     28 CL   UNL     1      -0.977  -6.908   3.791  0.00  0.00    -0.082 Cl
ATOM     29 CL   UNL     1       0.180  -8.303   1.250  0.00  0.00    -0.082 Cl
ENDBRANCH  20  22
ENDBRANCH  18  20
BRANCH  18  30
ATOM     30  C   UNL     1      -1.391  -0.486  -0.077  0.00  0.00    -0.078 C 
BRANCH  30  32
ATOM     31  C   UNL     1      -2.242   1.524   1.138  0.00  0.00    +0.002 C 
ATOM     32  C   UNL     1      -2.226  -0.006   1.112  0.00  0.00    -0.022 C 
ENDBRANCH  30  32
ENDBRANCH  18  30
ENDBRANCH   1  18
TORSDOF 9
