REMARK  Name = ZINC00637697
REMARK  7 active torsions:
REMARK  status: ('A' for Active; 'I' for Inactive)
REMARK    1  A    between atoms: C_4  and  S_7
REMARK    2  A    between atoms: S_7  and  N_10
REMARK    3  A    between atoms: N_10  and  C_11
REMARK    4  A    between atoms: N_10  and  C_25
REMARK    5  A    between atoms: C_11  and  C_12
REMARK    6  A    between atoms: N_14  and  C_15
REMARK    7  A    between atoms: C_27  and  C_32
REMARK                            x       y       z     vdW  Elec       q    Type
REMARK                         _______ _______ _______ _____ _____    ______ ____
ROOT
ATOM      1  N   UNL     1       1.157   3.420   0.044  0.00  0.00    -0.193 N 
ENDROOT
BRANCH   1   2
ATOM      2  C   UNL     1       1.234   2.026   0.094  0.00  0.00    +0.071 A 
ATOM      3  C   UNL     1       2.451   1.404   0.344  0.00  0.00    +0.038 A 
ATOM      4  C   UNL     1       2.523   0.026   0.392  0.00  0.00    +0.057 A 
ATOM      5  C   UNL     1       1.387  -0.736   0.192  0.00  0.00    +0.014 A 
ATOM      6  C   UNL     1       0.173  -0.121  -0.057  0.00  0.00    +0.022 A 
ATOM      7  C   UNL     1       0.093   1.257  -0.107  0.00  0.00    +0.064 A 
ATOM      8 CL   UNL     1      -1.430   2.029  -0.419  0.00  0.00    -0.082 Cl
BRANCH   4   9
ATOM      9  C   UNL     1       3.844  -0.649   0.663  0.00  0.00    +0.417 C 
ATOM     10  F   UNL     1       4.003  -0.826   2.042  0.00  0.00    -0.166 F 
ATOM     11  F   UNL     1       3.870  -1.895   0.027  0.00  0.00    -0.166 F 
ATOM     12  F   UNL     1       4.884   0.147   0.172  0.00  0.00    -0.166 F 
ENDBRANCH   4   9
ENDBRANCH   1   2
BRANCH   1  13
ATOM     13  S   UNL     1       1.306   4.207  -1.405  0.00  0.00    +0.075 S 
ATOM     14  O   UNL     1       1.743   5.526  -1.108  0.00  0.00    -0.150 OA
ATOM     15  O   UNL     1       2.031   3.339  -2.265  0.00  0.00    -0.150 OA
BRANCH  13  19
ATOM     16  C   UNL     1      -2.852   4.586  -3.156  0.00  0.00    +0.000 A 
ATOM     17  C   UNL     1      -2.355   5.579  -2.332  0.00  0.00    +0.002 A 
ATOM     18  C   UNL     1      -1.086   5.463  -1.797  0.00  0.00    +0.029 A 
ATOM     19  C   UNL     1      -0.312   4.354  -2.086  0.00  0.00    +0.109 A 
ATOM     20  C   UNL     1      -0.807   3.364  -2.914  0.00  0.00    +0.029 A 
ATOM     21  C   UNL     1      -2.078   3.477  -3.445  0.00  0.00    +0.002 A 
ENDBRANCH  13  19
ENDBRANCH   1  13
BRANCH   1  22
ATOM     22  C   UNL     1       0.944   4.186   1.275  0.00  0.00    +0.227 C 
BRANCH  22  23
ATOM     23  C   UNL     1       2.272   4.448   1.939  0.00  0.00    +0.232 C 
ATOM     24  O   UNL     1       3.301   4.131   1.382  0.00  0.00    -0.274 OA
ATOM     25  N   UNL     1       2.314   5.035   3.151  0.00  0.00    -0.311 N 
ATOM     26  H   UNL     1       1.491   5.289   3.597  0.00  0.00    +0.149 HD
BRANCH  25  27
ATOM     27  C   UNL     1       3.604   5.290   3.797  0.00  0.00    +0.076 C 
ATOM     28  C   UNL     1       3.420   5.459   5.322  0.00  0.00    +0.026 C 
ATOM     29  C   UNL     1       3.913   6.907   5.622  0.00  0.00    -0.009 C 
ATOM     30  C   UNL     1       2.815   7.828   5.008  0.00  0.00    +0.004 C 
ATOM     31  C   UNL     1       2.980   7.667   3.479  0.00  0.00    +0.005 C 
ATOM     32  C   UNL     1       4.192   6.653   3.318  0.00  0.00    +0.010 C 
ATOM     33  C   UNL     1       5.063   7.047   4.563  0.00  0.00    +0.009 C 
ENDBRANCH  25  27
ENDBRANCH  22  23
ENDBRANCH   1  22
TORSDOF 7
