REMARK  Name = ZINC58900129
REMARK  12 active torsions:
REMARK  status: ('A' for Active; 'I' for Inactive)
REMARK    1  A    between atoms: C_1  and  C_2
REMARK    2  A    between atoms: C_2  and  N_3
REMARK    3  A    between atoms: C_14  and  C_16
REMARK    4  A    between atoms: C_18  and  C_29
REMARK    5  A    between atoms: C_19  and  C_28
REMARK    6  A    between atoms: C_21  and  N_27
REMARK    7  A    between atoms: C_22  and  C_23
REMARK    8  A    between atoms: C_23  and  O_25
REMARK    9  A    between atoms: O_25  and  C_26
REMARK   10  A    between atoms: C_29  and  O_31
REMARK   11  A    between atoms: O_31  and  C_32
REMARK   12  A    between atoms: C_32  and  C_33
REMARK                            x       y       z     vdW  Elec       q    Type
REMARK                         _______ _______ _______ _____ _____    ______ ____
ROOT
ATOM      1  C   UNL     1      -0.888  -1.649   6.489  0.00  0.00    +0.101 C 
ATOM      2  C   UNL     1      -1.702  -2.913   6.527  0.00  0.00    +0.086 C 
ATOM      3  C   UNL     1      -3.028  -2.879   6.709  0.00  0.00    +0.115 C 
ATOM      4  O   UNL     1      -3.695  -1.724   6.867  0.00  0.00    -0.446 OA
ATOM      5  C   UNL     1      -3.030  -0.609   7.217  0.00  0.00    +0.195 C 
ATOM      6  C   UNL     1      -1.686  -0.509   7.061  0.00  0.00    +0.105 C 
ATOM      7  C   UNL     1      -3.795  -4.176   6.739  0.00  0.00    +0.087 C 
ENDROOT
BRANCH   1  19
ATOM      8  N   UNL     1       0.741  -0.482   1.208  0.00  0.00    -0.340 N 
ATOM      9  C   UNL     1       2.119  -0.513   1.337  0.00  0.00    +0.050 A 
ATOM     10  C   UNL     1       3.150  -0.308   0.425  0.00  0.00    +0.026 A 
ATOM     11  C   UNL     1       4.462  -0.402   0.835  0.00  0.00    +0.002 A 
ATOM     12  C   UNL     1       4.770  -0.700   2.153  0.00  0.00    +0.001 A 
ATOM     13  C   UNL     1       3.763  -0.906   3.071  0.00  0.00    +0.010 A 
ATOM     14  C   UNL     1       2.432  -0.815   2.670  0.00  0.00    +0.008 A 
ATOM     15  C   UNL     1       1.147  -0.972   3.376  0.00  0.00    +0.008 A 
ATOM     16  C   UNL     1       0.140  -0.750   2.425  0.00  0.00    +0.050 A 
ATOM     17  C   UNL     1      -1.194  -0.829   2.814  0.00  0.00    +0.027 A 
ATOM     18  C   UNL     1      -1.515  -1.118   4.122  0.00  0.00    +0.006 A 
ATOM     19  C   UNL     1      -0.519  -1.334   5.062  0.00  0.00    -0.034 A 
ATOM     20  C   UNL     1       0.808  -1.269   4.694  0.00  0.00    +0.015 A 
BRANCH   8  22
ATOM     21  C   UNL     1      -0.218   1.307  -0.156  0.00  0.00    +0.027 C 
ATOM     22  C   UNL     1       0.023  -0.199  -0.037  0.00  0.00    +0.119 C 
ENDBRANCH   8  22
ENDBRANCH   1  19
BRANCH   5  23
ATOM     23  N   UNL     1      -3.725   0.447   7.742  0.00  0.00    -0.329 N 
ATOM     24  H   UNL     1      -4.672   0.359   7.930  0.00  0.00    +0.145 HD
ATOM     25  H   UNL     1      -3.269   1.284   7.925  0.00  0.00    +0.145 HD
ENDBRANCH   5  23
BRANCH   6  26
ATOM     26  C   UNL     1      -1.033   0.673   7.441  0.00  0.00    +0.341 C 
ATOM     27  O   UNL     1      -0.420   0.720   8.493  0.00  0.00    -0.245 OA
BRANCH  26  28
ATOM     28  O   UNL     1      -1.084   1.760   6.640  0.00  0.00    -0.465 OA
ATOM     29  C   UNL     1      -0.396   2.929   7.089  0.00  0.00    +0.280 C 
ENDBRANCH  26  28
ENDBRANCH   6  26
BRANCH   2  30
ATOM     30  C   UNL     1      -1.054  -4.163   6.366  0.00  0.00    +0.339 C 
ATOM     31  O   UNL     1      -0.481  -4.676   7.309  0.00  0.00    -0.245 OA
BRANCH  30  32
ATOM     32  O   UNL     1      -1.071  -4.783   5.168  0.00  0.00    -0.462 OA
BRANCH  32  33
ATOM     33  C   UNL     1      -0.398  -6.040   5.079  0.00  0.00    +0.229 C 
ATOM     34  C   UNL     1      -0.525  -6.587   3.655  0.00  0.00    +0.048 C 
ENDBRANCH  32  33
ENDBRANCH  30  32
ENDBRANCH   2  30
TORSDOF 8
