REMARK  Name = ZINC14948995
REMARK  7 active torsions:
REMARK  status: ('A' for Active; 'I' for Inactive)
REMARK    1  A    between atoms: C_3  and  C_11
REMARK    2  A    between atoms: C_11  and  N_12
REMARK    3  A    between atoms: N_12  and  C_13
REMARK    4  A    between atoms: N_12  and  C_20
REMARK    5  A    between atoms: C_13  and  C_14
REMARK    6  A    between atoms: C_20  and  C_21
REMARK    7  A    between atoms: N_24  and  C_27
REMARK                            x       y       z     vdW  Elec       q    Type
REMARK                         _______ _______ _______ _____ _____    ______ ____
ROOT
ATOM      1  N   UNL     1       4.591   1.067   1.927  0.00  0.00    +0.385 N 
ATOM      2  H   UNL     1       4.125   0.213   2.195  0.00  0.00    -0.081 HD
ENDROOT
BRANCH   1   3
ATOM      3  C   UNL     1       4.523   1.226   0.468  0.00  0.00    -0.024 C 
BRANCH   3   6
ATOM      4  C   UNL     1       1.075   2.077  -0.542  0.00  0.00    +0.020 A 
ATOM      5  C   UNL     1       2.376   2.446  -0.143  0.00  0.00    +0.021 A 
ATOM      6  C   UNL     1       3.081   1.311   0.039  0.00  0.00    +0.009 A 
ATOM      7  N   UNL     1       2.262   0.251  -0.233  0.00  0.00    -0.301 N 
ATOM      8  C   UNL     1       1.032   0.730  -0.588  0.00  0.00    +0.093 A 
ATOM      9  C   UNL     1       2.620  -1.094  -0.159  0.00  0.00    +0.177 A 
ATOM     10  N   UNL     1       3.767  -1.614   0.221  0.00  0.00    -0.231 NA
ATOM     11  C   UNL     1       3.952  -2.920   0.236  0.00  0.00    +0.121 A 
ATOM     12  C   UNL     1       2.910  -3.695  -0.157  0.00  0.00    +0.068 A 
ATOM     13  S   UNL     1       1.689  -2.446  -0.527  0.00  0.00    -0.058 S 
ENDBRANCH   3   6
ENDBRANCH   1   3
BRANCH   1  14
ATOM     14  C   UNL     1       3.932   2.209   2.575  0.00  0.00    -0.046 C 
BRANCH  14  15
ATOM     15  C   UNL     1       3.907   1.991   4.089  0.00  0.00    +0.102 C 
ATOM     16  C   UNL     1       3.129   3.136   4.784  0.00  0.00    +0.032 C 
ATOM     17  C   UNL     1       2.675   2.432   6.093  0.00  0.00    +0.030 C 
ATOM     18  C   UNL     1       2.436   0.983   5.619  0.00  0.00    +0.160 C 
ATOM     19  O   UNL     1       3.182   0.793   4.409  0.00  0.00    -0.378 OA
ENDBRANCH  14  15
ENDBRANCH   1  14
BRANCH   1  20
ATOM     20  C   UNL     1       5.998   1.010   2.348  0.00  0.00    -0.075 C 
BRANCH  20  21
ATOM     21  C   UNL     1       6.641  -0.268   1.807  0.00  0.00    -0.031 C 
ATOM     22  C   UNL     1       6.013  -1.486   2.491  0.00  0.00    -0.017 C 
ATOM     23  C   UNL     1       6.715  -2.756   2.004  0.00  0.00    -0.078 C 
ATOM     24  N   UNL     1       8.144  -2.687   2.336  0.00  0.00    +0.382 N 
ATOM     25  C   UNL     1       8.767  -1.564   1.627  0.00  0.00    -0.078 C 
ATOM     26  C   UNL     1       8.144  -0.248   2.099  0.00  0.00    -0.017 C 
ATOM     27  H   UNL     1       8.251  -2.557   3.331  0.00  0.00    -0.081 HD
BRANCH  24  28
ATOM     28  C   UNL     1       8.798  -3.941   1.937  0.00  0.00    -0.069 C 
ATOM     29  C   UNL     1       8.208  -5.122   2.734  0.00  0.00    -0.015 C 
ATOM     30  C   UNL     1       9.423  -6.044   3.002  0.00  0.00    -0.002 C 
ATOM     31  C   UNL     1      10.566  -5.034   3.272  0.00  0.00    -0.002 C 
ATOM     32  C   UNL     1      10.297  -3.884   2.279  0.00  0.00    -0.015 C 
ENDBRANCH  24  28
ENDBRANCH  20  21
ENDBRANCH   1  20
TORSDOF 7
