REMARK  Name = ZINC67389761
REMARK  8 active torsions:
REMARK  status: ('A' for Active; 'I' for Inactive)
REMARK    1  A    between atoms: C_1  and  C_2
REMARK    2  A    between atoms: C_5  and  C_26
REMARK    3  A    between atoms: N_8  and  C_10
REMARK    4  A    between atoms: C_10  and  C_11
REMARK    5  A    between atoms: C_11  and  N_12
REMARK    6  A    between atoms: N_15  and  N_16
REMARK    7  A    between atoms: C_17  and  C_19
REMARK    8  A    between atoms: C_19  and  C_20
REMARK                            x       y       z     vdW  Elec       q    Type
REMARK                         _______ _______ _______ _____ _____    ______ ____
ROOT
ATOM      1  N   UNL     1       2.927  -0.202   4.830  0.00  0.00    -0.300 N 
ATOM      2  C   UNL     1       4.167   0.278   5.047  0.00  0.00    +0.316 C 
ATOM      3  O   UNL     1       4.662   1.061   4.260  0.00  0.00    -0.251 OA
ATOM      4  N   UNL     1       4.859  -0.111   6.136  0.00  0.00    -0.218 N 
ATOM      5  H   UNL     1       2.532  -0.827   5.457  0.00  0.00    +0.150 HD
ATOM      6  H   UNL     1       5.752   0.234   6.292  0.00  0.00    +0.174 HD
ENDROOT
BRANCH   4   7
ATOM      7  N   UNL     1       4.289  -1.014   7.042  0.00  0.00    -0.233 N 
ATOM      8  C   UNL     1       4.981  -1.404   8.131  0.00  0.00    +0.229 C 
ATOM      9  O   UNL     1       6.098  -0.972   8.327  0.00  0.00    -0.274 OA
ATOM     10  H   UNL     1       3.396  -1.359   6.886  0.00  0.00    +0.173 HD
BRANCH   8  11
ATOM     11  C   UNL     1       4.367  -2.375   9.107  0.00  0.00    +0.101 C 
BRANCH  11  12
ATOM     12  C   UNL     1       5.354  -2.648  10.244  0.00  0.00    -0.002 C 
ATOM     13  C   UNL     1       6.589  -3.359   9.687  0.00  0.00    +0.004 C 
ATOM     14  C   UNL     1       7.576  -3.632  10.825  0.00  0.00    +0.000 C 
ATOM     15  C   UNL     1       6.908  -4.518  11.877  0.00  0.00    +0.000 C 
ATOM     16  C   UNL     1       5.673  -3.808  12.434  0.00  0.00    +0.000 C 
ATOM     17  C   UNL     1       4.686  -3.534  11.297  0.00  0.00    +0.004 C 
ENDBRANCH  11  12
ENDBRANCH   8  11
ENDBRANCH   4   7
BRANCH   1  18
ATOM     18  C   UNL     1       2.174   0.221   3.646  0.00  0.00    +0.087 C 
BRANCH  18  19
ATOM     19  C   UNL     1       0.807  -0.464   3.639  0.00  0.00    -0.060 C 
BRANCH  19  25
ATOM     20  C   UNL     1      -0.019   1.526   0.010  0.00  0.00    +0.005 C 
ATOM     21  C   UNL     1       0.002  -0.004   0.002  0.00  0.00    -0.031 C 
ATOM     22  C   UNL     1      -1.434  -0.535   0.015  0.00  0.00    +0.003 C 
ATOM     23  C   UNL     1      -2.117  -0.099   1.315  0.00  0.00    -0.031 C 
ATOM     24  C   UNL     1      -1.302  -0.604   2.507  0.00  0.00    -0.076 C 
ATOM     25  N   UNL     1       0.052  -0.040   2.452  0.00  0.00    +0.381 N 
ATOM     26  C   UNL     1       0.740  -0.512   1.242  0.00  0.00    -0.076 C 
ATOM     27  C   UNL     1      -3.528  -0.689   1.373  0.00  0.00    +0.005 C 
ATOM     28  H   UNL     1      -0.004   0.967   2.434  0.00  0.00    -0.082 HD
ENDBRANCH  19  25
ENDBRANCH  18  19
ENDBRANCH   1  18
TORSDOF 6
