REMARK  Name = ZINC39696174
REMARK  9 active torsions:
REMARK  status: ('A' for Active; 'I' for Inactive)
REMARK    1  A    between atoms: C_1  and  C_2
REMARK    2  A    between atoms: C_2  and  C_3
REMARK    3  A    between atoms: C_6  and  C_9
REMARK    4  A    between atoms: C_9  and  C_11
REMARK    5  A    between atoms: C_9  and  N_12
REMARK    6  A    between atoms: C_13  and  C_15
REMARK    7  A    between atoms: C_26  and  C_28
REMARK    8  A    between atoms: C_31  and  C_35
REMARK    9  A    between atoms: C_32  and  C_34
REMARK                            x       y       z     vdW  Elec       q    Type
REMARK                         _______ _______ _______ _____ _____    ______ ____
ROOT
ATOM      1  C   UNL     1       1.992  -4.373   7.185  0.00  0.00    +0.100 C 
ATOM      2  C   UNL     1       0.868  -3.971   8.167  0.00  0.00    +0.121 C 
ATOM      3  N   UNL     1       0.879  -5.031   9.202  0.00  0.00    -0.296 N 
ATOM      4  C   UNL     1       2.317  -5.319   9.421  0.00  0.00    +0.115 C 
ATOM      5  C   UNL     1       2.941  -5.257   8.012  0.00  0.00    -0.004 C 
ATOM      6  C   UNL     1       4.328  -4.625   8.078  0.00  0.00    -0.010 C 
ATOM      7  C   UNL     1       5.269  -5.550   8.856  0.00  0.00    -0.082 C 
ATOM      8  N   UNL     1       5.335  -6.856   8.189  0.00  0.00    +0.379 N 
ATOM      9  C   UNL     1       4.015  -7.498   8.213  0.00  0.00    -0.082 C 
ATOM     10  C   UNL     1       3.022  -6.655   7.408  0.00  0.00    -0.010 C 
ATOM     11  C   UNL     1      -0.180  -5.604   9.809  0.00  0.00    +0.247 C 
ATOM     12  O   UNL     1      -1.307  -5.352   9.430  0.00  0.00    -0.270 OA
ATOM     13  H   UNL     1       5.629  -6.730   7.232  0.00  0.00    -0.086 HD
ATOM     14  H   UNL     1       6.002  -7.443   8.668  0.00  0.00    -0.086 HD
ENDROOT
BRANCH  11  15
ATOM     15  C   UNL     1       0.030  -6.538  10.935  0.00  0.00    +0.037 A 
ATOM     16  C   UNL     1       1.227  -6.513  11.653  0.00  0.00    +0.013 A 
ATOM     17  C   UNL     1       1.417  -7.388  12.703  0.00  0.00    +0.004 A 
ATOM     18  C   UNL     1       0.423  -8.288  13.045  0.00  0.00    -0.047 A 
ATOM     19  C   UNL     1      -0.765  -8.318  12.338  0.00  0.00    -0.047 A 
ATOM     20  C   UNL     1      -0.970  -7.445  11.289  0.00  0.00    +0.016 A 
ATOM     21  C   UNL     1      -1.842  -9.302  12.717  0.00  0.00    +0.044 C 
ATOM     22  C   UNL     1       0.637  -9.241  14.193  0.00  0.00    +0.044 C 
ENDBRANCH  11  15
BRANCH   1  24
ATOM     23  N   UNL     1       3.269  -3.147   5.457  0.00  0.00    -0.308 N 
ATOM     24  C   UNL     1       2.716  -3.149   6.687  0.00  0.00    +0.219 C 
ATOM     25  O   UNL     1       2.802  -2.166   7.392  0.00  0.00    -0.275 OA
ATOM     26  H   UNL     1       3.201  -3.933   4.894  0.00  0.00    +0.149 HD
BRANCH  23  27
ATOM     27  C   UNL     1       3.973  -1.957   4.973  0.00  0.00    +0.100 C 
ATOM     28  C   UNL     1       2.965  -0.982   4.361  0.00  0.00    +0.033 C 
BRANCH  27  32
ATOM     29  C   UNL     1       6.828  -3.102   2.009  0.00  0.00    -0.048 A 
ATOM     30  C   UNL     1       7.149  -2.131   2.939  0.00  0.00    +0.004 A 
ATOM     31  C   UNL     1       6.225  -1.760   3.898  0.00  0.00    +0.006 A 
ATOM     32  C   UNL     1       4.980  -2.361   3.927  0.00  0.00    -0.027 A 
ATOM     33  C   UNL     1       4.659  -3.331   2.996  0.00  0.00    +0.006 A 
ATOM     34  C   UNL     1       5.581  -3.699   2.035  0.00  0.00    +0.004 A 
BRANCH  29  36
ATOM     35  C   UNL     1       7.670  -2.621  -0.273  0.00  0.00    +0.009 C 
ATOM     36  C   UNL     1       7.836  -3.506   0.964  0.00  0.00    +0.032 C 
ENDBRANCH  29  36
ENDBRANCH  27  32
ENDBRANCH  23  27
ENDBRANCH   1  24
TORSDOF 5
