REMARK  Name = ZINC16195503
REMARK  8 active torsions:
REMARK  status: ('A' for Active; 'I' for Inactive)
REMARK    1  A    between atoms: C_1  and  O_2
REMARK    2  A    between atoms: O_2  and  C_3
REMARK    3  A    between atoms: C_5  and  C_19
REMARK    4  A    between atoms: C_8  and  O_9
REMARK    5  A    between atoms: O_9  and  C_10
REMARK    6  A    between atoms: C_10  and  C_11
REMARK    7  A    between atoms: N_20  and  N_21
REMARK    8  A    between atoms: N_24  and  N_25
REMARK                            x       y       z     vdW  Elec       q    Type
REMARK                         _______ _______ _______ _____ _____    ______ ____
ROOT
ATOM      1  C   UNL     1      -5.830  -4.884   0.003  0.00  0.00    +0.163 A 
ATOM      2  C   UNL     1      -4.652  -4.203  -0.005  0.00  0.00    +0.059 A 
ATOM      3  C   UNL     1      -4.660  -2.783   0.009  0.00  0.00    -0.001 A 
ATOM      4  C   UNL     1      -5.946  -2.077   0.019  0.00  0.00    +0.027 A 
ATOM      5  C   UNL     1      -7.099  -2.796   0.021  0.00  0.00    +0.059 A 
ATOM      6  C   UNL     1      -7.058  -4.197   0.013  0.00  0.00    +0.175 A 
ATOM      7  I   UNL     1      -8.946  -1.806   0.035  0.00  0.00    -0.040 I 
ENDROOT
BRANCH   1   9
ATOM      8  C   UNL     1      -4.542  -6.882  -0.014  0.00  0.00    +0.277 C 
ATOM      9  O   UNL     1      -5.820  -6.243  -0.005  0.00  0.00    -0.491 OA
ENDBRANCH   1   9
BRANCH   3  10
ATOM     10  C   UNL     1      -3.463  -2.070   0.007  0.00  0.00    +0.140 C 
ATOM     11  N   UNL     1      -3.481  -0.719   0.015  0.00  0.00    -0.179 NA
BRANCH  11  12
ATOM     12  N   UNL     1      -2.373  -0.059   0.013  0.00  0.00    -0.247 N 
ATOM     13  C   UNL     1      -2.392   1.310   0.021  0.00  0.00    +0.213 C 
ATOM     14  N   UNL     1      -3.563   1.965   0.030  0.00  0.00    -0.369 N 
ATOM     15  N   UNL     1      -1.238   1.997   0.019  0.00  0.00    -0.197 N 
ATOM     16  H   UNL     1      -3.578   3.065   0.036  0.00  0.00    +0.159 HD
ATOM     17  H   UNL     1      -1.413  -0.596   0.005  0.00  0.00    +0.192 HD
ATOM     18  H   UNL     1      -1.254   3.097   0.025  0.00  0.00    +0.197 HD
ATOM     19  H   UNL     1      -4.508   1.402   0.031  0.00  0.00    +0.159 HD
BRANCH  15  20
ATOM     20  N   UNL     1      -0.016   1.313   0.009  0.00  0.00    +0.133 N 
ATOM     21  O   UNL     1       0.002  -0.004   0.002  0.00  0.00    -0.108 OA
ATOM     22  O   UNL     1       1.116   1.987   0.002  0.00  0.00    -0.108 OA
ENDBRANCH  15  20
ENDBRANCH  11  12
ENDBRANCH   3  10
BRANCH   6  23
ATOM     23  O   UNL     1      -8.213  -4.897   0.014  0.00  0.00    -0.483 OA
BRANCH  23  24
ATOM     24  C   UNL     1      -8.773  -5.226  -1.258  0.00  0.00    +0.264 C 
BRANCH  24  25
ATOM     25  C   UNL     1     -10.050  -6.002  -1.060  0.00  0.00    -0.010 A 
ATOM     26  C   UNL     1     -10.015  -7.381  -0.982  0.00  0.00    +0.008 A 
ATOM     27  C   UNL     1     -11.185  -8.093  -0.794  0.00  0.00    +0.020 A 
ATOM     28  C   UNL     1     -12.392  -7.425  -0.695  0.00  0.00    +0.041 A 
ATOM     29  C   UNL     1     -12.427  -6.044  -0.778  0.00  0.00    +0.020 A 
ATOM     30  C   UNL     1     -11.256  -5.333  -0.960  0.00  0.00    +0.008 A 
ATOM     31 CL   UNL     1     -13.863  -8.318  -0.465  0.00  0.00    -0.084 Cl
ENDBRANCH  24  25
ENDBRANCH  23  24
ENDBRANCH   6  23
TORSDOF 7
