REMARK  Name = ZINC61595670
REMARK  6 active torsions:
REMARK  status: ('A' for Active; 'I' for Inactive)
REMARK    1  A    between atoms: C_1  and  C_2
REMARK    2  A    between atoms: C_2  and  C_3
REMARK    3  A    between atoms: C_2  and  N_4
REMARK    4  A    between atoms: C_10  and  S_11
REMARK    5  A    between atoms: S_11  and  C_12
REMARK    6  A    between atoms: C_13  and  C_18
REMARK                            x       y       z     vdW  Elec       q    Type
REMARK                         _______ _______ _______ _____ _____    ______ ____
ROOT
ATOM      1  C   UNL     1      -2.462  -2.624  -3.376  0.00  0.00    +0.133 A 
ATOM      2  C   UNL     1      -2.100  -3.460  -4.446  0.00  0.00    +0.133 A 
ATOM      3  N   UNL     1      -2.974  -4.347  -4.912  0.00  0.00    -0.248 NA
ATOM      4  C   UNL     1      -4.172  -4.440  -4.371  0.00  0.00    +0.131 A 
ATOM      5  C   UNL     1      -4.529  -3.615  -3.314  0.00  0.00    +0.132 A 
ATOM      6  N   UNL     1      -3.671  -2.732  -2.837  0.00  0.00    -0.245 NA
ENDROOT
BRANCH   2   7
ATOM      7  C   UNL     1      -0.756  -3.353  -5.051  0.00  0.00    +0.116 C 
ATOM      8  N   UNL     1       0.301  -3.091  -4.284  0.00  0.00    -0.385 N 
ATOM      9  N   UNL     1      -0.601  -3.518  -6.364  0.00  0.00    -0.343 N 
ATOM     10  H   UNL     1       0.204  -3.057  -3.319  0.00  0.00    +0.157 HD
ATOM     11  H   UNL     1      -1.370  -3.708  -6.923  0.00  0.00    +0.144 HD
ATOM     12  H   UNL     1       0.281  -3.448  -6.761  0.00  0.00    +0.144 HD
ATOM     13  H   UNL     1       1.168  -2.935  -4.689  0.00  0.00    +0.157 HD
ENDBRANCH   2   7
BRANCH   1  14
ATOM     14  S   UNL     1      -1.314  -1.444  -2.748  0.00  0.00    -0.028 S 
BRANCH  14  21
ATOM     15  N   UNL     1      -1.699   0.353  -0.639  0.00  0.00    -0.268 N 
ATOM     16  C   UNL     1      -2.660   0.703   0.240  0.00  0.00    +0.345 A 
ATOM     17  O   UNL     1      -2.574   1.566   1.095  0.00  0.00    -0.245 OA
ATOM     18  N   UNL     1      -3.734  -0.076  -0.001  0.00  0.00    -0.226 N 
ATOM     19  H   UNL     1      -4.579  -0.052   0.474  0.00  0.00    +0.194 HD
ATOM     20  N   UNL     1      -3.406  -0.927  -1.066  0.00  0.00    -0.144 NA
ATOM     21  C   UNL     1      -2.189  -0.654  -1.439  0.00  0.00    +0.198 A 
BRANCH  15  23
ATOM     22  C   UNL     1      -0.490   2.446  -1.017  0.00  0.00    +0.031 C 
ATOM     23  C   UNL     1      -0.363   0.948  -0.730  0.00  0.00    +0.088 C 
ATOM     24  C   UNL     1       0.378   0.744   0.593  0.00  0.00    +0.031 C 
ENDBRANCH  15  23
ENDBRANCH  14  21
ENDBRANCH   1  14
TORSDOF 4
