REMARK  Name = ZINC58880944
REMARK  11 active torsions:
REMARK  status: ('A' for Active; 'I' for Inactive)
REMARK    1  A    between atoms: C_1  and  C_2
REMARK    2  A    between atoms: C_2  and  C_3
REMARK    3  A    between atoms: C_2  and  C_4
REMARK    4  A    between atoms: C_7  and  N_10
REMARK    5  A    between atoms: C_11  and  C_13
REMARK    6  A    between atoms: N_15  and  N_16
REMARK    7  A    between atoms: C_17  and  C_18
REMARK    8  A    between atoms: C_21  and  O_24
REMARK    9  A    between atoms: O_24  and  C_25
REMARK   10  A    between atoms: C_25  and  C_26
REMARK   11  A    between atoms: N_28  and  C_29
REMARK                            x       y       z     vdW  Elec       q    Type
REMARK                         _______ _______ _______ _____ _____    ______ ____
ROOT
ATOM      1  N   UNL     1       3.015  -4.579   8.663  0.00  0.00    -0.187 NA
ATOM      2  C   UNL     1       2.325  -5.114   9.626  0.00  0.00    +0.138 C 
ENDROOT
BRANCH   2   3
ATOM      3  C   UNL     1       2.989  -5.492  10.885  0.00  0.00    -0.005 A 
ATOM      4  C   UNL     1       4.360  -5.273  11.048  0.00  0.00    +0.013 A 
ATOM      5  C   UNL     1       4.977  -5.629  12.228  0.00  0.00    +0.046 A 
ATOM      6  C   UNL     1       4.239  -6.206  13.254  0.00  0.00    +0.121 A 
ATOM      7  C   UNL     1       2.876  -6.427  13.096  0.00  0.00    +0.046 A 
ATOM      8  C   UNL     1       2.249  -6.068  11.922  0.00  0.00    +0.013 A 
BRANCH   6   9
ATOM      9  O   UNL     1       4.851  -6.556  14.414  0.00  0.00    -0.483 OA
BRANCH   9  10
ATOM     10  C   UNL     1       4.033  -7.144  15.428  0.00  0.00    +0.324 C 
BRANCH  10  11
ATOM     11  C   UNL     1       4.879  -7.464  16.633  0.00  0.00    +0.255 C 
ATOM     12  O   UNL     1       6.066  -7.212  16.625  0.00  0.00    -0.272 OA
ATOM     13  N   UNL     1       4.317  -8.029  17.720  0.00  0.00    -0.283 N 
ATOM     14  H   UNL     1       3.385  -8.298  17.700  0.00  0.00    +0.155 HD
BRANCH  13  15
ATOM     15  C   UNL     1       5.078  -8.227  18.878  0.00  0.00    +0.035 A 
ATOM     16  C   UNL     1       4.834  -9.327  19.690  0.00  0.00    +0.023 A 
ATOM     17  C   UNL     1       5.587  -9.521  20.832  0.00  0.00    +0.003 A 
ATOM     18  C   UNL     1       6.581  -8.621  21.168  0.00  0.00    +0.020 A 
ATOM     19  C   UNL     1       6.827  -7.524  20.361  0.00  0.00    +0.043 A 
ATOM     20  C   UNL     1       6.080  -7.328  19.214  0.00  0.00    +0.043 A 
ATOM     21 CL   UNL     1       8.076  -6.396  20.786  0.00  0.00    -0.083 Cl
ENDBRANCH  13  15
ENDBRANCH  10  11
ENDBRANCH   9  10
ENDBRANCH   6   9
ENDBRANCH   2   3
BRANCH   1  24
ATOM     22  C   UNL     1       3.098  -3.664   6.466  0.00  0.00    +0.318 C 
ATOM     23  O   UNL     1       4.290  -3.477   6.604  0.00  0.00    -0.263 OA
ATOM     24  N   UNL     1       2.383  -4.219   7.465  0.00  0.00    -0.199 N 
ATOM     25  H   UNL     1       1.431  -4.368   7.355  0.00  0.00    +0.178 HD
BRANCH  22  27
ATOM     26  N   UNL     1       3.141  -2.727   4.193  0.00  0.00    -0.278 N 
ATOM     27  C   UNL     1       2.426  -3.281   5.192  0.00  0.00    +0.305 C 
ATOM     28  O   UNL     1       1.234  -3.468   5.054  0.00  0.00    -0.265 OA
ATOM     29  H   UNL     1       4.105  -2.645   4.274  0.00  0.00    +0.155 HD
BRANCH  26  33
ATOM     30  C   UNL     1       1.216  -1.364   0.762  0.00  0.00    -0.045 A 
ATOM     31  C   UNL     1       2.490  -1.893   0.673  0.00  0.00    +0.006 A 
ATOM     32  C   UNL     1       3.132  -2.345   1.809  0.00  0.00    +0.023 A 
ATOM     33  C   UNL     1       2.495  -2.269   3.042  0.00  0.00    +0.034 A 
ATOM     34  C   UNL     1       1.215  -1.737   3.127  0.00  0.00    +0.023 A 
ATOM     35  C   UNL     1       0.581  -1.281   1.988  0.00  0.00    +0.006 A 
BRANCH  30  37
ATOM     36  C   UNL     1       1.346   0.247  -1.120  0.00  0.00    +0.012 C 
ATOM     37  C   UNL     1       0.519  -0.871  -0.480  0.00  0.00    +0.013 C 
ATOM     38  C   UNL     1       0.368  -2.025  -1.473  0.00  0.00    +0.012 C 
ENDBRANCH  30  37
ENDBRANCH  26  33
ENDBRANCH  22  27
ENDBRANCH   1  24
TORSDOF 9
