REMARK  Name = ZINC42511429
REMARK  10 active torsions:
REMARK  status: ('A' for Active; 'I' for Inactive)
REMARK    1  A    between atoms: C_1  and  C_2
REMARK    2  A    between atoms: C_2  and  C_3
REMARK    3  A    between atoms: C_2  and  N_4
REMARK    4  A    between atoms: N_4  and  C_5
REMARK    5  A    between atoms: N_4  and  C_9
REMARK    6  A    between atoms: C_5  and  C_6
REMARK    7  A    between atoms: C_6  and  C_7
REMARK    8  A    between atoms: C_7  and  O_8
REMARK    9  A    between atoms: C_14  and  C_15
REMARK   10  A    between atoms: C_15  and  N_16
REMARK                            x       y       z     vdW  Elec       q    Type
REMARK                         _______ _______ _______ _____ _____    ______ ____
ROOT
ATOM      1  C   UNL     1      -2.249  -0.097   1.132  0.00  0.00    +0.032 A 
ATOM      2  C   UNL     1      -2.225  -0.859   2.294  0.00  0.00    +0.038 A 
ATOM      3  C   UNL     1      -3.039  -0.521   3.357  0.00  0.00    +0.020 A 
ATOM      4  C   UNL     1      -3.878   0.576   3.267  0.00  0.00    +0.015 A 
ATOM      5  C   UNL     1      -3.904   1.336   2.112  0.00  0.00    +0.004 A 
ATOM      6  C   UNL     1      -3.089   1.006   1.047  0.00  0.00    -0.044 A 
ATOM      7 BR   UNL     1      -3.006  -1.557   4.939  0.00  0.00    -0.050 Br
ENDROOT
BRANCH   1   8
ATOM      8  N   UNL     1      -1.427  -0.436   0.055  0.00  0.00    -0.327 N 
BRANCH   8  10
ATOM      9  C   UNL     1       0.006   1.541   0.178  0.00  0.00    +0.027 C 
ATOM     10  C   UNL     1      -0.036   0.020   0.024  0.00  0.00    +0.067 C 
ATOM     11  C   UNL     1       0.740  -0.631   1.171  0.00  0.00    +0.027 C 
ENDBRANCH   8  10
BRANCH   8  12
ATOM     12  C   UNL     1      -1.957  -1.248  -1.043  0.00  0.00    +0.107 C 
BRANCH  12  13
ATOM     13  C   UNL     1      -1.592  -2.716  -0.814  0.00  0.00    +0.047 C 
BRANCH  13  14
ATOM     14  C   UNL     1      -2.037  -3.546  -2.021  0.00  0.00    +0.157 C 
BRANCH  14  15
ATOM     15  O   UNL     1      -1.696  -4.917  -1.807  0.00  0.00    -0.395 OA
ATOM     16  H   UNL     1      -1.949  -5.503  -2.533  0.00  0.00    +0.209 HD
ENDBRANCH  14  15
ENDBRANCH  13  14
ENDBRANCH  12  13
ENDBRANCH   8  12
ENDBRANCH   1   8
BRANCH   6  17
ATOM     17  C   UNL     1      -3.114   1.839  -0.208  0.00  0.00    -0.049 C 
BRANCH  17  18
ATOM     18  N   UNL     1      -4.031   1.231  -1.182  0.00  0.00    +0.381 N 
ATOM     19  H   UNL     1      -3.762   0.272  -1.343  0.00  0.00    -0.090 HD
ATOM     20  H   UNL     1      -4.972   1.260  -0.820  0.00  0.00    -0.090 HD
ATOM     21  H   UNL     1      -3.988   1.743  -2.050  0.00  0.00    -0.090 HD
ENDBRANCH  17  18
ENDBRANCH   6  17
TORSDOF 8
