REMARK  Name = ZINC27559790
REMARK  10 active torsions:
REMARK  status: ('A' for Active; 'I' for Inactive)
REMARK    1  A    between atoms: C_1  and  C_2
REMARK    2  A    between atoms: C_6  and  N_8
REMARK    3  A    between atoms: C_9  and  C_11
REMARK    4  A    between atoms: C_16  and  N_17
REMARK    5  A    between atoms: C_18  and  C_20
REMARK    6  A    between atoms: C_20  and  N_21
REMARK    7  A    between atoms: N_24  and  C_27
REMARK    8  A    between atoms: C_27  and  C_28
REMARK    9  A    between atoms: N_30  and  C_31
REMARK   10  A    between atoms: C_31  and  C_32
REMARK                            x       y       z     vdW  Elec       q    Type
REMARK                         _______ _______ _______ _____ _____    ______ ____
ROOT
ATOM      1  N   UNL     1      -1.199   1.895  -0.026  0.00  0.00    -0.284 N 
ATOM      2  C   UNL     1      -0.014   1.252  -0.044  0.00  0.00    +0.231 C 
ATOM      3  O   UNL     1       0.018   0.040  -0.021  0.00  0.00    -0.274 OA
ATOM      4  H   UNL     1      -1.228   2.993   0.048  0.00  0.00    +0.155 HD
ENDROOT
BRANCH   1  10
ATOM      5  C   UNL     1      -3.570   1.700   0.432  0.00  0.00    +0.058 A 
ATOM      6  C   UNL     1      -4.755   0.965   0.345  0.00  0.00    +0.015 A 
ATOM      7  C   UNL     1      -4.752  -0.275  -0.254  0.00  0.00    +0.001 A 
ATOM      8  C   UNL     1      -3.579  -0.798  -0.776  0.00  0.00    +0.002 A 
ATOM      9  C   UNL     1      -2.402  -0.081  -0.702  0.00  0.00    +0.024 A 
ATOM     10  C   UNL     1      -2.386   1.171  -0.102  0.00  0.00    +0.046 A 
BRANCH   5  12
ATOM     11  N   UNL     1      -4.680   3.488   1.678  0.00  0.00    -0.281 N 
ATOM     12  C   UNL     1      -3.565   3.026   1.078  0.00  0.00    +0.250 C 
ATOM     13  O   UNL     1      -2.554   3.703   1.069  0.00  0.00    -0.270 OA
ATOM     14  H   UNL     1      -5.619   2.919   1.606  0.00  0.00    +0.155 HD
BRANCH  11  20
ATOM     15  C   UNL     1      -7.016   7.445   3.424  0.00  0.00    +0.044 C 
ATOM     16  C   UNL     1      -5.761   6.628   3.254  0.00  0.00    -0.049 A 
ATOM     17  C   UNL     1      -4.571   7.068   3.804  0.00  0.00    +0.003 A 
ATOM     18  C   UNL     1      -3.417   6.322   3.650  0.00  0.00    +0.002 A 
ATOM     19  C   UNL     1      -3.450   5.134   2.945  0.00  0.00    +0.023 A 
ATOM     20  C   UNL     1      -4.643   4.690   2.392  0.00  0.00    +0.034 A 
ATOM     21  C   UNL     1      -5.799   5.444   2.544  0.00  0.00    +0.026 A 
ENDBRANCH  11  20
ENDBRANCH   5  12
ENDBRANCH   1  10
BRANCH   2  22
ATOM     22  C   UNL     1       1.270   2.039  -0.098  0.00  0.00    +0.180 C 
BRANCH  22  23
ATOM     23  N   UNL     1       2.411   1.114  -0.114  0.00  0.00    -0.298 NA
ATOM     24  C   UNL     1       2.509   0.377   1.153  0.00  0.00    +0.066 C 
ATOM     25  C   UNL     1       3.659  -0.630   1.066  0.00  0.00    -0.063 C 
ATOM     26  N   UNL     1       4.910   0.083   0.776  0.00  0.00    +0.387 N 
ATOM     27  C   UNL     1       4.812   0.820  -0.491  0.00  0.00    -0.063 C 
ATOM     28  C   UNL     1       3.663   1.827  -0.404  0.00  0.00    +0.066 C 
ATOM     29  H   UNL     1       5.080   0.813   1.582  0.00  0.00    -0.081 HD
BRANCH  26  30
ATOM     30  C   UNL     1       6.051  -0.842   0.760  0.00  0.00    +0.019 C 
BRANCH  30  31
ATOM     31  C   UNL     1       6.270  -1.395   2.145  0.00  0.00    +0.197 C 
ATOM     32  O   UNL     1       5.546  -1.052   3.056  0.00  0.00    -0.278 OA
ATOM     33  N   UNL     1       7.269  -2.270   2.371  0.00  0.00    -0.313 N 
ATOM     34  H   UNL     1       7.926  -2.581   1.545  0.00  0.00    +0.149 HD
BRANCH  33  35
ATOM     35  C   UNL     1       7.482  -2.807   3.717  0.00  0.00    +0.131 C 
BRANCH  35  36
ATOM     36  C   UNL     1       8.652  -3.756   3.701  0.00  0.00    -0.016 C 
ATOM     37  C   UNL     1       9.657  -3.572   4.521  0.00  0.00    +0.005 C 
ENDBRANCH  35  36
ENDBRANCH  33  35
ENDBRANCH  30  31
ENDBRANCH  26  30
ENDBRANCH  22  23
ENDBRANCH   2  22
TORSDOF 9
