REMARK  Name = ZINC00708091
REMARK  11 active torsions:
REMARK  status: ('A' for Active; 'I' for Inactive)
REMARK    1  A    between atoms: C_1  and  C_2
REMARK    2  A    between atoms: C_3  and  C_32
REMARK    3  A    between atoms: C_4  and  C_22
REMARK    4  A    between atoms: C_10  and  C_15
REMARK    5  A    between atoms: C_24  and  O_30
REMARK    6  A    between atoms: C_25  and  O_29
REMARK    7  A    between atoms: O_30  and  C_31
REMARK    8  A    between atoms: C_32  and  O_34
REMARK    9  A    between atoms: O_34  and  C_35
REMARK   10  A    between atoms: C_35  and  C_36
REMARK   11  A    between atoms: C_35  and  C_37
REMARK                            x       y       z     vdW  Elec       q    Type
REMARK                         _______ _______ _______ _____ _____    ______ ____
ROOT
ATOM      1  C   UNL     1      -1.366   1.918  -0.500  0.00  0.00    +0.061 C 
ATOM      2  C   UNL     1      -0.032   1.269  -0.239  0.00  0.00    +0.031 C 
ATOM      3  C   UNL     1       0.030  -0.049   0.019  0.00  0.00    +0.154 C 
ATOM      4  C   UNL     1       1.341  -0.731   0.277  0.00  0.00    +0.073 C 
ATOM      5  C   UNL     1       2.416   0.269   0.620  0.00  0.00    +0.025 C 
ATOM      6  C   UNL     1       2.255   1.577   0.334  0.00  0.00    +0.049 C 
ATOM      7  N   UNL     1       1.108   2.023  -0.267  0.00  0.00    -0.260 NA
ATOM      8  C   UNL     1       3.322   2.587   0.681  0.00  0.00    +0.064 C 
ATOM      9  C   UNL     1       4.697   1.920   0.619  0.00  0.00    +0.032 C 
ATOM     10  C   UNL     1       4.710   0.738   1.594  0.00  0.00    +0.088 C 
ATOM     11  C   UNL     1       3.587  -0.200   1.240  0.00  0.00    +0.162 C 
ATOM     12  O   UNL     1       3.695  -1.383   1.494  0.00  0.00    -0.292 OA
ENDROOT
BRANCH   9  13
ATOM     13  C   UNL     1       5.760   2.913   1.014  0.00  0.00    -0.043 A 
ATOM     14  C   UNL     1       5.728   3.498   2.266  0.00  0.00    +0.005 A 
ATOM     15  C   UNL     1       6.706   4.404   2.630  0.00  0.00    +0.020 A 
ATOM     16  C   UNL     1       7.711   4.734   1.738  0.00  0.00    +0.041 A 
ATOM     17  C   UNL     1       7.739   4.152   0.483  0.00  0.00    +0.020 A 
ATOM     18  C   UNL     1       6.764   3.242   0.122  0.00  0.00    +0.005 A 
ATOM     19 CL   UNL     1       8.935   5.878   2.192  0.00  0.00    -0.084 Cl
ENDBRANCH   9  13
BRANCH   4  20
ATOM     20  C   UNL     1       1.749  -1.490  -0.960  0.00  0.00    -0.034 A 
ATOM     21  C   UNL     1       1.937  -2.858  -0.900  0.00  0.00    +0.053 A 
ATOM     22  C   UNL     1       2.307  -3.558  -2.037  0.00  0.00    +0.163 A 
ATOM     23  C   UNL     1       2.501  -2.879  -3.236  0.00  0.00    +0.173 A 
ATOM     24  C   UNL     1       2.317  -1.506  -3.288  0.00  0.00    +0.063 A 
ATOM     25  C   UNL     1       1.942  -0.815  -2.151  0.00  0.00    +0.023 A 
ATOM     26 BR   UNL     1       2.579  -0.579  -4.915  0.00  0.00    -0.046 Br
BRANCH  23  27
ATOM     27  O   UNL     1       2.870  -3.561  -4.353  0.00  0.00    -0.503 OA
ATOM     28  H   UNL     1       3.826  -3.636  -4.470  0.00  0.00    +0.292 HD
ENDBRANCH  23  27
BRANCH  22  29
ATOM     29  O   UNL     1       2.486  -4.905  -1.980  0.00  0.00    -0.491 OA
ATOM     30  C   UNL     1       2.269  -5.535  -0.716  0.00  0.00    +0.277 C 
ENDBRANCH  22  29
ENDBRANCH   4  20
BRANCH   3  31
ATOM     31  C   UNL     1      -1.163  -0.807   0.051  0.00  0.00    +0.317 C 
ATOM     32  O   UNL     1      -2.241  -0.248  -0.032  0.00  0.00    -0.250 OA
BRANCH  31  33
ATOM     33  O   UNL     1      -1.108  -2.149   0.173  0.00  0.00    -0.461 OA
BRANCH  33  34
ATOM     34  C   UNL     1      -2.352  -2.851   0.199  0.00  0.00    +0.170 C 
ATOM     35  C   UNL     1      -2.753  -3.231  -1.228  0.00  0.00    +0.052 C 
ATOM     36  C   UNL     1      -2.206  -4.119   1.042  0.00  0.00    +0.052 C 
ENDBRANCH  33  34
ENDBRANCH  31  33
ENDBRANCH   3  31
TORSDOF 7
