REMARK  Name = ZINC12883578
REMARK  6 active torsions:
REMARK  status: ('A' for Active; 'I' for Inactive)
REMARK    1  A    between atoms: C_1  and  C_2
REMARK    2  A    between atoms: C_16  and  C_18
REMARK    3  A    between atoms: C_18  and  C_19
REMARK    4  A    between atoms: N_24  and  C_27
REMARK    5  A    between atoms: C_27  and  C_28
REMARK    6  A    between atoms: C_28  and  C_29
REMARK                            x       y       z     vdW  Elec       q    Type
REMARK                         _______ _______ _______ _____ _____    ______ ____
ROOT
ATOM      1  C   UNL     1      -1.333   2.121   0.020  0.00  0.00    +0.045 C 
ATOM      2  C   UNL     1      -0.017   1.388   0.010  0.00  0.00    -0.029 A 
ATOM      3  C   UNL     1       1.166   2.099   0.002  0.00  0.00    +0.005 A 
ATOM      4  C   UNL     1       2.378   1.435  -0.012  0.00  0.00    +0.001 A 
ATOM      5  C   UNL     1       2.407   0.051  -0.021  0.00  0.00    +0.004 A 
ATOM      6  C   UNL     1       1.229  -0.662  -0.014  0.00  0.00    -0.027 A 
ATOM      7  C   UNL     1       0.002  -0.004   0.002  0.00  0.00    +0.039 A 
ATOM      8  N   UNL     1      -1.043  -0.931   0.007  0.00  0.00    -0.286 N 
ATOM      9  C   UNL     1      -0.595  -2.201  -0.003  0.00  0.00    +0.211 C 
ATOM     10  O   UNL     1      -1.271  -3.208   0.000  0.00  0.00    -0.277 OA
ATOM     11  C   UNL     1       0.908  -2.129  -0.019  0.00  0.00    +0.050 C 
ATOM     12  C   UNL     1       1.516  -2.845   1.193  0.00  0.00    +0.088 C 
ATOM     13  C   UNL     1       1.915  -4.248   0.658  0.00  0.00    +0.073 C 
ATOM     14  C   UNL     1       1.497  -4.240  -0.827  0.00  0.00    -0.049 C 
ATOM     15  C   UNL     1       3.423  -4.243   0.753  0.00  0.00    +0.224 C 
ATOM     16  O   UNL     1       4.149  -5.158   0.426  0.00  0.00    -0.275 OA
ATOM     17  N   UNL     1       3.833  -3.072   1.254  0.00  0.00    -0.241 N 
ATOM     18  C   UNL     1       2.847  -2.214   1.539  0.00  0.00    +0.225 C 
ATOM     19  O   UNL     1       2.997  -1.104   2.003  0.00  0.00    -0.275 OA
ATOM     20  H   UNL     1      -1.982  -0.688   0.017  0.00  0.00    +0.155 HD
ATOM     21  N   UNL     1       1.454  -2.818  -1.175  0.00  0.00    +0.394 N 
ATOM     22  H   UNL     1       2.400  -2.474  -1.379  0.00  0.00    -0.083 HD
ATOM     23  H   UNL     1       0.853  -2.670  -1.994  0.00  0.00    -0.083 HD
ENDROOT
BRANCH  14  24
ATOM     24  C   UNL     1       2.526  -4.992  -1.674  0.00  0.00    +0.080 C 
BRANCH  24  25
ATOM     25  C   UNL     1       2.075  -5.011  -3.112  0.00  0.00    +0.209 C 
ATOM     26  O   UNL     1       1.033  -4.477  -3.428  0.00  0.00    -0.276 OA
ATOM     27  N   UNL     1       2.830  -5.623  -4.046  0.00  0.00    -0.329 N 
ATOM     28  H   UNL     1       3.663  -6.050  -3.793  0.00  0.00    +0.145 HD
ATOM     29  H   UNL     1       2.540  -5.636  -4.972  0.00  0.00    +0.145 HD
ENDBRANCH  24  25
ENDBRANCH  14  24
BRANCH  17  30
ATOM     30  C   UNL     1       5.247  -2.755   1.472  0.00  0.00    +0.121 C 
BRANCH  30  31
ATOM     31  C   UNL     1       5.824  -2.104   0.214  0.00  0.00    +0.054 C 
BRANCH  31  32
ATOM     32  C   UNL     1       7.278  -1.778   0.439  0.00  0.00    -0.046 A 
ATOM     33  C   UNL     1       7.639  -0.547   0.954  0.00  0.00    +0.004 A 
ATOM     34  C   UNL     1       8.972  -0.250   1.164  0.00  0.00    +0.000 A 
ATOM     35  C   UNL     1       9.945  -1.180   0.850  0.00  0.00    +0.000 A 
ATOM     36  C   UNL     1       9.585  -2.409   0.330  0.00  0.00    +0.000 A 
ATOM     37  C   UNL     1       8.251  -2.708   0.124  0.00  0.00    +0.004 A 
ENDBRANCH  31  32
ENDBRANCH  30  31
ENDBRANCH  17  30
TORSDOF 5
