REMARK  Name = ZINC64623163
REMARK  8 active torsions:
REMARK  status: ('A' for Active; 'I' for Inactive)
REMARK    1  A    between atoms: C_1  and  C_2
REMARK    2  A    between atoms: C_2  and  O_3
REMARK    3  A    between atoms: O_3  and  C_4
REMARK    4  A    between atoms: C_4  and  C_6
REMARK    5  A    between atoms: C_11  and  N_12
REMARK    6  A    between atoms: C_21  and  O_37
REMARK    7  A    between atoms: C_28  and  C_30
REMARK    8  A    between atoms: O_37  and  C_38
REMARK                            x       y       z     vdW  Elec       q    Type
REMARK                         _______ _______ _______ _____ _____    ______ ____
ROOT
ATOM      1  N   UNL     1       1.200  -4.556  -1.780  0.00  0.00    -0.269 N 
ATOM      2  C   UNL     1       1.450  -5.879  -1.735  0.00  0.00    +0.307 C 
ATOM      3  O   UNL     1       2.183  -6.388  -2.560  0.00  0.00    -0.252 OA
ATOM      4  N   UNL     1       0.887  -6.639  -0.774  0.00  0.00    -0.276 N 
ATOM      5  C   UNL     1       0.088  -6.003   0.278  0.00  0.00    +0.114 C 
ATOM      6  C   UNL     1       0.683  -6.351   1.655  0.00  0.00    +0.052 C 
ATOM      7  C   UNL     1       0.970  -7.832   1.639  0.00  0.00    -0.035 C 
ATOM      8  C   UNL     1       0.630  -8.801   2.479  0.00  0.00    +0.003 A 
ATOM      9  C   UNL     1      -0.054  -8.778   3.781  0.00  0.00    +0.055 A 
ATOM     10  C   UNL     1      -0.268  -9.982   4.381  0.00  0.00    +0.121 A 
ATOM     11  C   UNL     1       0.123 -11.211   3.831  0.00  0.00    +0.047 A 
ATOM     12  C   UNL     1       0.766 -11.348   2.643  0.00  0.00    +0.029 A 
ATOM     13  C   UNL     1       1.060 -10.113   1.903  0.00  0.00    +0.043 A 
ATOM     14  N   UNL     1       1.673  -9.934   0.772  0.00  0.00    -0.375 N 
ATOM     15  C   UNL     1       1.764  -8.495   0.519  0.00  0.00    +0.131 C 
ATOM     16  C   UNL     1       1.075  -8.098  -0.796  0.00  0.00    +0.134 C 
ATOM     17  H   UNL     1       0.668  -4.138  -1.085  0.00  0.00    +0.156 HD
ATOM     18  H   UNL     1       2.012 -10.635   0.193  0.00  0.00    +0.160 HD
ENDROOT
BRANCH  16  19
ATOM     19  C   UNL     1      -0.263  -8.784  -0.904  0.00  0.00    -0.025 A 
ATOM     20  C   UNL     1      -1.234  -8.558   0.053  0.00  0.00    +0.008 A 
ATOM     21  C   UNL     1      -2.461  -9.186  -0.045  0.00  0.00    +0.038 A 
ATOM     22  C   UNL     1      -2.717 -10.041  -1.103  0.00  0.00    +0.123 A 
ATOM     23  C   UNL     1      -1.744 -10.267  -2.061  0.00  0.00    +0.038 A 
ATOM     24  C   UNL     1      -0.519  -9.634  -1.964  0.00  0.00    +0.008 A 
ATOM     25  F   UNL     1      -3.917 -10.656  -1.199  0.00  0.00    -0.205 F 
ENDBRANCH  16  19
BRANCH   1  31
ATOM     26  C   UNL     1       1.019  -2.639  -3.252  0.00  0.00    +0.080 A 
ATOM     27  C   UNL     1       1.540  -1.873  -4.299  0.00  0.00    +0.017 A 
ATOM     28  C   UNL     1       2.715  -2.253  -4.910  0.00  0.00    +0.001 A 
ATOM     29  C   UNL     1       3.385  -3.391  -4.491  0.00  0.00    +0.002 A 
ATOM     30  C   UNL     1       2.884  -4.157  -3.458  0.00  0.00    +0.024 A 
ATOM     31  C   UNL     1       1.704  -3.787  -2.826  0.00  0.00    +0.049 A 
BRANCH  26  32
ATOM     32  C   UNL     1      -0.237  -2.238  -2.594  0.00  0.00    +0.341 C 
ATOM     33  O   UNL     1      -0.746  -2.965  -1.764  0.00  0.00    -0.245 OA
BRANCH  32  34
ATOM     34  O   UNL     1      -0.822  -1.067  -2.914  0.00  0.00    -0.461 OA
BRANCH  34  36
ATOM     35  C   UNL     1      -2.549   0.613  -2.729  0.00  0.00    +0.048 C 
ATOM     36  C   UNL     1      -2.038  -0.743  -2.238  0.00  0.00    +0.229 C 
ENDBRANCH  34  36
ENDBRANCH  32  34
ENDBRANCH  26  32
ENDBRANCH   1  31
BRANCH  10  37
ATOM     37  O   UNL     1      -0.897  -9.992   5.585  0.00  0.00    -0.495 OA
ATOM     38  C   UNL     1      -1.110 -11.267   6.195  0.00  0.00    +0.277 C 
ENDBRANCH  10  37
TORSDOF 6
