REMARK  Name = ZINC22919553
REMARK  9 active torsions:
REMARK  status: ('A' for Active; 'I' for Inactive)
REMARK    1  A    between atoms: C_1  and  C_2
REMARK    2  A    between atoms: C_6  and  N_9
REMARK    3  A    between atoms: C_7  and  C_8
REMARK    4  A    between atoms: C_10  and  C_12
REMARK    5  A    between atoms: C_12  and  N_13
REMARK    6  A    between atoms: N_16  and  C_19
REMARK    7  A    between atoms: C_19  and  N_20
REMARK    8  A    between atoms: C_23  and  C_27
REMARK    9  A    between atoms: C_23  and  C_28
REMARK                            x       y       z     vdW  Elec       q    Type
REMARK                         _______ _______ _______ _____ _____    ______ ____
ROOT
ATOM      1  N   UNL     1      -2.926   1.795  -6.866  0.00  0.00    +0.387 N 
ATOM      2  C   UNL     1      -3.120   0.344  -6.734  0.00  0.00    -0.063 C 
ATOM      3  C   UNL     1      -4.098   0.065  -5.591  0.00  0.00    +0.067 C 
ATOM      4  N   UNL     1      -3.570   0.638  -4.345  0.00  0.00    -0.290 NA
ATOM      5  C   UNL     1      -3.376   2.089  -4.477  0.00  0.00    +0.067 C 
ATOM      6  C   UNL     1      -2.397   2.368  -5.620  0.00  0.00    -0.063 C 
ATOM      7  H   UNL     1      -3.907   2.252  -7.061  0.00  0.00    -0.081 HD
ENDROOT
BRANCH   1   8
ATOM      8  C   UNL     1      -2.050   2.107  -8.003  0.00  0.00    +0.019 C 
BRANCH   8  10
ATOM      9  N   UNL     1      -1.335   4.113  -9.262  0.00  0.00    -0.287 N 
ATOM     10  C   UNL     1      -2.070   3.592  -8.259  0.00  0.00    +0.201 C 
ATOM     11  O   UNL     1      -2.747   4.319  -7.563  0.00  0.00    -0.278 OA
ATOM     12  H   UNL     1      -0.777   3.449  -9.937  0.00  0.00    +0.155 HD
BRANCH   9  18
ATOM     13  C   UNL     1       1.198   8.116 -10.578  0.00  0.00    +0.044 C 
ATOM     14  C   UNL     1      -0.067   7.466 -10.080  0.00  0.00    -0.046 A 
ATOM     15  C   UNL     1      -1.178   8.241  -9.802  0.00  0.00    +0.004 A 
ATOM     16  C   UNL     1      -2.341   7.649  -9.345  0.00  0.00    +0.002 A 
ATOM     17  C   UNL     1      -2.397   6.281  -9.165  0.00  0.00    +0.023 A 
ATOM     18  C   UNL     1      -1.283   5.500  -9.443  0.00  0.00    +0.036 A 
ATOM     19  C   UNL     1      -0.114   6.098  -9.896  0.00  0.00    -0.026 A 
ATOM     20  C   UNL     1       1.099   5.255 -10.193  0.00  0.00    +0.046 C 
ENDBRANCH   9  18
ENDBRANCH   8  10
ENDBRANCH   1   8
BRANCH   4  21
ATOM     21  C   UNL     1      -4.446   0.325  -3.208  0.00  0.00    +0.205 C 
BRANCH  21  22
ATOM     22  N   UNL     1      -3.666   0.357  -1.968  0.00  0.00    -0.210 N 
ATOM     23  C   UNL     1      -3.496   1.457  -1.209  0.00  0.00    +0.252 C 
ATOM     24  O   UNL     1      -3.943   2.565  -1.414  0.00  0.00    -0.272 OA
ATOM     25  C   UNL     1      -2.630   1.020  -0.044  0.00  0.00    +0.136 C 
ATOM     26  N   UNL     1      -2.390  -0.409  -0.307  0.00  0.00    -0.281 N 
ATOM     27  C   UNL     1      -3.034  -0.703  -1.451  0.00  0.00    +0.311 C 
ATOM     28  O   UNL     1      -3.042  -1.808  -1.957  0.00  0.00    -0.252 OA
ATOM     29  C   UNL     1      -3.373   1.210   1.280  0.00  0.00    +0.047 C 
ATOM     30  H   UNL     1      -1.778  -1.002   0.389  0.00  0.00    +0.152 HD
BRANCH  25  31
ATOM     31  C   UNL     1      -1.330   1.783  -0.034  0.00  0.00    -0.008 A 
ATOM     32  C   UNL     1      -0.149   1.124  -0.187  0.00  0.00    +0.007 A 
ATOM     33  C   UNL     1       1.062   1.813  -0.187  0.00  0.00    +0.001 A 
ATOM     34  C   UNL     1       1.100   3.164  -0.028  0.00  0.00    +0.008 A 
ATOM     35  C   UNL     1      -0.099   3.878   0.138  0.00  0.00    -0.018 A 
ATOM     36  C   UNL     1      -1.331   3.177   0.138  0.00  0.00    -0.012 A 
ATOM     37  C   UNL     1      -2.530   3.892   0.305  0.00  0.00    +0.009 A 
ATOM     38  C   UNL     1      -2.492   5.243   0.463  0.00  0.00    +0.001 A 
ATOM     39  C   UNL     1      -1.280   5.932   0.463  0.00  0.00    +0.001 A 
ATOM     40  C   UNL     1      -0.100   5.274   0.304  0.00  0.00    +0.008 A 
ENDBRANCH  25  31
ENDBRANCH  21  22
ENDBRANCH   4  21
TORSDOF 6
