REMARK  Name = ZINC25680434
REMARK  9 active torsions:
REMARK  status: ('A' for Active; 'I' for Inactive)
REMARK    1  A    between atoms: C_1  and  C_2
REMARK    2  A    between atoms: C_2  and  C_4
REMARK    3  A    between atoms: C_2  and  N_14
REMARK    4  A    between atoms: N_9  and  C_10
REMARK    5  A    between atoms: C_10  and  C_11
REMARK    6  A    between atoms: C_10  and  C_12
REMARK    7  A    between atoms: C_10  and  C_13
REMARK    8  A    between atoms: C_17  and  C_20
REMARK    9  A    between atoms: C_23  and  O_26
REMARK                            x       y       z     vdW  Elec       q    Type
REMARK                         _______ _______ _______ _____ _____    ______ ____
ROOT
ATOM      1  N   UNL     1       1.423   6.338   0.520  0.00  0.00    +0.390 N 
ATOM      2  C   UNL     1       2.685   6.024   1.211  0.00  0.00    -0.073 C 
ATOM      3  C   UNL     1       2.569   4.620   1.814  0.00  0.00    +0.017 C 
ATOM      4  C   UNL     1       2.073   3.661   0.768  0.00  0.00    -0.048 C 
ATOM      5  C   UNL     1       1.494   4.060  -0.343  0.00  0.00    -0.041 C 
ATOM      6  C   UNL     1       1.283   5.508  -0.683  0.00  0.00    -0.050 C 
ATOM      7  H   UNL     1       0.587   6.109   1.197  0.00  0.00    -0.080 HD
ENDROOT
BRANCH   4   8
ATOM      8  C   UNL     1       2.238   2.211   1.001  0.00  0.00    -0.022 A 
ATOM      9  C   UNL     1       3.066   1.458   0.167  0.00  0.00    +0.012 A 
ATOM     10  C   UNL     1       3.217   0.106   0.387  0.00  0.00    +0.046 A 
ATOM     11  C   UNL     1       2.547  -0.507   1.438  0.00  0.00    +0.117 A 
ATOM     12  C   UNL     1       1.723   0.238   2.270  0.00  0.00    +0.046 A 
ATOM     13  C   UNL     1       1.566   1.591   2.055  0.00  0.00    +0.012 A 
BRANCH  11  14
ATOM     14  O   UNL     1       2.698  -1.840   1.652  0.00  0.00    -0.507 OA
ATOM     15  H   UNL     1       2.168  -2.328   2.483  0.00  0.00    +0.292 HD
ENDBRANCH  11  14
ENDBRANCH   4   8
BRANCH   1  17
ATOM     16  C   UNL     1       2.312   8.074  -0.961  0.00  0.00    -0.004 C 
ATOM     17  C   UNL     1       1.347   7.766   0.185  0.00  0.00    +0.017 C 
BRANCH  17  18
ATOM     18  C   UNL     1      -0.059   8.109  -0.235  0.00  0.00    +0.207 C 
ATOM     19  O   UNL     1      -0.875   7.227  -0.397  0.00  0.00    -0.277 OA
ATOM     20  N   UNL     1      -0.409   9.396  -0.431  0.00  0.00    -0.242 N 
ATOM     21  C   UNL     1      -1.667   9.702  -0.807  0.00  0.00    +0.306 C 
ATOM     22  O   UNL     1      -2.485   8.818  -0.970  0.00  0.00    -0.252 OA
ATOM     23  N   UNL     1      -2.017  10.989  -1.003  0.00  0.00    -0.294 N 
ATOM     24  H   UNL     1       0.331  10.196  -0.283  0.00  0.00    +0.159 HD
ATOM     25  H   UNL     1      -1.276  11.789  -0.855  0.00  0.00    +0.151 HD
BRANCH  23  26
ATOM     26  C   UNL     1      -3.383  11.322  -1.411  0.00  0.00    +0.028 C 
ATOM     27  C   UNL     1      -4.368  10.829  -0.349  0.00  0.00    +0.031 C 
ATOM     28  C   UNL     1      -3.515  12.839  -1.563  0.00  0.00    +0.031 C 
ATOM     29  C   UNL     1      -3.695  10.647  -2.749  0.00  0.00    +0.031 C 
ENDBRANCH  23  26
ENDBRANCH  17  18
ENDBRANCH   1  17
TORSDOF 5
