REMARK  Name = ZINC67613928
REMARK  6 active torsions:
REMARK  status: ('A' for Active; 'I' for Inactive)
REMARK    1  A    between atoms: C_1  and  C_2
REMARK    2  A    between atoms: N_8  and  C_9
REMARK    3  A    between atoms: C_9  and  C_10
REMARK    4  A    between atoms: C_10  and  N_11
REMARK    5  A    between atoms: N_14  and  C_15
REMARK    6  A    between atoms: C_20  and  C_21
REMARK                            x       y       z     vdW  Elec       q    Type
REMARK                         _______ _______ _______ _____ _____    ______ ____
ROOT
ATOM      1  N   UNL     1       0.105  -7.196  -1.871  0.00  0.00    -0.298 N 
ATOM      2  C   UNL     1       0.111  -8.540  -1.779  0.00  0.00    +0.304 C 
ATOM      3  O   UNL     1       0.115  -9.075  -0.687  0.00  0.00    -0.253 OA
ATOM      4  N   UNL     1       0.112  -9.292  -2.898  0.00  0.00    -0.269 N 
ATOM      5  H   UNL     1       0.102  -6.769  -2.742  0.00  0.00    +0.150 HD
ATOM      6  H   UNL     1       0.026  -8.869  -3.767  0.00  0.00    +0.156 HD
ENDROOT
BRANCH   4   7
ATOM      7  C   UNL     1       0.236 -10.683  -2.806  0.00  0.00    +0.039 A 
ATOM      8  C   UNL     1       0.856 -11.255  -1.702  0.00  0.00    +0.024 A 
ATOM      9  C   UNL     1       0.977 -12.627  -1.613  0.00  0.00    +0.003 A 
ATOM     10  C   UNL     1       0.483 -13.434  -2.622  0.00  0.00    +0.020 A 
ATOM     11  C   UNL     1      -0.134 -12.867  -3.724  0.00  0.00    +0.046 A 
ATOM     12  C   UNL     1      -0.264 -11.494  -3.815  0.00  0.00    -0.011 A 
ATOM     13  C   UNL     1      -0.942 -10.878  -5.012  0.00  0.00    +0.047 C 
ATOM     14 CL   UNL     1      -0.752 -13.883  -4.989  0.00  0.00    -0.083 Cl
ENDBRANCH   4   7
BRANCH   1  15
ATOM     15  C   UNL     1       0.105  -6.378  -0.655  0.00  0.00    +0.124 C 
BRANCH  15  16
ATOM     16  C   UNL     1       0.098  -4.897  -1.037  0.00  0.00    +0.121 C 
BRANCH  16  24
ATOM     17  C   UNL     1       0.073   1.504   0.007  0.00  0.00    +0.065 C 
ATOM     18  C   UNL     1       0.079  -0.003  -0.001  0.00  0.00    +0.032 A 
ATOM     19  C   UNL     1       0.080  -0.690  -1.206  0.00  0.00    +0.026 A 
ATOM     20  C   UNL     1       0.086  -2.075  -1.167  0.00  0.00    +0.047 A 
ATOM     21  C   UNL     1       0.091  -2.692   0.084  0.00  0.00    +0.139 A 
ATOM     22  N   UNL     1       0.090  -1.950   1.182  0.00  0.00    -0.159 NA
ATOM     23  N   UNL     1       0.090  -0.667   1.137  0.00  0.00    -0.280 N 
ATOM     24  N   UNL     1       0.097  -4.079   0.179  0.00  0.00    -0.326 N 
ATOM     25  H   UNL     1       0.101  -4.506   1.050  0.00  0.00    +0.148 HD
ATOM     26  H   UNL     1       0.093  -0.170   1.970  0.00  0.00    +0.189 HD
ENDBRANCH  16  24
ENDBRANCH  15  16
ENDBRANCH   1  15
TORSDOF 4
