REMARK  Name = ZINC03840659
REMARK  15 active torsions:
REMARK  status: ('A' for Active; 'I' for Inactive)
REMARK    1  A    between atoms: C_1  and  C_2
REMARK    2  A    between atoms: C_7  and  C_9
REMARK    3  A    between atoms: C_9  and  S_10
REMARK    4  A    between atoms: S_10  and  C_11
REMARK    5  A    between atoms: C_18  and  C_39
REMARK    6  A    between atoms: C_21  and  O_38
REMARK    7  A    between atoms: C_23  and  C_27
REMARK    8  A    between atoms: C_27  and  C_29
REMARK    9  A    between atoms: C_27  and  C_30
REMARK   10  A    between atoms: N_32  and  C_33
REMARK   11  A    between atoms: N_32  and  C_34
REMARK   12  A    between atoms: C_34  and  C_35
REMARK   13  A    between atoms: C_35  and  N_76
REMARK   14  A    between atoms: C_36  and  N_76
REMARK   15  A    between atoms: C_37  and  N_76
REMARK                            x       y       z     vdW  Elec       q    Type
REMARK                         _______ _______ _______ _____ _____    ______ ____
ROOT
ATOM      1  C   UNL     1      -0.630   3.192   1.242  0.00  0.00    +0.014 C 
ATOM      2  C   UNL     1       0.460   2.790   0.246  0.00  0.00    +0.042 C 
ATOM      3  C   UNL     1       0.334   1.308  -0.072  0.00  0.00    +0.055 A 
ATOM      4  C   UNL     1       1.448   0.535  -0.172  0.00  0.00    +0.014 A 
ATOM      5  S   UNL     1       0.778  -1.061  -0.552  0.00  0.00    -0.076 S 
ATOM      6  C   UNL     1      -0.896  -0.592  -0.549  0.00  0.00    +0.089 A 
ATOM      7  N   UNL     1      -0.824   0.687  -0.270  0.00  0.00    -0.248 NA
ATOM      8  C   UNL     1       2.865   0.955   0.003  0.00  0.00    +0.051 C 
ATOM      9  C   UNL     1       2.940   2.494  -0.037  0.00  0.00    -0.022 C 
ATOM     10  C   UNL     1       1.839   3.069   0.857  0.00  0.00    +0.033 C 
ATOM     11  C   UNL     1       1.992   4.590   0.970  0.00  0.00    +0.123 C 
ATOM     12  C   UNL     1       3.369   4.947   1.528  0.00  0.00    +0.029 C 
ATOM     13  C   UNL     1       4.441   4.414   0.572  0.00  0.00    +0.007 C 
ATOM     14  C   UNL     1       4.319   2.893   0.497  0.00  0.00    +0.008 C 
ATOM     15  C   UNL     1       2.759   2.990  -1.473  0.00  0.00    +0.012 C 
ENDROOT
BRANCH  12  16
ATOM     16  C   UNL     1       3.496   6.467   1.645  0.00  0.00    +0.078 C 
ATOM     17  C   UNL     1       3.463   7.091   0.249  0.00  0.00    +0.017 C 
BRANCH  16  18
ATOM     18  C   UNL     1       4.800   6.811   2.318  0.00  0.00    +0.218 C 
ATOM     19  O   UNL     1       5.769   7.102   1.650  0.00  0.00    -0.275 OA
ATOM     20  N   UNL     1       4.889   6.795   3.663  0.00  0.00    -0.306 N 
ATOM     21  C   UNL     1       3.754   6.337   4.467  0.00  0.00    +0.132 C 
BRANCH  20  22
ATOM     22  C   UNL     1       6.122   7.237   4.321  0.00  0.00    +0.089 C 
BRANCH  22  23
ATOM     23  C   UNL     1       6.041   8.739   4.599  0.00  0.00    -0.060 C 
BRANCH  23  26
ATOM     24  C   UNL     1       7.340  10.648   5.328  0.00  0.00    -0.097 C 
ATOM     25  C   UNL     1       7.403   8.585   6.595  0.00  0.00    -0.097 C 
ATOM     26  N   UNL     1       7.299   9.173   5.242  0.00  0.00    +0.377 N 
ATOM     27  H   UNL     1       8.092   8.850   4.676  0.00  0.00    -0.083 HD
ENDBRANCH  23  26
ENDBRANCH  22  23
ENDBRANCH  20  22
ENDBRANCH  16  18
ENDBRANCH  12  16
BRANCH  11  28
ATOM     28  O   UNL     1       0.982   5.104   1.840  0.00  0.00    -0.391 OA
ATOM     29  H   UNL     1       0.963   6.069   1.894  0.00  0.00    +0.210 HD
ENDBRANCH  11  28
BRANCH   6  30
ATOM     30  C   UNL     1      -2.117  -1.439  -0.801  0.00  0.00    +0.137 C 
BRANCH  30  31
ATOM     31  S   UNL     1      -2.511  -1.420  -2.572  0.00  0.00    -0.118 S 
BRANCH  31  32
ATOM     32  C   UNL     1      -3.942  -2.440  -2.701  0.00  0.00    +0.008 A 
ATOM     33  C   UNL     1      -4.478  -3.035  -1.565  0.00  0.00    +0.015 A 
ATOM     34  C   UNL     1      -5.603  -3.829  -1.670  0.00  0.00    +0.001 A 
ATOM     35  C   UNL     1      -6.189  -4.043  -2.904  0.00  0.00    +0.000 A 
ATOM     36  C   UNL     1      -5.654  -3.458  -4.038  0.00  0.00    +0.001 A 
ATOM     37  C   UNL     1      -4.533  -2.657  -3.940  0.00  0.00    +0.015 A 
ENDBRANCH  31  32
ENDBRANCH  30  31
ENDBRANCH   6  30
TORSDOF 9
