REMARK  Name = ZINC20441792
REMARK  6 active torsions:
REMARK  status: ('A' for Active; 'I' for Inactive)
REMARK    1  A    between atoms: C_6  and  S_7
REMARK    2  A    between atoms: S_7  and  N_10
REMARK    3  A    between atoms: N_10  and  C_11
REMARK    4  A    between atoms: C_17  and  N_19
REMARK    5  A    between atoms: N_22  and  C_25
REMARK    6  A    between atoms: C_25  and  C_26
REMARK                            x       y       z     vdW  Elec       q    Type
REMARK                         _______ _______ _______ _____ _____    ______ ____
ROOT
ATOM      1  C   UNL     1       2.360  -2.608  -2.474  0.00  0.00    +0.063 C 
ATOM      2  C   UNL     1       2.071  -1.318  -3.245  0.00  0.00    +0.019 C 
ATOM      3  C   UNL     1       3.259  -0.989  -4.152  0.00  0.00    +0.001 C 
ATOM      4  C   UNL     1       3.479  -2.135  -5.140  0.00  0.00    -0.001 C 
ATOM      5  C   UNL     1       3.768  -3.425  -4.370  0.00  0.00    -0.014 C 
ATOM      6  C   UNL     1       2.580  -3.754  -3.463  0.00  0.00    -0.050 C 
ENDROOT
BRANCH   6   7
ATOM      7  N   UNL     1       2.857  -4.993  -2.723  0.00  0.00    +0.384 N 
ATOM      8  C   UNL     1       4.076  -4.860  -1.913  0.00  0.00    -0.063 C 
ATOM      9  C   UNL     1       4.285  -6.139  -1.099  0.00  0.00    +0.066 C 
ATOM     10  N   UNL     1       4.384  -7.287  -2.011  0.00  0.00    -0.302 NA
ATOM     11  C   UNL     1       3.166  -7.419  -2.821  0.00  0.00    +0.066 C 
ATOM     12  C   UNL     1       2.957  -6.140  -3.636  0.00  0.00    -0.063 C 
ATOM     13  H   UNL     1       2.013  -5.173  -2.041  0.00  0.00    -0.081 HD
BRANCH  10  14
ATOM     14  C   UNL     1       4.661  -8.525  -1.271  0.00  0.00    +0.119 C 
BRANCH  14  15
ATOM     15  C   UNL     1       5.763  -8.278  -0.273  0.00  0.00    -0.030 A 
ATOM     16  C   UNL     1       5.452  -7.856   1.007  0.00  0.00    +0.009 A 
ATOM     17  C   UNL     1       6.459  -7.629   1.926  0.00  0.00    +0.050 A 
ATOM     18  C   UNL     1       7.783  -7.824   1.567  0.00  0.00    +0.166 A 
ATOM     19  C   UNL     1       8.096  -8.249   0.279  0.00  0.00    +0.167 A 
ATOM     20  C   UNL     1       7.081  -8.480  -0.636  0.00  0.00    +0.054 A 
ATOM     21  O   UNL     1       9.452  -8.366   0.175  0.00  0.00    -0.453 OA
ATOM     22  C   UNL     1       9.988  -7.618   1.282  0.00  0.00    +0.466 C 
ATOM     23  O   UNL     1       8.943  -7.675   2.271  0.00  0.00    -0.453 OA
ENDBRANCH  14  15
ENDBRANCH  10  14
ENDBRANCH   6   7
BRANCH   1  24
ATOM     24  N   UNL     1       1.222  -2.923  -1.607  0.00  0.00    -0.188 NA
ATOM     25  H   UNL     1       0.297  -3.330  -2.039  0.00  0.00    +0.148 HD
BRANCH  24  26
ATOM     26  S   UNL     1       1.231  -2.441  -0.022  0.00  0.00    +0.059 S 
ATOM     27  O   UNL     1       2.487  -2.833   0.514  0.00  0.00    -0.153 OA
ATOM     28  O   UNL     1      -0.003  -2.866   0.538  0.00  0.00    -0.153 OA
BRANCH  26  34
ATOM     29  C   UNL     1       0.002  -0.004   0.002  0.00  0.00    +0.030 A 
ATOM     30  C   UNL     1      -0.017   1.378   0.010  0.00  0.00    +0.022 A 
ATOM     31  C   UNL     1       1.172   2.086   0.002  0.00  0.00    +0.041 A 
ATOM     32  C   UNL     1       2.379   1.409  -0.013  0.00  0.00    +0.022 A 
ATOM     33  C   UNL     1       2.397   0.027  -0.021  0.00  0.00    +0.030 A 
ATOM     34  C   UNL     1       1.208  -0.679  -0.013  0.00  0.00    +0.105 A 
ATOM     35 CL   UNL     1       1.149   3.821   0.011  0.00  0.00    -0.084 Cl
ENDBRANCH  26  34
ENDBRANCH  24  26
ENDBRANCH   1  24
TORSDOF 6
