REMARK  Name = ZINC40760756
REMARK  8 active torsions:
REMARK  status: ('A' for Active; 'I' for Inactive)
REMARK    1  A    between atoms: C_1  and  C_2
REMARK    2  A    between atoms: C_2  and  C_26
REMARK    3  A    between atoms: C_4  and  N_10
REMARK    4  A    between atoms: C_6  and  C_8
REMARK    5  A    between atoms: C_6  and  C_9
REMARK    6  A    between atoms: C_12  and  N_25
REMARK    7  A    between atoms: C_13  and  N_17
REMARK    8  A    between atoms: N_17  and  C_18
REMARK                            x       y       z     vdW  Elec       q    Type
REMARK                         _______ _______ _______ _____ _____    ______ ____
ROOT
ATOM      1  N   UNL     1       2.855  -1.084  -2.416  0.00  0.00    -0.325 N 
ATOM      2  C   UNL     1       3.920  -0.444  -3.040  0.00  0.00    +0.145 A 
ATOM      3  C   UNL     1       4.440  -0.938  -4.238  0.00  0.00    +0.105 A 
ATOM      4  C   UNL     1       5.509  -0.257  -4.822  0.00  0.00    +0.149 A 
ATOM      5  N   UNL     1       5.989   0.828  -4.219  0.00  0.00    -0.219 NA
ATOM      6  C   UNL     1       5.470   1.260  -3.089  0.00  0.00    +0.225 A 
ATOM      7  N   UNL     1       4.456   0.651  -2.507  0.00  0.00    -0.219 NA
ATOM      8  H   UNL     1       2.470  -1.882  -2.811  0.00  0.00    +0.148 HD
ENDROOT
BRANCH   1  12
ATOM      9  C   UNL     1       0.004   1.024   0.197  0.00  0.00    -0.010 C 
ATOM     10  C   UNL     1       0.278  -0.480   0.303  0.00  0.00    -0.072 C 
ATOM     11  C   UNL     1       0.857  -0.993  -1.012  0.00  0.00    +0.009 C 
ATOM     12  C   UNL     1       2.314  -0.552  -1.159  0.00  0.00    +0.069 C 
ATOM     13  C   UNL     1       3.107  -1.126   0.015  0.00  0.00    +0.009 C 
ATOM     14  C   UNL     1       2.544  -0.615   1.337  0.00  0.00    -0.072 C 
ATOM     15  N   UNL     1       1.107  -0.785   1.455  0.00  0.00    +0.386 N 
ATOM     16  C   UNL     1       2.950   0.849   1.541  0.00  0.00    -0.010 C 
ATOM     17  C   UNL     1       3.210  -1.432   2.469  0.00  0.00    -0.010 C 
ATOM     18  C   UNL     1      -1.088  -1.175   0.508  0.00  0.00    -0.010 C 
ATOM     19  H   UNL     1       0.780  -0.220   2.245  0.00  0.00    -0.084 HD
ATOM     20  H   UNL     1       0.922  -1.754   1.735  0.00  0.00    -0.084 HD
ENDBRANCH   1  12
BRANCH   3  21
ATOM     21  N   UNL     1       3.902  -2.087  -4.839  0.00  0.00    -0.353 N 
ATOM     22  H   UNL     1       3.159  -2.550  -4.421  0.00  0.00    +0.143 HD
ATOM     23  H   UNL     1       4.273  -2.419  -5.671  0.00  0.00    +0.143 HD
ENDBRANCH   3  21
BRANCH   4  24
ATOM     24  N   UNL     1       6.065  -0.707  -6.015  0.00  0.00    -0.298 N 
ATOM     25  H   UNL     1       5.658  -1.447  -6.491  0.00  0.00    +0.154 HD
BRANCH  24  26
ATOM     26  C   UNL     1       7.210  -0.090  -6.529  0.00  0.00    +0.032 A 
ATOM     27  C   UNL     1       7.366   0.054  -7.901  0.00  0.00    +0.024 A 
ATOM     28  C   UNL     1       8.498   0.663  -8.405  0.00  0.00    +0.017 A 
ATOM     29  C   UNL     1       9.476   1.129  -7.545  0.00  0.00    +0.018 A 
ATOM     30  C   UNL     1       9.324   0.986  -6.177  0.00  0.00    +0.017 A 
ATOM     31  C   UNL     1       8.191   0.384  -5.667  0.00  0.00    +0.024 A 
ATOM     32 BR   UNL     1      11.025   1.963  -8.239  0.00  0.00    -0.050 Br
ENDBRANCH  24  26
ENDBRANCH   4  24
TORSDOF 4
