REMARK  Name = ZINC15547644
REMARK  8 active torsions:
REMARK  status: ('A' for Active; 'I' for Inactive)
REMARK    1  A    between atoms: C_1  and  C_2
REMARK    2  A    between atoms: C_11  and  C_12
REMARK    3  A    between atoms: C_11  and  N_49
REMARK    4  A    between atoms: N_14  and  C_15
REMARK    5  A    between atoms: C_15  and  C_16
REMARK    6  A    between atoms: C_16  and  C_17
REMARK    7  A    between atoms: C_20  and  S_23
REMARK    8  A    between atoms: S_23  and  N_26
REMARK                            x       y       z     vdW  Elec       q    Type
REMARK                         _______ _______ _______ _____ _____    ______ ____
ROOT
ATOM      1  C   UNL     1      -0.742   1.585  -1.213  0.00  0.00    +0.196 C 
ATOM      2  O   UNL     1      -1.736   2.268  -1.088  0.00  0.00    -0.278 OA
ATOM      3  N   UNL     1      -0.288   1.272  -2.443  0.00  0.00    -0.317 N 
ATOM      4  H   UNL     1       0.507   0.726  -2.543  0.00  0.00    +0.149 HD
ENDROOT
BRANCH   1   5
ATOM      5  C   UNL     1      -0.013   1.086   0.008  0.00  0.00    +0.019 C 
BRANCH   5  15
ATOM      6  C   UNL     1       1.433   2.100   2.294  0.00  0.00    -0.008 C 
ATOM      7  C   UNL     1       0.118   1.327   2.413  0.00  0.00    -0.039 C 
ATOM      8  C   UNL     1      -0.654   1.816   3.635  0.00  0.00    -0.051 A 
ATOM      9  C   UNL     1      -0.065   2.096   4.865  0.00  0.00    +0.010 A 
ATOM     10  C   UNL     1      -0.826   2.528   5.898  0.00  0.00    +0.045 A 
ATOM     11  S   UNL     1      -2.456   2.561   5.165  0.00  0.00    -0.101 S 
ATOM     12  C   UNL     1      -2.001   1.999   3.550  0.00  0.00    -0.010 A 
ATOM     13  C   UNL     1      -2.859   1.767   2.348  0.00  0.00    +0.024 C 
ATOM     14  C   UNL     1      -2.035   0.955   1.335  0.00  0.00    -0.072 C 
ATOM     15  N   UNL     1      -0.703   1.595   1.209  0.00  0.00    +0.390 N 
ATOM     16  H   UNL     1      -0.831   2.609   1.115  0.00  0.00    -0.080 HD
ENDBRANCH   5  15
ENDBRANCH   1   5
BRANCH   3  17
ATOM     17  C   UNL     1      -0.997   1.758  -3.630  0.00  0.00    +0.109 C 
BRANCH  17  18
ATOM     18  C   UNL     1      -0.281   1.264  -4.889  0.00  0.00    +0.054 C 
BRANCH  18  19
ATOM     19  C   UNL     1      -1.010   1.763  -6.110  0.00  0.00    -0.046 A 
ATOM     20  C   UNL     1      -2.018   1.003  -6.672  0.00  0.00    +0.005 A 
ATOM     21  C   UNL     1      -2.690   1.463  -7.789  0.00  0.00    +0.029 A 
ATOM     22  C   UNL     1      -2.347   2.679  -8.350  0.00  0.00    +0.105 A 
ATOM     23  C   UNL     1      -1.335   3.437  -7.791  0.00  0.00    +0.029 A 
ATOM     24  C   UNL     1      -0.666   2.979  -6.671  0.00  0.00    +0.005 A 
BRANCH  22  25
ATOM     25  S   UNL     1      -3.200   3.263  -9.776  0.00  0.00    +0.056 S 
ATOM     26  O   UNL     1      -4.468   2.624  -9.781  0.00  0.00    -0.153 OA
ATOM     27  O   UNL     1      -3.059   4.677  -9.783  0.00  0.00    -0.153 OA
BRANCH  25  28
ATOM     28  N   UNL     1      -2.381   2.701 -11.101  0.00  0.00    -0.204 NA
ATOM     29  H   UNL     1      -1.587   2.156 -10.985  0.00  0.00    +0.144 HD
ATOM     30  H   UNL     1      -2.695   2.916 -11.993  0.00  0.00    +0.144 HD
ENDBRANCH  25  28
ENDBRANCH  22  25
ENDBRANCH  18  19
ENDBRANCH  17  18
ENDBRANCH   3  17
TORSDOF 7
