REMARK  Name = ZINC47009109
REMARK  7 active torsions:
REMARK  status: ('A' for Active; 'I' for Inactive)
REMARK    1  A    between atoms: C_4  and  N_6
REMARK    2  A    between atoms: N_6  and  C_7
REMARK    3  A    between atoms: C_7  and  N_9
REMARK    4  A    between atoms: N_9  and  N_10
REMARK    5  A    between atoms: N_13  and  C_14
REMARK    6  A    between atoms: C_14  and  C_15
REMARK    7  A    between atoms: C_15  and  N_20
REMARK                            x       y       z     vdW  Elec       q    Type
REMARK                         _______ _______ _______ _____ _____    ______ ____
ROOT
ATOM      1  N   UNL     1       0.548  -2.640  -4.032  0.00  0.00    -0.219 N 
ATOM      2  C   UNL     1       0.439  -3.353  -5.170  0.00  0.00    +0.316 C 
ATOM      3  O   UNL     1       0.478  -2.789  -6.247  0.00  0.00    -0.251 OA
ATOM      4  N   UNL     1       0.286  -4.691  -5.115  0.00  0.00    -0.300 N 
ATOM      5  H   UNL     1       0.658  -1.677  -4.071  0.00  0.00    +0.174 HD
ATOM      6  H   UNL     1       0.254  -5.140  -4.256  0.00  0.00    +0.150 HD
ENDROOT
BRANCH   1   7
ATOM      7  N   UNL     1       0.502  -3.289  -2.791  0.00  0.00    -0.245 N 
ATOM      8  H   UNL     1       0.392  -4.252  -2.752  0.00  0.00    +0.172 HD
BRANCH   7   9
ATOM      9  C   UNL     1       0.611  -2.576  -1.653  0.00  0.00    +0.147 C 
ATOM     10  S   UNL     1       0.556  -3.369  -0.137  0.00  0.00    -0.017 S 
BRANCH   9  11
ATOM     11  N   UNL     1       0.764  -1.238  -1.708  0.00  0.00    -0.323 N 
ATOM     12  H   UNL     1       0.796  -0.788  -2.567  0.00  0.00    +0.148 HD
BRANCH  11  16
ATOM     13  C   UNL     1      -0.552   1.478   0.059  0.00  0.00    +0.002 C 
ATOM     14  C   UNL     1       0.936   1.893   0.160  0.00  0.00    +0.002 C 
ATOM     15  C   UNL     1       1.644   0.851  -0.741  0.00  0.00    +0.022 C 
ATOM     16  C   UNL     1       0.883  -0.463  -0.470  0.00  0.00    +0.072 C 
ATOM     17  C   UNL     1      -0.514  -0.064   0.038  0.00  0.00    +0.022 C 
ENDBRANCH  11  16
ENDBRANCH   9  11
ENDBRANCH   7   9
ENDBRANCH   1   7
BRANCH   4  18
ATOM     18  C   UNL     1       0.167  -5.466  -6.353  0.00  0.00    +0.094 C 
BRANCH  18  19
ATOM     19  C   UNL     1       0.128  -6.958  -6.018  0.00  0.00    -0.050 C 
ATOM     20  C   UNL     1       1.439  -7.378  -5.321  0.00  0.00    -0.010 C 
ATOM     21  C   UNL     1       1.725  -8.797  -5.873  0.00  0.00    -0.001 C 
ATOM     22  C   UNL     1       1.289  -8.681  -7.355  0.00  0.00    -0.001 C 
ATOM     23  C   UNL     1       0.033  -7.787  -7.311  0.00  0.00    -0.010 C 
BRANCH  19  24
ATOM     24  N   UNL     1      -1.020  -7.249  -5.149  0.00  0.00    +0.386 N 
ATOM     25  C   UNL     1      -0.940  -8.639  -4.695  0.00  0.00    -0.067 C 
ATOM     26  C   UNL     1      -1.893  -8.857  -3.514  0.00  0.00    +0.050 C 
ATOM     27  S   UNL     1      -3.592  -8.547  -4.088  0.00  0.00    -0.164 S 
ATOM     28  C   UNL     1      -3.443  -6.936  -4.921  0.00  0.00    +0.050 C 
ATOM     29  C   UNL     1      -2.258  -7.005  -5.892  0.00  0.00    -0.067 C 
ATOM     30  H   UNL     1      -0.991  -6.637  -4.346  0.00  0.00    -0.081 HD
ENDBRANCH  19  24
ENDBRANCH  18  19
ENDBRANCH   4  18
TORSDOF 7
