REMARK  Name = ZINC58391581
REMARK  7 active torsions:
REMARK  status: ('A' for Active; 'I' for Inactive)
REMARK    1  A    between atoms: C_6  and  N_7
REMARK    2  A    between atoms: C_10  and  C_13
REMARK    3  A    between atoms: C_13  and  N_14
REMARK    4  A    between atoms: N_17  and  C_18
REMARK    5  A    between atoms: C_18  and  C_19
REMARK    6  A    between atoms: N_23  and  C_25
REMARK    7  A    between atoms: C_25  and  C_26
REMARK                            x       y       z     vdW  Elec       q    Type
REMARK                         _______ _______ _______ _____ _____    ______ ____
ROOT
ATOM      1  N   UNL     1      -4.597  -4.037  -0.688  0.00  0.00    -0.299 N 
ATOM      2  C   UNL     1      -5.272  -5.169  -0.409  0.00  0.00    +0.300 C 
ATOM      3  O   UNL     1      -4.773  -6.013   0.310  0.00  0.00    -0.253 OA
ATOM      4  N   UNL     1      -6.500  -5.367  -0.928  0.00  0.00    -0.299 N 
ATOM      5  H   UNL     1      -4.995  -3.364  -1.262  0.00  0.00    +0.150 HD
ATOM      6  H   UNL     1      -6.898  -4.694  -1.502  0.00  0.00    +0.150 HD
ENDROOT
BRANCH   1   7
ATOM      7  C   UNL     1      -3.262  -3.822  -0.125  0.00  0.00    +0.110 C 
BRANCH   7  11
ATOM      8  N   UNL     1      -1.198  -0.721   0.010  0.00  0.00    -0.330 N 
ATOM      9  C   UNL     1      -2.546  -0.134   0.020  0.00  0.00    +0.105 C 
ATOM     10  C   UNL     1      -3.555  -1.302  -0.002  0.00  0.00    +0.025 C 
ATOM     11  C   UNL     1      -2.722  -2.469  -0.594  0.00  0.00    +0.025 C 
ATOM     12  C   UNL     1      -1.323  -2.190   0.003  0.00  0.00    +0.110 C 
BRANCH   8  18
ATOM     13  C   UNL     1      -0.017   1.385   0.010  0.00  0.00    +0.026 A 
ATOM     14  C   UNL     1       1.171   2.090   0.002  0.00  0.00    +0.040 A 
ATOM     15  C   UNL     1       2.379   1.414  -0.013  0.00  0.00    +0.124 A 
ATOM     16  C   UNL     1       2.400   0.030  -0.021  0.00  0.00    +0.040 A 
ATOM     17  C   UNL     1       1.215  -0.680  -0.014  0.00  0.00    +0.026 A 
ATOM     18  C   UNL     1       0.002  -0.004   0.002  0.00  0.00    +0.030 A 
ATOM     19  F   UNL     1       3.539   2.107  -0.020  0.00  0.00    -0.205 F 
ENDBRANCH   8  18
ENDBRANCH   7  11
ENDBRANCH   1   7
BRANCH   4  20
ATOM     20  C   UNL     1      -7.234  -6.598  -0.624  0.00  0.00    +0.107 C 
BRANCH  20  21
ATOM     21  C   UNL     1      -8.590  -6.571  -1.332  0.00  0.00    -0.012 C 
ATOM     22  C   UNL     1      -9.495  -5.479  -0.717  0.00  0.00    -0.016 C 
ATOM     23  C   UNL     1     -10.890  -6.151  -0.703  0.00  0.00    -0.078 C 
ATOM     24  N   UNL     1     -10.583  -7.564  -0.364  0.00  0.00    +0.386 N 
ATOM     25  C   UNL     1      -9.341  -7.896  -1.099  0.00  0.00    -0.074 C 
ATOM     26  H   UNL     1     -10.436  -7.659   0.630  0.00  0.00    -0.081 HD
BRANCH  24  27
ATOM     27  C   UNL     1     -11.678  -8.440  -0.801  0.00  0.00    +0.036 C 
BRANCH  27  28
ATOM     28  C   UNL     1     -12.935  -8.132   0.016  0.00  0.00    +0.376 C 
ATOM     29  F   UNL     1     -13.301  -6.796  -0.177  0.00  0.00    -0.173 F 
ATOM     30  F   UNL     1     -13.978  -8.966  -0.401  0.00  0.00    -0.173 F 
ATOM     31  F   UNL     1     -12.675  -8.354   1.372  0.00  0.00    -0.173 F 
ENDBRANCH  27  28
ENDBRANCH  24  27
ENDBRANCH  20  21
ENDBRANCH   4  20
TORSDOF 7
