REMARK  Name = ZINC02428328
REMARK  5 active torsions:
REMARK  status: ('A' for Active; 'I' for Inactive)
REMARK    1  A    between atoms: C_1  and  C_2
REMARK    2  A    between atoms: C_7  and  C_8
REMARK    3  A    between atoms: C_14  and  C_26
REMARK    4  A    between atoms: N_16  and  C_19
REMARK    5  A    between atoms: C_19  and  C_20
REMARK                            x       y       z     vdW  Elec       q    Type
REMARK                         _______ _______ _______ _____ _____    ______ ____
ROOT
ATOM      1  C   UNL     1      -3.569  -9.143  -3.636  0.00  0.00    +0.044 C 
ATOM      2  C   UNL     1      -2.460  -8.212  -3.218  0.00  0.00    -0.047 A 
ATOM      3  C   UNL     1      -2.714  -7.203  -2.314  0.00  0.00    +0.019 A 
ATOM      4  C   UNL     1      -1.683  -6.347  -1.933  0.00  0.00    +0.065 A 
ATOM      5  C   UNL     1      -0.391  -6.508  -2.463  0.00  0.00    +0.140 A 
ATOM      6  C   UNL     1      -0.158  -7.534  -3.373  0.00  0.00    +0.050 A 
ATOM      7  C   UNL     1      -1.186  -8.374  -3.743  0.00  0.00    -0.044 A 
ATOM      8  C   UNL     1      -0.923  -9.482  -4.730  0.00  0.00    +0.044 C 
ATOM      9  O   UNL     1       0.605  -5.682  -2.094  0.00  0.00    -0.450 OA
ATOM     10  C   UNL     1       0.451  -4.670  -1.217  0.00  0.00    +0.199 A 
ATOM     11  C   UNL     1      -0.749  -4.417  -0.640  0.00  0.00    +0.072 A 
ATOM     12  C   UNL     1      -1.908  -5.253  -0.968  0.00  0.00    +0.199 A 
ATOM     13  O   UNL     1      -3.001  -5.054  -0.469  0.00  0.00    -0.287 OA
ATOM     14  C   UNL     1      -0.570  -3.237   0.280  0.00  0.00    +0.145 C 
ATOM     15  N   UNL     1       0.839  -2.842   0.160  0.00  0.00    -0.281 N 
ATOM     16  C   UNL     1       1.432  -3.679  -0.708  0.00  0.00    +0.283 C 
ATOM     17  O   UNL     1       2.603  -3.632  -1.030  0.00  0.00    -0.267 OA
ENDROOT
BRANCH  14  18
ATOM     18  C   UNL     1      -1.464  -2.104  -0.153  0.00  0.00    -0.022 A 
ATOM     19  C   UNL     1      -1.197  -1.423  -1.326  0.00  0.00    +0.008 A 
ATOM     20  C   UNL     1      -2.020  -0.387  -1.726  0.00  0.00    +0.038 A 
ATOM     21  C   UNL     1      -3.106  -0.025  -0.947  0.00  0.00    +0.123 A 
ATOM     22  C   UNL     1      -3.370  -0.706   0.230  0.00  0.00    +0.038 A 
ATOM     23  C   UNL     1      -2.549  -1.744   0.625  0.00  0.00    +0.008 A 
ATOM     24  F   UNL     1      -3.908   0.990  -1.335  0.00  0.00    -0.205 F 
ENDBRANCH  14  18
BRANCH  15  25
ATOM     25  C   UNL     1       1.487  -1.735   0.868  0.00  0.00    +0.140 C 
BRANCH  25  26
ATOM     26  C   UNL     1       2.030  -2.234   2.208  0.00  0.00    +0.136 C 
ATOM     27  C   UNL     1       2.686  -1.070   2.993  0.00  0.00    +0.035 C 
ATOM     28  C   UNL     1       3.675  -1.847   3.903  0.00  0.00    +0.031 C 
ATOM     29  C   UNL     1       4.098  -3.024   2.997  0.00  0.00    +0.160 C 
ATOM     30  O   UNL     1       3.086  -3.184   1.995  0.00  0.00    -0.375 OA
ENDBRANCH  25  26
ENDBRANCH  15  25
TORSDOF 3
