REMARK  Name = ZINC39677850
REMARK  6 active torsions:
REMARK  status: ('A' for Active; 'I' for Inactive)
REMARK    1  A    between atoms: C_4  and  C_7
REMARK    2  A    between atoms: C_7  and  N_8
REMARK    3  A    between atoms: C_12  and  C_15
REMARK    4  A    between atoms: C_15  and  N_16
REMARK    5  A    between atoms: C_17  and  C_19
REMARK    6  A    between atoms: C_30  and  C_32
REMARK                            x       y       z     vdW  Elec       q    Type
REMARK                         _______ _______ _______ _____ _____    ______ ____
ROOT
ATOM      1  C   UNL     1       8.994  -4.046   5.633  0.00  0.00    +0.100 C 
ATOM      2  C   UNL     1       9.260  -2.952   6.692  0.00  0.00    +0.121 C 
ATOM      3  N   UNL     1      10.283  -3.540   7.589  0.00  0.00    -0.296 N 
ATOM      4  C   UNL     1      11.198  -4.268   6.678  0.00  0.00    +0.115 C 
ATOM      5  C   UNL     1      10.268  -4.907   5.626  0.00  0.00    -0.004 C 
ATOM      6  C   UNL     1      10.925  -4.868   4.250  0.00  0.00    -0.010 C 
ATOM      7  C   UNL     1      12.157  -5.777   4.251  0.00  0.00    -0.082 C 
ATOM      8  N   UNL     1      11.755  -7.149   4.585  0.00  0.00    +0.379 N 
ATOM      9  C   UNL     1      11.210  -7.193   5.947  0.00  0.00    -0.082 C 
ATOM     10  C   UNL     1       9.938  -6.344   6.018  0.00  0.00    -0.010 C 
ATOM     11  C   UNL     1      10.363  -3.436   8.930  0.00  0.00    +0.247 C 
ATOM     12  O   UNL     1       9.461  -2.911   9.554  0.00  0.00    -0.270 OA
ATOM     13  H   UNL     1      11.051  -7.460   3.932  0.00  0.00    -0.086 HD
ATOM     14  H   UNL     1      12.558  -7.757   4.525  0.00  0.00    -0.086 HD
ENDROOT
BRANCH  11  15
ATOM     15  C   UNL     1      11.546  -3.962   9.643  0.00  0.00    +0.038 A 
ATOM     16  C   UNL     1      12.745  -4.166   8.957  0.00  0.00    +0.013 A 
ATOM     17  C   UNL     1      13.846  -4.657   9.627  0.00  0.00    +0.002 A 
ATOM     18  C   UNL     1      13.765  -4.947  10.977  0.00  0.00    +0.020 A 
ATOM     19  C   UNL     1      12.580  -4.748  11.665  0.00  0.00    +0.042 A 
ATOM     20  C   UNL     1      11.472  -4.252  11.006  0.00  0.00    +0.033 A 
ATOM     21 CL   UNL     1      12.488  -5.116  13.359  0.00  0.00    -0.084 Cl
ENDBRANCH  11  15
BRANCH   1  23
ATOM     22  N   UNL     1       7.972  -4.029   3.381  0.00  0.00    -0.313 N 
ATOM     23  C   UNL     1       8.774  -3.423   4.279  0.00  0.00    +0.218 C 
ATOM     24  O   UNL     1       9.318  -2.376   3.997  0.00  0.00    -0.275 OA
ATOM     25  H   UNL     1       7.537  -4.866   3.606  0.00  0.00    +0.149 HD
BRANCH  22  26
ATOM     26  C   UNL     1       7.758  -3.423   2.064  0.00  0.00    +0.137 C 
BRANCH  26  31
ATOM     27  N   UNL     1       5.718  -4.545  -0.931  0.00  0.00    -0.293 NA
ATOM     28  C   UNL     1       4.407  -4.548  -0.266  0.00  0.00    +0.113 C 
ATOM     29  C   UNL     1       4.560  -5.107   1.151  0.00  0.00    +0.175 C 
ATOM     30  O   UNL     1       5.526  -4.330   1.863  0.00  0.00    -0.372 OA
ATOM     31  C   UNL     1       6.815  -4.305   1.244  0.00  0.00    +0.149 C 
ATOM     32  C   UNL     1       6.685  -3.738  -0.172  0.00  0.00    +0.118 C 
BRANCH  27  33
ATOM     33  C   UNL     1       5.606  -4.068  -2.315  0.00  0.00    +0.119 C 
BRANCH  33  37
ATOM     34  C   UNL     1       3.335  -6.866  -4.609  0.00  0.00    +0.000 A 
ATOM     35  C   UNL     1       2.696  -5.830  -3.954  0.00  0.00    +0.000 A 
ATOM     36  C   UNL     1       3.432  -4.924  -3.212  0.00  0.00    +0.005 A 
ATOM     37  C   UNL     1       4.805  -5.056  -3.124  0.00  0.00    -0.033 A 
ATOM     38  C   UNL     1       5.443  -6.093  -3.778  0.00  0.00    +0.005 A 
ATOM     39  C   UNL     1       4.708  -6.997  -4.521  0.00  0.00    +0.000 A 
ENDBRANCH  33  37
ENDBRANCH  27  33
ENDBRANCH  26  31
ENDBRANCH  22  26
ENDBRANCH   1  23
TORSDOF 6
