REMARK  Name = ZINC40508436
REMARK  4 active torsions:
REMARK  status: ('A' for Active; 'I' for Inactive)
REMARK    1  A    between atoms: C_3  and  C_15
REMARK    2  A    between atoms: N_5  and  C_7
REMARK    3  A    between atoms: C_7  and  C_8
REMARK    4  A    between atoms: C_8  and  C_9
REMARK                            x       y       z     vdW  Elec       q    Type
REMARK                         _______ _______ _______ _____ _____    ______ ____
ROOT
ATOM      1  C   UNL     1      -0.019   1.539   0.011  0.00  0.00    -0.020 C 
ATOM      2  C   UNL     1       1.488   1.909  -0.002  0.00  0.00    -0.008 C 
ATOM      3  C   UNL     1       2.077   0.791  -0.898  0.00  0.00    +0.019 C 
ATOM      4  N   UNL     1       1.306  -0.420  -0.547  0.00  0.00    +0.388 N 
ATOM      5  C   UNL     1       0.002  -0.004   0.002  0.00  0.00    -0.078 C 
ATOM      6  H   UNL     1       1.810  -0.955   0.144  0.00  0.00    -0.081 HD
ENDROOT
BRANCH   3   7
ATOM      7  C   UNL     1       3.539   0.591  -0.594  0.00  0.00    +0.202 C 
ATOM      8  O   UNL     1       3.932  -0.479  -0.179  0.00  0.00    -0.277 OA
ATOM      9  N   UNL     1       4.411   1.602  -0.782  0.00  0.00    -0.300 N 
ATOM     10  C   UNL     1       3.955   2.909  -1.279  0.00  0.00    +0.123 C 
ATOM     11  C   UNL     1       4.829   3.308  -2.473  0.00  0.00    +0.100 C 
ATOM     12  N   UNL     1       6.244   3.251  -2.081  0.00  0.00    -0.313 NA
ATOM     13  C   UNL     1       6.643   1.884  -1.722  0.00  0.00    +0.100 C 
ATOM     14  C   UNL     1       5.843   1.428  -0.492  0.00  0.00    +0.123 C 
ATOM     15  H   UNL     1       6.836   3.622  -2.809  0.00  0.00    +0.122 HD
ENDBRANCH   3   7
BRANCH   4  16
ATOM     16  C   UNL     1       1.098  -1.239  -1.748  0.00  0.00    -0.069 C 
BRANCH  16  17
ATOM     17  C   UNL     1       0.409  -2.549  -1.359  0.00  0.00    +0.078 C 
BRANCH  17  18
ATOM     18  C   UNL     1       0.196  -3.390  -2.592  0.00  0.00    +0.219 C 
ATOM     19  O   UNL     1       0.558  -2.981  -3.674  0.00  0.00    -0.275 OA
ATOM     20  N   UNL     1      -0.398  -4.595  -2.491  0.00  0.00    -0.240 N 
ATOM     21  C   UNL     1      -0.589  -5.347  -3.594  0.00  0.00    +0.303 C 
ATOM     22  O   UNL     1      -0.226  -4.937  -4.679  0.00  0.00    -0.253 OA
ATOM     23  N   UNL     1      -1.183  -6.552  -3.493  0.00  0.00    -0.313 N 
ATOM     24  H   UNL     1      -0.688  -4.922  -1.625  0.00  0.00    +0.159 HD
ATOM     25  H   UNL     1      -1.473  -6.879  -2.627  0.00  0.00    +0.146 HD
ATOM     26  H   UNL     1      -1.321  -7.093  -4.286  0.00  0.00    +0.146 HD
ENDBRANCH  17  18
ENDBRANCH  16  17
ENDBRANCH   4  16
TORSDOF 4
