REMARK  Name = ZINC64480057
REMARK  6 active torsions:
REMARK  status: ('A' for Active; 'I' for Inactive)
REMARK    1  A    between atoms: C_1  and  C_2
REMARK    2  A    between atoms: C_2  and  C_4
REMARK    3  A    between atoms: C_2  and  N_14
REMARK    4  A    between atoms: C_4  and  C_5
REMARK    5  A    between atoms: C_15  and  C_17
REMARK    6  A    between atoms: C_20  and  C_24
REMARK                            x       y       z     vdW  Elec       q    Type
REMARK                         _______ _______ _______ _____ _____    ______ ____
ROOT
ATOM      1  N   UNL     1       0.711  -0.489   1.189  0.00  0.00    -0.309 N 
ATOM      2  C   UNL     1       2.054  -0.600   1.174  0.00  0.00    +0.259 C 
ATOM      3  O   UNL     1       2.676  -0.297   0.177  0.00  0.00    -0.271 OA
ATOM      4  H   UNL     1       0.213  -0.731   1.986  0.00  0.00    +0.149 HD
ENDROOT
BRANCH   2   5
ATOM      5  C   UNL     1       2.783  -1.099   2.395  0.00  0.00    +0.297 C 
ATOM      6  N   UNL     1       2.692  -0.108   3.491  0.00  0.00    -0.262 NA
ATOM      7  C   UNL     1       2.553  -0.885   4.741  0.00  0.00    +0.180 C 
ATOM      8  N   UNL     1       2.563  -2.310   4.333  0.00  0.00    -0.177 NA
ATOM      9  O   UNL     1       2.141  -2.286   2.914  0.00  0.00    -0.270 OA
ATOM     10  H   UNL     1       3.513   0.477   3.518  0.00  0.00    +0.127 HD
ATOM     11  H   UNL     1       3.486  -2.707   4.428  0.00  0.00    +0.156 HD
BRANCH   7  12
ATOM     12  C   UNL     1       3.710  -0.598   5.663  0.00  0.00    -0.014 A 
ATOM     13  C   UNL     1       4.326   0.639   5.635  0.00  0.00    +0.006 A 
ATOM     14  C   UNL     1       5.387   0.902   6.480  0.00  0.00    +0.000 A 
ATOM     15  C   UNL     1       5.833  -0.072   7.354  0.00  0.00    +0.000 A 
ATOM     16  C   UNL     1       5.217  -1.309   7.383  0.00  0.00    +0.000 A 
ATOM     17  C   UNL     1       4.152  -1.571   6.540  0.00  0.00    +0.006 A 
ENDBRANCH   7  12
ENDBRANCH   2   5
BRANCH   1  19
ATOM     18  C   UNL     1      -0.019   1.526   0.010  0.00  0.00    +0.028 C 
ATOM     19  C   UNL     1       0.002  -0.004   0.002  0.00  0.00    +0.074 C 
BRANCH  19  20
ATOM     20  C   UNL     1      -1.433  -0.534   0.013  0.00  0.00    +0.055 C 
BRANCH  20  21
ATOM     21  C   UNL     1      -1.416  -2.035  -0.119  0.00  0.00    -0.040 C 
ATOM     22  C   UNL     1      -1.463  -2.940   0.885  0.00  0.00    -0.001 A 
ATOM     23  C   UNL     1      -1.541  -2.803   2.344  0.00  0.00    +0.010 A 
ATOM     24  C   UNL     1      -1.574  -3.920   3.107  0.00  0.00    +0.001 A 
ATOM     25  C   UNL     1      -1.535  -5.201   2.540  0.00  0.00    +0.002 A 
ATOM     26  C   UNL     1      -1.463  -5.407   1.208  0.00  0.00    +0.026 A 
ATOM     27  C   UNL     1      -1.424  -4.304   0.311  0.00  0.00    +0.043 A 
ATOM     28  N   UNL     1      -1.355  -4.244  -0.997  0.00  0.00    -0.380 N 
ATOM     29  C   UNL     1      -1.349  -2.834  -1.401  0.00  0.00    +0.144 C 
ATOM     30  H   UNL     1      -1.318  -5.005  -1.597  0.00  0.00    +0.160 HD
ENDBRANCH  20  21
ENDBRANCH  19  20
ENDBRANCH   1  19
TORSDOF 5
