REMARK  Name = ZINC21233804
REMARK  9 active torsions:
REMARK  status: ('A' for Active; 'I' for Inactive)
REMARK    1  A    between atoms: C_4  and  C_7
REMARK    2  A    between atoms: C_7  and  C_8
REMARK    3  A    between atoms: N_10  and  C_11
REMARK    4  A    between atoms: C_16  and  C_17
REMARK    5  A    between atoms: C_17  and  O_19
REMARK    6  A    between atoms: O_19  and  C_20
REMARK    7  A    between atoms: C_20  and  C_21
REMARK    8  A    between atoms: N_23  and  C_24
REMARK    9  A    between atoms: C_25  and  C_33
REMARK                            x       y       z     vdW  Elec       q    Type
REMARK                         _______ _______ _______ _____ _____    ______ ____
ROOT
ATOM      1  O   UNL     1       2.494   4.080   0.004  0.00  0.00    -0.452 OA
ENDROOT
BRANCH   1   2
ATOM      2  C   UNL     1       2.648   5.419   0.008  0.00  0.00    +0.341 C 
ATOM      3  O   UNL     1       1.673   6.143   0.015  0.00  0.00    -0.245 OA
BRANCH   2   9
ATOM      4  C   UNL     1       4.168   7.394  -0.099  0.00  0.00    +0.047 A 
ATOM      5  C   UNL     1       5.447   7.933  -0.103  0.00  0.00    +0.024 A 
ATOM      6  C   UNL     1       6.548   7.105  -0.008  0.00  0.00    +0.002 A 
ATOM      7  C   UNL     1       6.386   5.733   0.092  0.00  0.00    +0.001 A 
ATOM      8  C   UNL     1       5.124   5.179   0.102  0.00  0.00    +0.017 A 
ATOM      9  C   UNL     1       4.001   6.004   0.002  0.00  0.00    +0.080 A 
BRANCH   4  12
ATOM     10  C   UNL     1       3.114   9.344  -0.948  0.00  0.00    +0.222 C 
ATOM     11  O   UNL     1       4.098   9.573  -1.618  0.00  0.00    -0.275 OA
ATOM     12  N   UNL     1       3.057   8.227  -0.194  0.00  0.00    -0.285 N 
ATOM     13  H   UNL     1       2.132   7.975   0.345  0.00  0.00    +0.155 HD
BRANCH  10  14
ATOM     14  C   UNL     1       1.955  10.307  -0.957  0.00  0.00    +0.131 C 
BRANCH  14  18
ATOM     15  C   UNL     1       2.846  13.582  -3.551  0.00  0.00    +0.000 A 
ATOM     16  C   UNL     1       2.214  12.457  -4.049  0.00  0.00    +0.000 A 
ATOM     17  C   UNL     1       1.927  11.397  -3.209  0.00  0.00    +0.004 A 
ATOM     18  C   UNL     1       2.269  11.462  -1.872  0.00  0.00    -0.039 A 
ATOM     19  C   UNL     1       2.896  12.589  -1.373  0.00  0.00    +0.004 A 
ATOM     20  C   UNL     1       3.189  13.646  -2.213  0.00  0.00    +0.000 A 
ENDBRANCH  14  18
ENDBRANCH  10  14
ENDBRANCH   4  12
ENDBRANCH   2   9
ENDBRANCH   1   2
BRANCH   1  21
ATOM     21  C   UNL     1       1.133   3.574   0.010  0.00  0.00    +0.328 C 
BRANCH  21  22
ATOM     22  C   UNL     1       1.157   2.067   0.006  0.00  0.00    +0.255 C 
ATOM     23  O   UNL     1       2.217   1.478  -0.002  0.00  0.00    -0.272 OA
ATOM     24  N   UNL     1       0.001   1.374   0.010  0.00  0.00    -0.277 N 
ATOM     25  H   UNL     1      -0.960   1.909   0.017  0.00  0.00    +0.155 HD
BRANCH  24  26
ATOM     26  C   UNL     1       0.024  -0.012   0.006  0.00  0.00    +0.084 A 
ATOM     27  C   UNL     1      -1.049  -0.892   0.015  0.00  0.00    +0.068 A 
ATOM     28  C   UNL     1      -0.752  -2.314   0.004  0.00  0.00    -0.023 A 
ATOM     29  C   UNL     1       0.562  -2.627  -0.004  0.00  0.00    -0.004 A 
ATOM     30  S   UNL     1       1.399  -1.066  -0.004  0.00  0.00    -0.077 S 
ATOM     31  C   UNL     1       1.164  -3.998  -0.010  0.00  0.00    +0.043 C 
ATOM     32  C   UNL     1       0.072  -5.008   0.372  0.00  0.00    +0.005 C 
ATOM     33  C   UNL     1      -1.182  -4.715  -0.457  0.00  0.00    +0.005 C 
ATOM     34  C   UNL     1      -1.817  -3.403   0.006  0.00  0.00    +0.037 C 
BRANCH  27  35
ATOM     35  C   UNL     1      -2.432  -0.405   0.031  0.00  0.00    +0.244 C 
ATOM     36  O   UNL     1      -3.018  -0.200  -1.016  0.00  0.00    -0.270 OA
ATOM     37  N   UNL     1      -3.055  -0.184   1.206  0.00  0.00    -0.325 N 
ATOM     38  H   UNL     1      -4.092   0.182   1.218  0.00  0.00    +0.145 HD
ATOM     39  H   UNL     1      -2.526  -0.369   2.152  0.00  0.00    +0.145 HD
ENDBRANCH  27  35
ENDBRANCH  24  26
ENDBRANCH  21  22
ENDBRANCH   1  21
TORSDOF 9
