REMARK  Name = ZINC41603498
REMARK  3 active torsions:
REMARK  status: ('A' for Active; 'I' for Inactive)
REMARK    1  A    between atoms: C_5  and  N_7
REMARK    2  A    between atoms: N_10  and  C_11
REMARK    3  A    between atoms: C_12  and  C_20
REMARK                            x       y       z     vdW  Elec       q    Type
REMARK                         _______ _______ _______ _____ _____    ______ ____
ROOT
ATOM      1  N   UNL     1       1.236  -2.081  -0.022  0.00  0.00    -0.267 N 
ATOM      2  C   UNL     1       0.085  -2.774   0.087  0.00  0.00    +0.309 C 
ATOM      3  O   UNL     1      -0.979  -2.186   0.101  0.00  0.00    -0.252 OA
ATOM      4  N   UNL     1       0.114  -4.118   0.180  0.00  0.00    -0.262 N 
ATOM      5  H   UNL     1       2.079  -2.552  -0.116  0.00  0.00    +0.156 HD
ATOM      6  H   UNL     1       0.963  -4.587   0.168  0.00  0.00    +0.157 HD
ENDROOT
BRANCH   4   7
ATOM      7  C   UNL     1      -1.071  -4.831   0.292  0.00  0.00    +0.091 A 
ATOM      8  C   UNL     1      -1.233  -6.204   0.403  0.00  0.00    +0.084 A 
ATOM      9  C   UNL     1      -2.589  -6.704   0.507  0.00  0.00    -0.022 A 
ATOM     10  C   UNL     1      -3.540  -5.742   0.481  0.00  0.00    -0.021 A 
ATOM     11  S   UNL     1      -2.639  -4.229   0.332  0.00  0.00    -0.079 S 
ATOM     12  C   UNL     1      -5.018  -5.959   0.565  0.00  0.00    -0.039 C 
ATOM     13  N   UNL     1      -5.293  -7.383   0.298  0.00  0.00    +0.382 N 
ATOM     14  C   UNL     1      -4.431  -8.219   1.145  0.00  0.00    -0.077 C 
ATOM     15  C   UNL     1      -2.985  -8.168   0.641  0.00  0.00    +0.018 C 
ATOM     16  H   UNL     1      -6.260  -7.582   0.503  0.00  0.00    -0.085 HD
ATOM     17  H   UNL     1      -5.106  -7.585  -0.673  0.00  0.00    -0.085 HD
BRANCH   8  18
ATOM     18  C   UNL     1      -0.107  -7.090   0.413  0.00  0.00    +0.102 C 
ATOM     19  N   UNL     1       0.785  -7.792   0.421  0.00  0.00    -0.191 NA
ENDBRANCH   8  18
ENDBRANCH   4   7
BRANCH   1  24
ATOM     20  C   UNL     1       0.154   1.371   0.643  0.00  0.00    +0.002 A 
ATOM     21  C   UNL     1       1.173   2.087   0.043  0.00  0.00    +0.003 A 
ATOM     22  C   UNL     1       2.215   1.423  -0.579  0.00  0.00    +0.040 A 
ATOM     23  C   UNL     1       2.240   0.041  -0.603  0.00  0.00    +0.145 A 
ATOM     24  C   UNL     1       1.215  -0.681  -0.000  0.00  0.00    +0.070 A 
ATOM     25  C   UNL     1       0.172  -0.010   0.623  0.00  0.00    +0.026 A 
ATOM     26  F   UNL     1       3.257  -0.608  -1.212  0.00  0.00    -0.204 F 
ENDBRANCH   1  24
TORSDOF 3
