REMARK  Name = ZINC37174143
REMARK  8 active torsions:
REMARK  status: ('A' for Active; 'I' for Inactive)
REMARK    1  A    between atoms: C_1  and  N_2
REMARK    2  A    between atoms: N_2  and  C_3
REMARK    3  A    between atoms: N_2  and  C_17
REMARK    4  A    between atoms: C_3  and  C_4
REMARK    5  A    between atoms: C_4  and  C_5
REMARK    6  A    between atoms: C_5  and  C_6
REMARK    7  A    between atoms: N_8  and  C_9
REMARK    8  A    between atoms: C_12  and  N_16
REMARK                            x       y       z     vdW  Elec       q    Type
REMARK                         _______ _______ _______ _____ _____    ______ ____
ROOT
ATOM      1  C   UNL     1       4.365  -0.148   2.289  0.00  0.00    +0.217 C 
ATOM      2  O   UNL     1       4.766   0.489   1.339  0.00  0.00    -0.275 OA
ATOM      3  N   UNL     1       5.216  -0.491   3.277  0.00  0.00    -0.284 N 
ATOM      4  H   UNL     1       4.883  -0.944   4.068  0.00  0.00    +0.155 HD
ENDROOT
BRANCH   3   5
ATOM      5  C   UNL     1       6.581  -0.194   3.162  0.00  0.00    +0.052 A 
ATOM      6  C   UNL     1       6.986   0.970   2.523  0.00  0.00    +0.026 A 
ATOM      7  C   UNL     1       8.330   1.264   2.409  0.00  0.00    +0.024 A 
ATOM      8  C   UNL     1       9.278   0.394   2.934  0.00  0.00    +0.026 A 
ATOM      9  C   UNL     1       8.874  -0.770   3.573  0.00  0.00    +0.044 A 
ATOM     10  C   UNL     1       7.528  -1.061   3.692  0.00  0.00    +0.064 A 
ATOM     11 CL   UNL     1       7.022  -2.513   4.497  0.00  0.00    -0.082 Cl
BRANCH   8  12
ATOM     12  N   UNL     1      10.640   0.692   2.817  0.00  0.00    -0.358 N 
ATOM     13  H   UNL     1      10.923   1.505   2.370  0.00  0.00    +0.142 HD
ATOM     14  H   UNL     1      11.302   0.085   3.184  0.00  0.00    +0.142 HD
ENDBRANCH   8  12
ENDBRANCH   3   5
BRANCH   1  15
ATOM     15  C   UNL     1       2.917  -0.557   2.366  0.00  0.00    +0.094 C 
BRANCH  15  16
ATOM     16  C   UNL     1       2.176  -0.045   1.129  0.00  0.00    -0.009 C 
BRANCH  16  17
ATOM     17  C   UNL     1       0.706  -0.460   1.208  0.00  0.00    -0.078 C 
BRANCH  17  19
ATOM     18  C   UNL     1      -0.015   1.500   0.027  0.00  0.00    -0.096 C 
ATOM     19  N   UNL     1      -0.005   0.031   0.020  0.00  0.00    +0.380 N 
ATOM     20  H   UNL     1       0.462  -0.298  -0.812  0.00  0.00    -0.082 HD
BRANCH  19  21
ATOM     21  C   UNL     1      -1.387  -0.468   0.035  0.00  0.00    -0.058 C 
ATOM     22  C   UNL     1      -2.136   0.066  -1.197  0.00  0.00    -0.004 C 
ATOM     23  C   UNL     1      -3.475  -0.716  -1.327  0.00  0.00    +0.067 C 
ATOM     24  S   UNL     1      -2.912  -2.420  -0.910  0.00  0.00    -0.162 S 
ATOM     25  C   UNL     1      -1.375  -2.015   0.014  0.00  0.00    +0.054 C 
ENDBRANCH  19  21
ENDBRANCH  17  19
ENDBRANCH  16  17
ENDBRANCH  15  16
ENDBRANCH   1  15
TORSDOF 7
