REMARK  Name = ZINC38547541
REMARK  8 active torsions:
REMARK  status: ('A' for Active; 'I' for Inactive)
REMARK    1  A    between atoms: C_1  and  C_2
REMARK    2  A    between atoms: N_8  and  C_9
REMARK    3  A    between atoms: C_9  and  C_11
REMARK    4  A    between atoms: C_9  and  C_17
REMARK    5  A    between atoms: C_18  and  C_31
REMARK    6  A    between atoms: C_19  and  C_30
REMARK    7  A    between atoms: C_21  and  N_22
REMARK    8  A    between atoms: C_23  and  C_25
REMARK                            x       y       z     vdW  Elec       q    Type
REMARK                         _______ _______ _______ _____ _____    ______ ____
ROOT
ATOM      1  C   UNL     1      -0.268  -1.865   3.870  0.00  0.00    +0.135 C 
ENDROOT
BRANCH   1   9
ATOM      2  C   UNL     1      -2.646   1.254   0.572  0.00  0.00    +0.044 C 
ATOM      3  C   UNL     1      -2.161  -0.172   0.530  0.00  0.00    -0.046 A 
ATOM      4  C   UNL     1      -2.331  -0.946  -0.610  0.00  0.00    +0.021 A 
ATOM      5  C   UNL     1      -1.874  -2.249  -0.617  0.00  0.00    +0.084 A 
ATOM      6  N   UNL     1      -1.281  -2.763   0.444  0.00  0.00    -0.350 N 
ATOM      7  C   UNL     1      -1.101  -2.058   1.550  0.00  0.00    +0.097 A 
ATOM      8  C   UNL     1      -1.531  -0.736   1.624  0.00  0.00    +0.045 A 
ATOM      9  N   UNL     1      -0.471  -2.640   2.643  0.00  0.00    -0.320 N 
ATOM     10  H   UNL     1      -0.166  -3.559   2.595  0.00  0.00    +0.148 HD
ATOM     11  H   UNL     1      -0.969  -3.682   0.413  0.00  0.00    +0.166 HD
ENDBRANCH   1   9
BRANCH   1  12
ATOM     12  C   UNL     1       0.684  -2.600   4.777  0.00  0.00    +0.009 A 
ATOM     13  C   UNL     1       1.744  -1.939   5.371  0.00  0.00    -0.033 A 
ATOM     14  C   UNL     1       2.580  -2.631   6.182  0.00  0.00    -0.008 A 
ATOM     15  S   UNL     1       1.879  -4.272   6.129  0.00  0.00    -0.078 S 
ATOM     16  C   UNL     1       0.513  -3.928   5.033  0.00  0.00    +0.078 A 
ATOM     17  C   UNL     1       3.791  -2.141   6.934  0.00  0.00    +0.052 C 
ATOM     18  C   UNL     1       1.965  -0.470   5.119  0.00  0.00    +0.045 C 
BRANCH  16  19
ATOM     19  N   UNL     1      -0.474  -4.795   4.559  0.00  0.00    -0.273 N 
ATOM     20  C   UNL     1      -0.538  -6.059   5.021  0.00  0.00    +0.284 C 
ATOM     21  O   UNL     1       0.263  -6.446   5.851  0.00  0.00    -0.266 OA
ATOM     22  H   UNL     1      -1.113  -4.487   3.897  0.00  0.00    +0.156 HD
BRANCH  20  23
ATOM     23  C   UNL     1      -1.575  -6.970   4.523  0.00  0.00    +0.189 A 
ATOM     24  C   UNL     1      -1.756  -8.267   4.908  0.00  0.00    +0.054 A 
ATOM     25  C   UNL     1      -2.854  -8.754   4.183  0.00  0.00    +0.042 A 
ATOM     26  C   UNL     1      -3.290  -7.745   3.396  0.00  0.00    +0.196 A 
ATOM     27  O   UNL     1      -2.520  -6.670   3.608  0.00  0.00    -0.458 OA
ENDBRANCH  20  23
ENDBRANCH  16  19
ENDBRANCH   1  12
BRANCH   1  28
ATOM     28  C   UNL     1      -1.589  -1.680   4.572  0.00  0.00    -0.023 A 
ATOM     29  C   UNL     1      -2.575  -2.641   4.453  0.00  0.00    +0.006 A 
ATOM     30  C   UNL     1      -3.787  -2.471   5.096  0.00  0.00    +0.000 A 
ATOM     31  C   UNL     1      -4.012  -1.340   5.859  0.00  0.00    +0.000 A 
ATOM     32  C   UNL     1      -3.025  -0.379   5.978  0.00  0.00    +0.000 A 
ATOM     33  C   UNL     1      -1.812  -0.551   5.338  0.00  0.00    +0.006 A 
ENDBRANCH   1  28
TORSDOF 5
