REMARK  Name = ZINC39673197
REMARK  10 active torsions:
REMARK  status: ('A' for Active; 'I' for Inactive)
REMARK    1  A    between atoms: C_1  and  C_2
REMARK    2  A    between atoms: C_5  and  C_9
REMARK    3  A    between atoms: C_7  and  C_8
REMARK    4  A    between atoms: C_9  and  N_10
REMARK    5  A    between atoms: C_11  and  C_13
REMARK    6  A    between atoms: C_24  and  C_26
REMARK    7  A    between atoms: C_26  and  C_27
REMARK    8  A    between atoms: C_27  and  C_28
REMARK    9  A    between atoms: C_31  and  O_34
REMARK   10  A    between atoms: O_34  and  C_35
REMARK                            x       y       z     vdW  Elec       q    Type
REMARK                         _______ _______ _______ _____ _____    ______ ____
ROOT
ATOM      1  C   UNL     1       3.137  -6.551  -0.051  0.00  0.00    +0.100 C 
ATOM      2  C   UNL     1       3.900  -6.003   1.176  0.00  0.00    +0.121 C 
ATOM      3  N   UNL     1       3.805  -7.081   2.188  0.00  0.00    -0.300 N 
ATOM      4  C   UNL     1       3.965  -8.333   1.411  0.00  0.00    +0.115 C 
ATOM      5  C   UNL     1       3.185  -8.081   0.105  0.00  0.00    -0.004 C 
ATOM      6  C   UNL     1       3.917  -8.710  -1.077  0.00  0.00    -0.010 C 
ATOM      7  C   UNL     1       3.901 -10.234  -0.929  0.00  0.00    -0.082 C 
ATOM      8  N   UNL     1       2.512 -10.708  -0.878  0.00  0.00    +0.379 N 
ATOM      9  C   UNL     1       1.843 -10.171   0.314  0.00  0.00    -0.082 C 
ATOM     10  C   UNL     1       1.772  -8.645   0.218  0.00  0.00    -0.010 C 
ATOM     11  C   UNL     1       3.615  -6.952   3.517  0.00  0.00    +0.216 C 
ATOM     12  O   UNL     1       3.559  -7.938   4.220  0.00  0.00    -0.276 OA
ATOM     13  H   UNL     1       2.022 -10.399  -1.704  0.00  0.00    -0.086 HD
ATOM     14  H   UNL     1       2.503 -11.716  -0.842  0.00  0.00    -0.086 HD
ENDROOT
BRANCH   1  16
ATOM     15  N   UNL     1       1.040  -5.919  -1.200  0.00  0.00    -0.311 N 
ATOM     16  C   UNL     1       1.710  -6.067  -0.040  0.00  0.00    +0.218 C 
ATOM     17  O   UNL     1       1.164  -5.812   1.012  0.00  0.00    -0.275 OA
ATOM     18  H   UNL     1       1.477  -6.123  -2.042  0.00  0.00    +0.149 HD
BRANCH  15  19
ATOM     19  C   UNL     1      -0.347  -5.448  -1.190  0.00  0.00    +0.139 C 
BRANCH  19  24
ATOM     20  C   UNL     1      -2.321  -5.144  -6.613  0.00  0.00    +0.044 C 
ATOM     21  C   UNL     1      -1.806  -5.223  -5.199  0.00  0.00    -0.048 A 
ATOM     22  C   UNL     1      -1.952  -6.392  -4.474  0.00  0.00    +0.004 A 
ATOM     23  C   UNL     1      -1.480  -6.465  -3.178  0.00  0.00    +0.005 A 
ATOM     24  C   UNL     1      -0.861  -5.369  -2.605  0.00  0.00    -0.030 A 
ATOM     25  C   UNL     1      -0.714  -4.201  -3.329  0.00  0.00    +0.008 A 
ATOM     26  C   UNL     1      -1.183  -4.130  -4.628  0.00  0.00    -0.047 A 
ATOM     27  C   UNL     1      -1.018  -2.858  -5.419  0.00  0.00    +0.044 C 
ENDBRANCH  19  24
ENDBRANCH  15  19
ENDBRANCH   1  16
BRANCH  11  28
ATOM     28  C   UNL     1       3.473  -5.582   4.128  0.00  0.00    +0.100 C 
BRANCH  28  29
ATOM     29  C   UNL     1       3.269  -5.715   5.638  0.00  0.00    +0.044 C 
BRANCH  29  30
ATOM     30  C   UNL     1       3.126  -4.345   6.249  0.00  0.00    -0.047 A 
ATOM     31  C   UNL     1       4.247  -3.666   6.689  0.00  0.00    +0.007 A 
ATOM     32  C   UNL     1       4.120  -2.410   7.250  0.00  0.00    +0.046 A 
ATOM     33  C   UNL     1       2.865  -1.831   7.372  0.00  0.00    +0.120 A 
ATOM     34  C   UNL     1       1.742  -2.514   6.930  0.00  0.00    +0.046 A 
ATOM     35  C   UNL     1       1.875  -3.768   6.365  0.00  0.00    +0.007 A 
BRANCH  33  36
ATOM     36  O   UNL     1       2.736  -0.595   7.924  0.00  0.00    -0.495 OA
ATOM     37  C   UNL     1       1.414  -0.061   8.018  0.00  0.00    +0.277 C 
ENDBRANCH  33  36
ENDBRANCH  29  30
ENDBRANCH  28  29
ENDBRANCH  11  28
TORSDOF 7
