REMARK  Name = ZINC57244367
REMARK  8 active torsions:
REMARK  status: ('A' for Active; 'I' for Inactive)
REMARK    1  A    between atoms: C_1  and  C_2
REMARK    2  A    between atoms: C_2  and  C_3
REMARK    3  A    between atoms: C_3  and  C_5
REMARK    4  A    between atoms: C_3  and  N_10
REMARK    5  A    between atoms: N_13  and  C_14
REMARK    6  A    between atoms: C_14  and  C_15
REMARK    7  A    between atoms: C_15  and  C_17
REMARK    8  A    between atoms: C_15  and  N_22
REMARK                            x       y       z     vdW  Elec       q    Type
REMARK                         _______ _______ _______ _____ _____    ______ ____
ROOT
ATOM      1  N   UNL     1       0.010  -0.140  -2.486  0.00  0.00    -0.292 N 
ATOM      2  C   UNL     1       0.254   1.033  -3.104  0.00  0.00    +0.300 C 
ATOM      3  O   UNL     1       1.197   1.718  -2.759  0.00  0.00    -0.253 OA
ATOM      4  N   UNL     1      -0.549   1.447  -4.105  0.00  0.00    -0.301 N 
ATOM      5  H   UNL     1      -0.742  -0.686  -2.762  0.00  0.00    +0.151 HD
ATOM      6  H   UNL     1      -1.301   0.900  -4.380  0.00  0.00    +0.150 HD
ENDROOT
BRANCH   1   7
ATOM      7  C   UNL     1       0.883  -0.590  -1.399  0.00  0.00    +0.111 C 
BRANCH   7   8
ATOM      8  C   UNL     1       0.821  -2.092  -1.294  0.00  0.00    +0.010 A 
ATOM      9  C   UNL     1       1.822  -2.972  -1.049  0.00  0.00    +0.013 A 
ATOM     10  C   UNL     1       1.530  -4.322  -0.996  0.00  0.00    +0.008 A 
ATOM     11  C   UNL     1       0.250  -4.726  -1.190  0.00  0.00    +0.045 A 
ATOM     12  S   UNL     1      -0.591  -3.173  -1.452  0.00  0.00    -0.100 S 
ENDBRANCH   7   8
BRANCH   7  14
ATOM     13  C   UNL     1       0.597   1.551  -0.143  0.00  0.00    +0.006 C 
ATOM     14  C   UNL     1       0.417   0.033  -0.081  0.00  0.00    +0.024 C 
ENDBRANCH   7  14
ENDBRANCH   1   7
BRANCH   4  15
ATOM     15  C   UNL     1      -0.284   2.722  -4.776  0.00  0.00    +0.095 C 
BRANCH  15  16
ATOM     16  C   UNL     1      -1.251   2.890  -5.950  0.00  0.00    -0.013 C 
BRANCH  16  17
ATOM     17  N   UNL     1      -1.075   4.223  -6.542  0.00  0.00    +0.386 N 
ATOM     18  C   UNL     1      -2.021   4.411  -7.671  0.00  0.00    -0.078 C 
ATOM     19  C   UNL     1      -2.119   5.952  -7.799  0.00  0.00    -0.020 C 
ATOM     20  C   UNL     1      -2.077   6.424  -6.327  0.00  0.00    -0.020 C 
ATOM     21  C   UNL     1      -1.413   5.269  -5.554  0.00  0.00    -0.078 C 
ATOM     22  H   UNL     1      -0.124   4.339  -6.861  0.00  0.00    -0.081 HD
ENDBRANCH  16  17
BRANCH  16  23
ATOM     23  C   UNL     1      -0.968   1.837  -6.990  0.00  0.00    -0.022 A 
ATOM     24  C   UNL     1      -1.619   0.671  -7.223  0.00  0.00    +0.009 A 
ATOM     25  C   UNL     1      -1.178  -0.150  -8.244  0.00  0.00    +0.008 A 
ATOM     26  C   UNL     1      -0.108   0.234  -8.981  0.00  0.00    +0.045 A 
ATOM     27  S   UNL     1       0.307   1.804  -8.239  0.00  0.00    -0.103 S 
ENDBRANCH  16  23
ENDBRANCH  15  16
ENDBRANCH   4  15
TORSDOF 7
