REMARK  Name = ZINC34756698
REMARK  6 active torsions:
REMARK  status: ('A' for Active; 'I' for Inactive)
REMARK    1  A    between atoms: C_4  and  N_7
REMARK    2  A    between atoms: C_8  and  C_10
REMARK    3  A    between atoms: C_10  and  S_11
REMARK    4  A    between atoms: S_11  and  C_12
REMARK    5  A    between atoms: N_28  and  C_31
REMARK    6  A    between atoms: C_31  and  C_32
REMARK                            x       y       z     vdW  Elec       q    Type
REMARK                         _______ _______ _______ _____ _____    ______ ____
ROOT
ATOM      1  C   UNL     1       5.579  -4.224  -4.949  0.00  0.00    +0.191 A 
ATOM      2  N   UNL     1       6.181  -5.401  -5.067  0.00  0.00    -0.206 NA
ATOM      3  C   UNL     1       6.796  -5.768  -6.179  0.00  0.00    +0.134 A 
ATOM      4  C   UNL     1       6.816  -4.877  -7.289  0.00  0.00    +0.051 A 
ATOM      5  C   UNL     1       7.431  -5.068  -8.605  0.00  0.00    -0.025 A 
ATOM      6  C   UNL     1       7.306  -4.060  -9.490  0.00  0.00    -0.004 A 
ATOM      7  S   UNL     1       6.376  -2.811  -8.642  0.00  0.00    -0.073 S 
ATOM      8  C   UNL     1       6.157  -3.648  -7.093  0.00  0.00    +0.115 A 
ATOM      9  N   UNL     1       5.561  -3.356  -5.953  0.00  0.00    -0.214 NA
ATOM     10  C   UNL     1       7.840  -4.009 -10.889  0.00  0.00    +0.043 C 
ATOM     11  C   UNL     1       8.878  -5.128 -11.053  0.00  0.00    +0.005 C 
ATOM     12  C   UNL     1       8.289  -6.429 -10.499  0.00  0.00    +0.005 C 
ATOM     13  C   UNL     1       8.183  -6.343  -8.976  0.00  0.00    +0.037 C 
ATOM     14  N   UNL     1       7.412  -7.003  -6.263  0.00  0.00    -0.318 N 
ATOM     15  C   UNL     1       8.851  -7.150  -5.994  0.00  0.00    +0.088 C 
ATOM     16  C   UNL     1       9.044  -8.290  -4.989  0.00  0.00    -0.059 C 
ATOM     17  N   UNL     1       8.395  -9.505  -5.498  0.00  0.00    +0.387 N 
ATOM     18  C   UNL     1       6.944  -9.298  -5.587  0.00  0.00    -0.059 C 
ATOM     19  C   UNL     1       6.646  -8.208  -6.616  0.00  0.00    +0.088 C 
ATOM     20  H   UNL     1       8.759  -9.721  -6.414  0.00  0.00    -0.081 HD
ENDROOT
BRANCH   1  21
ATOM     21  S   UNL     1       4.782  -3.808  -3.434  0.00  0.00    -0.077 S 
BRANCH  21  22
ATOM     22  C   UNL     1       4.108  -2.151  -3.732  0.00  0.00    +0.173 C 
BRANCH  22  24
ATOM     23  N   UNL     1       2.806  -0.456  -2.486  0.00  0.00    -0.312 N 
ATOM     24  C   UNL     1       3.390  -1.671  -2.497  0.00  0.00    +0.224 C 
ATOM     25  O   UNL     1       3.339  -2.377  -1.512  0.00  0.00    -0.275 OA
ATOM     26  H   UNL     1       2.847   0.109  -3.274  0.00  0.00    +0.149 HD
BRANCH  23  30
ATOM     27  C   UNL     1      -0.076   1.500  -0.022  0.00  0.00    +0.000 C 
ATOM     28  C   UNL     1       1.360   2.028  -0.016  0.00  0.00    +0.002 C 
ATOM     29  C   UNL     1       2.088   1.540  -1.270  0.00  0.00    +0.022 C 
ATOM     30  C   UNL     1       2.108   0.011  -1.286  0.00  0.00    +0.073 C 
ATOM     31  C   UNL     1       0.672  -0.518  -1.292  0.00  0.00    +0.022 C 
ATOM     32  C   UNL     1      -0.056  -0.030  -0.038  0.00  0.00    +0.002 C 
ENDBRANCH  23  30
ENDBRANCH  22  24
ENDBRANCH  21  22
ENDBRANCH   1  21
BRANCH  17  33
ATOM     33  C   UNL     1       8.674 -10.624  -4.588  0.00  0.00    +0.019 C 
BRANCH  33  34
ATOM     34  C   UNL     1       8.113 -11.896  -5.171  0.00  0.00    +0.199 C 
ATOM     35  O   UNL     1       7.539 -11.873  -6.239  0.00  0.00    -0.278 OA
ATOM     36  N   UNL     1       8.251 -13.060  -4.505  0.00  0.00    -0.300 N 
ATOM     37  C   UNL     1       8.746 -13.774  -3.325  0.00  0.00    +0.126 C 
ATOM     38  C   UNL     1       8.005 -14.503  -4.447  0.00  0.00    +0.126 C 
ENDBRANCH  33  34
ENDBRANCH  17  33
TORSDOF 6
