REMARK  Name = ZINC52070501
REMARK  9 active torsions:
REMARK  status: ('A' for Active; 'I' for Inactive)
REMARK    1  A    between atoms: C_1  and  C_2
REMARK    2  A    between atoms: C_2  and  C_3
REMARK    3  A    between atoms: N_12  and  C_13
REMARK    4  A    between atoms: C_13  and  C_14
REMARK    5  A    between atoms: N_16  and  C_17
REMARK    6  A    between atoms: C_17  and  C_18
REMARK    7  A    between atoms: C_21  and  O_24
REMARK    8  A    between atoms: O_24  and  C_25
REMARK    9  A    between atoms: C_25  and  C_26
REMARK                            x       y       z     vdW  Elec       q    Type
REMARK                         _______ _______ _______ _____ _____    ______ ____
ROOT
ATOM      1  C   UNL     1      -0.718   1.675  -3.737  0.00  0.00    +0.197 C 
ATOM      2  O   UNL     1      -1.336   0.840  -4.363  0.00  0.00    -0.278 OA
ATOM      3  N   UNL     1      -0.822   2.977  -4.066  0.00  0.00    -0.313 N 
ATOM      4  H   UNL     1      -0.328   3.645  -3.565  0.00  0.00    +0.149 HD
ENDROOT
BRANCH   1   5
ATOM      5  C   UNL     1       0.167   1.255  -2.592  0.00  0.00    +0.019 C 
BRANCH   5  14
ATOM      6  C   UNL     1       0.832  -0.591  -1.220  0.00  0.00    -0.036 C 
ATOM      7  C   UNL     1       0.856  -2.113  -1.121  0.00  0.00    -0.051 A 
ATOM      8  C   UNL     1       1.099  -2.814   0.057  0.00  0.00    +0.010 A 
ATOM      9  C   UNL     1       1.098  -4.168   0.051  0.00  0.00    +0.045 A 
ATOM     10  S   UNL     1       0.745  -4.530  -1.663  0.00  0.00    -0.101 S 
ATOM     11  C   UNL     1       0.627  -2.860  -2.238  0.00  0.00    -0.010 A 
ATOM     12  C   UNL     1       0.349  -2.341  -3.611  0.00  0.00    +0.024 C 
ATOM     13  C   UNL     1       0.702  -0.843  -3.621  0.00  0.00    -0.072 C 
ATOM     14  N   UNL     1       0.109  -0.205  -2.437  0.00  0.00    +0.390 N 
ATOM     15  H   UNL     1      -0.855  -0.491  -2.356  0.00  0.00    -0.080 HD
BRANCH   6  17
ATOM     16  C   UNL     1      -1.300  -0.565   0.082  0.00  0.00    +0.002 C 
ATOM     17  C   UNL     1       0.123  -0.009   0.005  0.00  0.00    -0.014 C 
ENDBRANCH   6  17
ENDBRANCH   5  14
ENDBRANCH   1   5
BRANCH   3  18
ATOM     18  C   UNL     1      -1.682   3.385  -5.179  0.00  0.00    +0.139 C 
BRANCH  18  19
ATOM     19  C   UNL     1      -1.622   4.883  -5.338  0.00  0.00    -0.030 A 
ATOM     20  C   UNL     1      -2.514   5.686  -4.651  0.00  0.00    +0.009 A 
ATOM     21  C   UNL     1      -2.462   7.059  -4.795  0.00  0.00    +0.046 A 
ATOM     22  C   UNL     1      -1.513   7.632  -5.629  0.00  0.00    +0.121 A 
ATOM     23  C   UNL     1      -0.619   6.824  -6.317  0.00  0.00    +0.046 A 
ATOM     24  C   UNL     1      -0.672   5.452  -6.166  0.00  0.00    +0.009 A 
BRANCH  22  25
ATOM     25  O   UNL     1      -1.460   8.982  -5.773  0.00  0.00    -0.483 OA
BRANCH  25  26
ATOM     26  C   UNL     1      -0.458   9.502  -6.648  0.00  0.00    +0.324 C 
BRANCH  26  27
ATOM     27  C   UNL     1      -0.551  11.006  -6.681  0.00  0.00    +0.248 C 
ATOM     28  O   UNL     1      -1.392  11.576  -6.019  0.00  0.00    -0.272 OA
ATOM     29  N   UNL     1       0.302  11.718  -7.445  0.00  0.00    -0.327 N 
ATOM     30  H   UNL     1       0.975  11.262  -7.974  0.00  0.00    +0.145 HD
ATOM     31  H   UNL     1       0.242  12.685  -7.466  0.00  0.00    +0.145 HD
ENDBRANCH  26  27
ENDBRANCH  25  26
ENDBRANCH  22  25
ENDBRANCH  18  19
ENDBRANCH   3  18
TORSDOF 8
