REMARK  Name = ZINC63557832
REMARK  11 active torsions:
REMARK  status: ('A' for Active; 'I' for Inactive)
REMARK    1  A    between atoms: C_1  and  C_2
REMARK    2  A    between atoms: C_2  and  C_3
REMARK    3  A    between atoms: C_3  and  C_4
REMARK    4  A    between atoms: C_3  and  C_6
REMARK    5  A    between atoms: C_4  and  C_5
REMARK    6  A    between atoms: C_13  and  C_15
REMARK    7  A    between atoms: N_20  and  C_22
REMARK    8  A    between atoms: C_22  and  C_23
REMARK    9  A    between atoms: C_23  and  C_24
REMARK   10  A    between atoms: C_27  and  O_33
REMARK   11  A    between atoms: O_33  and  C_34
REMARK                            x       y       z     vdW  Elec       q    Type
REMARK                         _______ _______ _______ _____ _____    ______ ____
ROOT
ATOM      1  C   UNL     1      -4.932  -6.257   3.509  0.00  0.00    +0.101 C 
ATOM      2  C   UNL     1      -5.141  -5.484   4.831  0.00  0.00    +0.110 C 
ATOM      3  C   UNL     1      -6.375  -6.114   5.439  0.00  0.00    +0.216 C 
ATOM      4  O   UNL     1      -6.718  -5.995   6.596  0.00  0.00    -0.276 OA
ATOM      5  N   UNL     1      -7.035  -6.826   4.509  0.00  0.00    -0.300 N 
ATOM      6  C   UNL     1      -6.361  -6.759   3.207  0.00  0.00    +0.121 C 
ENDROOT
BRANCH   1  13
ATOM      7  C   UNL     1      -1.502  -2.184  -0.176  0.00  0.00    +0.157 C 
ATOM      8  N   UNL     1      -2.842  -2.717  -0.511  0.00  0.00    -0.253 N 
ATOM      9  N   UNL     1      -3.385  -3.570   0.423  0.00  0.00    -0.163 NA
ATOM     10  C   UNL     1      -2.783  -3.897   1.523  0.00  0.00    +0.179 C 
ATOM     11  S   UNL     1      -1.235  -3.007   1.448  0.00  0.00    -0.065 S 
ATOM     12  N   UNL     1      -3.236  -4.745   2.530  0.00  0.00    -0.263 N 
ATOM     13  C   UNL     1      -4.441  -5.339   2.419  0.00  0.00    +0.224 C 
ATOM     14  O   UNL     1      -5.130  -5.134   1.442  0.00  0.00    -0.275 OA
ATOM     15  H   UNL     1      -3.305  -2.481  -1.331  0.00  0.00    +0.169 HD
ATOM     16  H   UNL     1      -2.684  -4.909   3.311  0.00  0.00    +0.157 HD
BRANCH   7  17
ATOM     17  C   UNL     1      -1.529  -0.661  -0.031  0.00  0.00    +0.021 C 
BRANCH  17  19
ATOM     18  C   UNL     1      -0.158   1.355   0.518  0.00  0.00    +0.004 C 
ATOM     19  C   UNL     1      -0.114  -0.151   0.249  0.00  0.00    +0.003 C 
ENDBRANCH  17  19
BRANCH  17  20
ATOM     20  C   UNL     1      -2.050  -0.034  -1.326  0.00  0.00    +0.003 C 
ATOM     21  C   UNL     1      -1.171  -0.477  -2.497  0.00  0.00    +0.004 C 
ENDBRANCH  17  20
ENDBRANCH   7  17
ENDBRANCH   1  13
BRANCH   5  22
ATOM     22  C   UNL     1      -8.270  -7.573   4.763  0.00  0.00    +0.112 C 
BRANCH  22  23
ATOM     23  C   UNL     1      -9.476  -6.667   4.510  0.00  0.00    +0.052 C 
BRANCH  23  24
ATOM     24  C   UNL     1     -10.745  -7.436   4.771  0.00  0.00    -0.040 C 
ATOM     25  C   UNL     1     -11.463  -7.455   5.917  0.00  0.00    +0.002 A 
ATOM     26  C   UNL     1     -11.285  -6.793   7.214  0.00  0.00    +0.055 A 
ATOM     27  C   UNL     1     -12.187  -7.006   8.202  0.00  0.00    +0.121 A 
ATOM     28  C   UNL     1     -13.301  -7.847   8.031  0.00  0.00    +0.047 A 
ATOM     29  C   UNL     1     -13.550  -8.499   6.876  0.00  0.00    +0.029 A 
ATOM     30  C   UNL     1     -12.637  -8.340   5.739  0.00  0.00    +0.043 A 
ATOM     31  N   UNL     1     -12.645  -8.848   4.532  0.00  0.00    -0.380 N 
ATOM     32  C   UNL     1     -11.478  -8.336   3.803  0.00  0.00    +0.144 C 
ATOM     33  H   UNL     1     -13.312  -9.456   4.178  0.00  0.00    +0.160 HD
BRANCH  27  34
ATOM     34  O   UNL     1     -12.009  -6.387   9.398  0.00  0.00    -0.495 OA
ATOM     35  C   UNL     1     -12.985  -6.641  10.411  0.00  0.00    +0.277 C 
ENDBRANCH  27  34
ENDBRANCH  23  24
ENDBRANCH  22  23
ENDBRANCH   5  22
TORSDOF 8
