REMARK  Name = ZINC21325911
REMARK  13 active torsions:
REMARK  status: ('A' for Active; 'I' for Inactive)
REMARK    1  A    between atoms: C_1  and  C_2
REMARK    2  A    between atoms: C_2  and  N_3
REMARK    3  A    between atoms: N_3  and  C_4
REMARK    4  A    between atoms: N_3  and  C_6
REMARK    5  A    between atoms: C_4  and  C_5
REMARK    6  A    between atoms: C_9  and  C_13
REMARK    7  A    between atoms: C_10  and  O_12
REMARK    8  A    between atoms: N_14  and  N_15
REMARK    9  A    between atoms: C_19  and  S_22
REMARK   10  A    between atoms: N_20  and  N_21
REMARK   11  A    between atoms: S_22  and  C_23
REMARK   12  A    between atoms: C_23  and  C_24
REMARK   13  A    between atoms: N_26  and  C_27
REMARK                            x       y       z     vdW  Elec       q    Type
REMARK                         _______ _______ _______ _____ _____    ______ ____
ROOT
ATOM      1  N   UNL     1      -1.206  -0.721  -0.056  0.00  0.00    -0.204 N 
ATOM      2  C   UNL     1      -1.186  -2.108  -0.054  0.00  0.00    +0.254 A 
ATOM      3  N   UNL     1      -0.115  -2.863  -0.071  0.00  0.00    -0.109 NA
ATOM      4  N   UNL     1      -0.529  -4.202  -0.059  0.00  0.00    -0.119 NA
ATOM      5  C   UNL     1      -1.841  -4.220  -0.042  0.00  0.00    +0.210 A 
ATOM      6  N   UNL     1      -2.281  -2.927  -0.038  0.00  0.00    -0.211 N 
ATOM      7  H   UNL     1      -2.166  -0.184  -0.045  0.00  0.00    +0.177 HD
ENDROOT
BRANCH   6   8
ATOM      8  N   UNL     1      -3.586  -2.523  -0.021  0.00  0.00    -0.294 N 
ATOM      9  H   UNL     1      -4.393  -3.270  -0.010  0.00  0.00    +0.163 HD
ATOM     10  H   UNL     1      -3.829  -1.450  -0.019  0.00  0.00    +0.163 HD
ENDBRANCH   6   8
BRANCH   1  12
ATOM     11  C   UNL     1      -0.021   1.296  -0.075  0.00  0.00    +0.142 C 
ATOM     12  N   UNL     1      -0.003  -0.003  -0.073  0.00  0.00    -0.187 NA
BRANCH  11  16
ATOM     13  C   UNL     1       3.628   3.472  -0.125  0.00  0.00    +0.033 A 
ATOM     14  C   UNL     1       2.413   4.150  -0.111  0.00  0.00    +0.024 A 
ATOM     15  C   UNL     1       1.228   3.447  -0.095  0.00  0.00    +0.015 A 
ATOM     16  C   UNL     1       1.244   2.050  -0.092  0.00  0.00    +0.036 A 
ATOM     17  C   UNL     1       2.470   1.368  -0.101  0.00  0.00    +0.127 A 
ATOM     18  C   UNL     1       3.654   2.083  -0.122  0.00  0.00    +0.069 A 
BRANCH  17  19
ATOM     19  O   UNL     1       2.494   0.010  -0.093  0.00  0.00    -0.506 OA
ATOM     20  H   UNL     1       3.456  -0.523  -0.099  0.00  0.00    +0.292 HD
ENDBRANCH  17  19
BRANCH  13  21
ATOM     21  N   UNL     1       4.824   4.190  -0.140  0.00  0.00    -0.330 N 
BRANCH  21  23
ATOM     22  C   UNL     1       4.808   6.167   1.299  0.00  0.00    +0.024 C 
ATOM     23  C   UNL     1       4.799   5.655  -0.142  0.00  0.00    +0.102 C 
ENDBRANCH  21  23
BRANCH  21  24
ATOM     24  C   UNL     1       6.105   3.479  -0.155  0.00  0.00    +0.102 C 
ATOM     25  C   UNL     1       6.534   3.229  -1.602  0.00  0.00    +0.024 C 
ENDBRANCH  21  24
ENDBRANCH  13  21
ENDBRANCH  11  16
ENDBRANCH   1  12
BRANCH   5  26
ATOM     26  S   UNL     1      -2.856  -5.660  -0.028  0.00  0.00    -0.075 S 
BRANCH  26  27
ATOM     27  C   UNL     1      -1.671  -7.033  -0.041  0.00  0.00    +0.173 C 
BRANCH  27  28
ATOM     28  C   UNL     1      -2.418  -8.342  -0.029  0.00  0.00    +0.228 C 
ATOM     29  O   UNL     1      -3.631  -8.347  -0.014  0.00  0.00    -0.275 OA
ATOM     30  N   UNL     1      -1.739  -9.506  -0.036  0.00  0.00    -0.284 N 
ATOM     31  H   UNL     1      -0.642  -9.502  -0.125  0.00  0.00    +0.155 HD
BRANCH  30  32
ATOM     32  C   UNL     1      -2.429 -10.720   0.069  0.00  0.00    +0.052 A 
ATOM     33  C   UNL     1      -3.682 -10.860  -0.512  0.00  0.00    +0.026 A 
ATOM     34  C   UNL     1      -4.360 -12.058  -0.407  0.00  0.00    +0.022 A 
ATOM     35  C   UNL     1      -3.792 -13.120   0.275  0.00  0.00    +0.042 A 
ATOM     36  C   UNL     1      -2.543 -12.984   0.854  0.00  0.00    +0.041 A 
ATOM     37  C   UNL     1      -1.857 -11.788   0.749  0.00  0.00    +0.064 A 
ATOM     38 CL   UNL     1      -0.287 -11.620   1.470  0.00  0.00    -0.082 Cl
ATOM     39 CL   UNL     1      -4.648 -14.625   0.404  0.00  0.00    -0.083 Cl
ENDBRANCH  30  32
ENDBRANCH  27  28
ENDBRANCH  26  27
ENDBRANCH   5  26
TORSDOF 11
