REMARK  Name = ZINC15226880
REMARK  4 active torsions:
REMARK  status: ('A' for Active; 'I' for Inactive)
REMARK    1  A    between atoms: C_1  and  O_2
REMARK    2  A    between atoms: O_2  and  C_3
REMARK    3  A    between atoms: C_8  and  C_9
REMARK    4  A    between atoms: N_10  and  N_11
REMARK                            x       y       z     vdW  Elec       q    Type
REMARK                         _______ _______ _______ _____ _____    ______ ____
ROOT
ATOM      1  N   UNL     1      -1.076  -3.040   1.970  0.00  0.00    -0.113 NA
ATOM      2  C   UNL     1      -1.661  -2.465   2.995  0.00  0.00    +0.239 C 
ATOM      3  N   UNL     1      -1.746  -1.083   3.109  0.00  0.00    -0.234 N 
ATOM      4  N   UNL     1      -0.951  -0.441   4.063  0.00  0.00    -0.253 N 
ATOM      5  C   UNL     1      -1.023  -0.795   5.390  0.00  0.00    +0.089 C 
ATOM      6  N   UNL     1      -1.368   0.072   6.285  0.00  0.00    -0.389 N 
ATOM      7  C   UNL     1      -0.691  -2.221   5.785  0.00  0.00    +0.147 C 
ATOM      8  C   UNL     1      -1.840  -3.099   5.340  0.00  0.00    +0.147 A 
ATOM      9  N   UNL     1      -2.231  -3.202   4.019  0.00  0.00    -0.254 N 
ATOM     10  C   UNL     1      -3.236  -4.107   3.997  0.00  0.00    +0.232 A 
ATOM     11  N   UNL     1      -3.449  -4.474   5.235  0.00  0.00    -0.137 NA
ATOM     12  N   UNL     1      -2.617  -3.866   6.029  0.00  0.00    -0.134 NA
ATOM     13  H   UNL     1      -0.342   0.261   3.786  0.00  0.00    +0.171 HD
ATOM     14  H   UNL     1      -1.579   0.982   6.023  0.00  0.00    +0.157 HD
ATOM     15  H   UNL     1      -2.344  -0.575   2.539  0.00  0.00    +0.173 HD
ATOM     16  H   UNL     1      -1.417  -0.187   7.219  0.00  0.00    +0.157 HD
ENDROOT
BRANCH   1  18
ATOM     17  C   UNL     1       0.070  -2.829  -0.064  0.00  0.00    +0.146 C 
ATOM     18  N   UNL     1      -0.511  -2.257   0.955  0.00  0.00    -0.154 NA
BRANCH  17  24
ATOM     19  C   UNL     1       0.605  -0.607  -1.055  0.00  0.00    +0.129 A 
ATOM     20  C   UNL     1       1.172   0.158  -2.061  0.00  0.00    +0.046 A 
ATOM     21  C   UNL     1       1.786  -0.456  -3.137  0.00  0.00    +0.004 A 
ATOM     22  C   UNL     1       1.839  -1.838  -3.219  0.00  0.00    +0.001 A 
ATOM     23  C   UNL     1       1.281  -2.615  -2.226  0.00  0.00    +0.013 A 
ATOM     24  C   UNL     1       0.662  -2.006  -1.130  0.00  0.00    +0.036 A 
BRANCH  19  26
ATOM     25  C   UNL     1      -0.017   1.425   0.010  0.00  0.00    +0.277 C 
ATOM     26  O   UNL     1       0.002  -0.004   0.002  0.00  0.00    -0.494 OA
ENDBRANCH  19  26
ENDBRANCH  17  24
ENDBRANCH   1  18
TORSDOF 3
