REMARK  Name = ZINC22936876
REMARK  6 active torsions:
REMARK  status: ('A' for Active; 'I' for Inactive)
REMARK    1  A    between atoms: C_13  and  C_15
REMARK    2  A    between atoms: C_15  and  C_16
REMARK    3  A    between atoms: C_16  and  C_17
REMARK    4  A    between atoms: C_27  and  N_30
REMARK    5  A    between atoms: N_30  and  C_31
REMARK    6  A    between atoms: C_31  and  C_32
REMARK                            x       y       z     vdW  Elec       q    Type
REMARK                         _______ _______ _______ _____ _____    ______ ____
ROOT
ATOM      1  C   UNL     1      -0.811  -8.941   1.069  0.00  0.00    -0.050 C 
ATOM      2  C   UNL     1      -0.520 -10.436   1.266  0.00  0.00    +0.089 C 
ATOM      3  N   UNL     1      -1.633 -11.273   0.837  0.00  0.00    -0.318 N 
ATOM      4  C   UNL     1      -2.708 -10.821   0.160  0.00  0.00    +0.200 C 
ATOM      5  O   UNL     1      -3.545 -11.595  -0.255  0.00  0.00    -0.278 OA
ATOM      6  C   UNL     1      -2.854  -9.353  -0.069  0.00  0.00    +0.021 C 
ATOM      7  N   UNL     1      -1.483  -8.792  -0.210  0.00  0.00    +0.391 N 
ATOM      8  C   UNL     1      -1.676  -7.441  -0.727  0.00  0.00    -0.059 C 
ATOM      9  C   UNL     1      -2.961  -7.505  -1.593  0.00  0.00    +0.036 C 
ATOM     10  C   UNL     1      -3.518  -8.955  -1.395  0.00  0.00    +0.010 C 
ATOM     11  H   UNL     1      -1.598 -12.218   1.052  0.00  0.00    +0.149 HD
ATOM     12  H   UNL     1      -0.985  -9.326  -0.907  0.00  0.00    -0.080 HD
ENDROOT
BRANCH   9  13
ATOM     13  N   UNL     1      -2.637  -7.261  -3.005  0.00  0.00    -0.311 NA
ATOM     14  H   UNL     1      -1.847  -6.639  -3.093  0.00  0.00    +0.122 HD
BRANCH  13  15
ATOM     15  C   UNL     1      -3.803  -6.737  -3.730  0.00  0.00    +0.116 C 
BRANCH  15  16
ATOM     16  C   UNL     1      -3.433  -6.500  -5.171  0.00  0.00    -0.033 A 
ATOM     17  C   UNL     1      -2.924  -5.275  -5.561  0.00  0.00    +0.008 A 
ATOM     18  C   UNL     1      -2.585  -5.056  -6.882  0.00  0.00    +0.038 A 
ATOM     19  C   UNL     1      -2.754  -6.064  -7.816  0.00  0.00    +0.123 A 
ATOM     20  C   UNL     1      -3.264  -7.290  -7.425  0.00  0.00    +0.038 A 
ATOM     21  C   UNL     1      -3.598  -7.509  -6.102  0.00  0.00    +0.008 A 
ATOM     22  F   UNL     1      -2.423  -5.851  -9.109  0.00  0.00    -0.205 F 
ENDBRANCH  15  16
ENDBRANCH  13  15
ENDBRANCH   9  13
BRANCH   1  23
ATOM     23  C   UNL     1       0.500  -8.152   1.062  0.00  0.00    -0.005 C 
BRANCH  23  24
ATOM     24  C   UNL     1       1.149  -8.231   2.445  0.00  0.00    +0.094 C 
BRANCH  24  37
ATOM     25  C   UNL     1       6.494  -5.301   8.325  0.00  0.00    +0.005 A 
ATOM     26  C   UNL     1       6.020  -5.937   9.464  0.00  0.00    +0.018 A 
ATOM     27  C   UNL     1       4.826  -6.627   9.406  0.00  0.00    +0.084 A 
ATOM     28  N   UNL     1       4.134  -6.689   8.284  0.00  0.00    -0.350 N 
ATOM     29  C   UNL     1       4.552  -6.096   7.177  0.00  0.00    +0.099 A 
ATOM     30  C   UNL     1       5.747  -5.382   7.164  0.00  0.00    +0.042 A 
ATOM     31  N   UNL     1       3.791  -6.186   6.018  0.00  0.00    -0.314 N 
ATOM     32  C   UNL     1       4.169  -5.433   4.814  0.00  0.00    +0.125 C 
ATOM     33  C   UNL     1       4.310  -6.415   3.645  0.00  0.00    +0.126 C 
ATOM     34  N   UNL     1       3.112  -7.266   3.600  0.00  0.00    -0.298 N 
ATOM     35  C   UNL     1       2.734  -8.020   4.804  0.00  0.00    +0.126 C 
ATOM     36  C   UNL     1       2.597  -7.042   5.971  0.00  0.00    +0.125 C 
ATOM     37  C   UNL     1       2.374  -7.354   2.476  0.00  0.00    +0.216 C 
ATOM     38  O   UNL     1       2.696  -6.728   1.489  0.00  0.00    -0.276 OA
ATOM     39  H   UNL     1       3.298  -7.180   8.271  0.00  0.00    +0.166 HD
ENDBRANCH  24  37
ENDBRANCH  23  24
ENDBRANCH   1  23
TORSDOF 6
