REMARK  Name = ZINC39695661
REMARK  7 active torsions:
REMARK  status: ('A' for Active; 'I' for Inactive)
REMARK    1  A    between atoms: C_1  and  C_2
REMARK    2  A    between atoms: C_2  and  N_3
REMARK    3  A    between atoms: C_7  and  C_9
REMARK    4  A    between atoms: C_9  and  N_10
REMARK    5  A    between atoms: C_11  and  C_13
REMARK    6  A    between atoms: C_24  and  C_26
REMARK    7  A    between atoms: C_27  and  C_31
REMARK                            x       y       z     vdW  Elec       q    Type
REMARK                         _______ _______ _______ _____ _____    ______ ____
ROOT
ATOM      1  C   UNL     1      -3.523  -1.290   3.764  0.00  0.00    +0.100 C 
ATOM      2  C   UNL     1      -3.345   0.228   3.990  0.00  0.00    +0.121 C 
ATOM      3  N   UNL     1      -4.444   0.601   4.911  0.00  0.00    -0.296 N 
ATOM      4  C   UNL     1      -4.526  -0.531   5.865  0.00  0.00    +0.115 C 
ATOM      5  C   UNL     1      -4.298  -1.785   4.997  0.00  0.00    -0.004 C 
ATOM      6  C   UNL     1      -3.471  -2.813   5.764  0.00  0.00    -0.010 C 
ATOM      7  C   UNL     1      -4.285  -3.333   6.952  0.00  0.00    -0.082 C 
ATOM      8  N   UNL     1      -5.530  -3.940   6.466  0.00  0.00    +0.379 N 
ATOM      9  C   UNL     1      -6.361  -2.923   5.812  0.00  0.00    -0.082 C 
ATOM     10  C   UNL     1      -5.635  -2.386   4.575  0.00  0.00    -0.010 C 
ATOM     11  C   UNL     1      -5.199   1.717   4.887  0.00  0.00    +0.254 C 
ATOM     12  O   UNL     1      -5.080   2.513   3.974  0.00  0.00    -0.269 OA
ATOM     13  H   UNL     1      -5.311  -4.670   5.805  0.00  0.00    -0.086 HD
ATOM     14  H   UNL     1      -6.035  -4.336   7.245  0.00  0.00    -0.086 HD
ENDROOT
BRANCH  11  15
ATOM     15  C   UNL     1      -6.165   1.972   5.960  0.00  0.00    +0.077 A 
ATOM     16  C   UNL     1      -7.101   2.989   6.070  0.00  0.00    -0.031 A 
ATOM     17  C   UNL     1      -7.875   2.967   7.205  0.00  0.00    +0.011 A 
ATOM     18  C   UNL     1      -7.681   1.982   8.117  0.00  0.00    +0.046 A 
ATOM     19  S   UNL     1      -6.447   1.051   7.460  0.00  0.00    -0.092 S 
ATOM     20  C   UNL     1      -7.258   4.051   5.013  0.00  0.00    +0.045 C 
ENDBRANCH  11  15
BRANCH   1  22
ATOM     21  N   UNL     1      -2.070  -3.176   3.090  0.00  0.00    -0.317 N 
ATOM     22  C   UNL     1      -2.180  -1.970   3.681  0.00  0.00    +0.218 C 
ATOM     23  O   UNL     1      -1.198  -1.431   4.147  0.00  0.00    -0.275 OA
ATOM     24  H   UNL     1      -2.856  -3.607   2.717  0.00  0.00    +0.149 HD
BRANCH  21  25
ATOM     25  C   UNL     1      -0.765  -3.836   3.009  0.00  0.00    +0.089 C 
BRANCH  25  30
ATOM     26  N   UNL     1      -1.552  -4.982   0.980  0.00  0.00    +0.382 N 
ATOM     27  C   UNL     1      -0.630  -5.472  -0.067  0.00  0.00    -0.078 C 
ATOM     28  C   UNL     1       0.777  -5.394   0.578  0.00  0.00    -0.020 C 
ATOM     29  C   UNL     1       0.473  -5.801   2.043  0.00  0.00    -0.016 C 
ATOM     30  C   UNL     1      -0.917  -5.181   2.296  0.00  0.00    -0.051 C 
ATOM     31  H   UNL     1      -1.735  -4.000   0.836  0.00  0.00    -0.081 HD
BRANCH  26  33
ATOM     32  C   UNL     1      -3.528  -5.427  -0.397  0.00  0.00    -0.017 C 
ATOM     33  C   UNL     1      -2.812  -5.734   0.920  0.00  0.00    -0.082 C 
ENDBRANCH  26  33
ENDBRANCH  25  30
ENDBRANCH  21  25
ENDBRANCH   1  22
TORSDOF 5
