REMARK  Name = ZINC09836985
REMARK  6 active torsions:
REMARK  status: ('A' for Active; 'I' for Inactive)
REMARK    1  A    between atoms: C_5  and  C_7
REMARK    2  A    between atoms: C_10  and  S_13
REMARK    3  A    between atoms: S_13  and  C_14
REMARK    4  A    between atoms: C_14  and  C_15
REMARK    5  A    between atoms: N_17  and  C_18
REMARK    6  A    between atoms: C_19  and  C_26
REMARK                            x       y       z     vdW  Elec       q    Type
REMARK                         _______ _______ _______ _____ _____    ______ ____
ROOT
ATOM      1  C   UNL     1       2.220  -8.331  -0.059  0.00  0.00    +0.228 C 
ATOM      2  O   UNL     1       3.427  -8.448  -0.072  0.00  0.00    -0.275 OA
ATOM      3  N   UNL     1       1.436  -9.428  -0.056  0.00  0.00    -0.279 N 
ATOM      4  H   UNL     1       0.471  -9.334  -0.046  0.00  0.00    +0.155 HD
ENDROOT
BRANCH   3   5
ATOM      5  C   UNL     1       2.010 -10.690  -0.068  0.00  0.00    +0.084 A 
ATOM      6  C   UNL     1       1.379 -11.922  -0.061  0.00  0.00    +0.068 A 
ATOM      7  C   UNL     1       2.224 -13.116  -0.081  0.00  0.00    -0.023 A 
ATOM      8  C   UNL     1       3.548 -12.878  -0.094  0.00  0.00    -0.004 A 
ATOM      9  S   UNL     1       3.690 -11.107  -0.087  0.00  0.00    -0.077 S 
ATOM     10  C   UNL     1       4.350 -14.151  -0.112  0.00  0.00    +0.043 C 
ATOM     11  C   UNL     1       3.343 -15.239  -0.544  0.00  0.00    +0.010 C 
ATOM     12  C   UNL     1       2.004 -14.629  -0.084  0.00  0.00    +0.037 C 
BRANCH   6  13
ATOM     13  C   UNL     1      -0.083 -12.027  -0.040  0.00  0.00    +0.244 C 
ATOM     14  O   UNL     1      -0.706 -12.068  -1.085  0.00  0.00    -0.270 OA
ATOM     15  N   UNL     1      -0.737 -12.077   1.137  0.00  0.00    -0.325 N 
ATOM     16  H   UNL     1      -0.241 -12.044   1.970  0.00  0.00    +0.145 HD
ATOM     17  H   UNL     1      -1.705 -12.147   1.152  0.00  0.00    +0.145 HD
ENDBRANCH   6  13
ENDBRANCH   3   5
BRANCH   1  18
ATOM     18  C   UNL     1       1.596  -6.959  -0.046  0.00  0.00    +0.173 C 
BRANCH  18  19
ATOM     19  S   UNL     1       2.899  -5.704  -0.054  0.00  0.00    -0.077 S 
BRANCH  19  23
ATOM     20  C   UNL     1       1.253  -2.160  -0.021  0.00  0.00    +0.165 A 
ATOM     21  N   UNL     1       2.376  -2.956  -0.036  0.00  0.00    -0.316 N 
ATOM     22  H   UNL     1       3.301  -2.664  -0.044  0.00  0.00    +0.169 HD
ATOM     23  C   UNL     1       1.915  -4.242  -0.037  0.00  0.00    +0.190 A 
ATOM     24  N   UNL     1       0.603  -4.186  -0.024  0.00  0.00    -0.122 NA
ATOM     25  N   UNL     1       0.213  -2.961  -0.009  0.00  0.00    -0.128 NA
BRANCH  20  30
ATOM     26  C   UNL     1       2.383   1.422  -0.013  0.00  0.00    +0.001 A 
ATOM     27  C   UNL     1       1.170   2.088   0.002  0.00  0.00    +0.003 A 
ATOM     28  C   UNL     1      -0.017   1.378   0.010  0.00  0.00    +0.039 A 
ATOM     29  C   UNL     1       0.002  -0.004   0.002  0.00  0.00    +0.134 A 
ATOM     30  C   UNL     1       1.224  -0.682  -0.013  0.00  0.00    +0.054 A 
ATOM     31  C   UNL     1       2.417   0.043  -0.021  0.00  0.00    +0.014 A 
ATOM     32  F   UNL     1      -1.157  -0.697   0.009  0.00  0.00    -0.205 F 
ENDBRANCH  20  30
ENDBRANCH  19  23
ENDBRANCH  18  19
ENDBRANCH   1  18
TORSDOF 6
