REMARK  Name = ZINC54038886
REMARK  12 active torsions:
REMARK  status: ('A' for Active; 'I' for Inactive)
REMARK    1  A    between atoms: C_1  and  N_2
REMARK    2  A    between atoms: N_2  and  C_3
REMARK    3  A    between atoms: N_2  and  C_4
REMARK    4  A    between atoms: C_4  and  C_6
REMARK    5  A    between atoms: C_4  and  C_22
REMARK    6  A    between atoms: C_6  and  N_7
REMARK    7  A    between atoms: N_10  and  C_11
REMARK    8  A    between atoms: C_11  and  C_12
REMARK    9  A    between atoms: C_12  and  C_14
REMARK   10  A    between atoms: C_12  and  N_19
REMARK   11  A    between atoms: N_19  and  C_20
REMARK   12  A    between atoms: N_19  and  C_21
REMARK                            x       y       z     vdW  Elec       q    Type
REMARK                         _______ _______ _______ _____ _____    ______ ____
ROOT
ATOM      1  N   UNL     1      -0.621   1.300   1.899  0.00  0.00    -0.301 N 
ATOM      2  C   UNL     1      -1.309   1.919   2.879  0.00  0.00    +0.300 C 
ATOM      3  O   UNL     1      -1.642   1.301   3.871  0.00  0.00    -0.253 OA
ATOM      4  N   UNL     1      -1.629   3.223   2.758  0.00  0.00    -0.301 N 
ATOM      5  H   UNL     1      -0.355   1.793   1.107  0.00  0.00    +0.150 HD
ATOM      6  H   UNL     1      -1.363   3.716   1.966  0.00  0.00    +0.150 HD
ENDROOT
BRANCH   1   7
ATOM      7  C   UNL     1      -0.274  -0.117   2.030  0.00  0.00    +0.098 C 
BRANCH   7   8
ATOM      8  C   UNL     1       0.402  -0.598   0.745  0.00  0.00    +0.016 C 
BRANCH   8   9
ATOM      9  C   UNL     1      -0.581  -0.528  -0.396  0.00  0.00    +0.093 A 
ATOM     10  C   UNL     1      -1.281  -1.562  -0.895  0.00  0.00    +0.043 A 
ATOM     11  C   UNL     1      -2.075  -1.050  -1.947  0.00  0.00    +0.041 A 
ATOM     12  C   UNL     1      -1.812   0.267  -2.027  0.00  0.00    +0.195 A 
ATOM     13  O   UNL     1      -0.911   0.578  -1.081  0.00  0.00    -0.469 OA
ENDBRANCH   8   9
BRANCH   8  15
ATOM     14  C   UNL     1       2.537   0.154   1.537  0.00  0.00    -0.096 C 
ATOM     15  N   UNL     1       1.557   0.260   0.448  0.00  0.00    +0.384 N 
ATOM     16  C   UNL     1       2.177  -0.172  -0.812  0.00  0.00    -0.096 C 
ATOM     17  H   UNL     1       1.252   1.217   0.362  0.00  0.00    -0.082 HD
ENDBRANCH   8  15
ENDBRANCH   7   8
ENDBRANCH   1   7
BRANCH   4  18
ATOM     18  C   UNL     1      -2.377   3.895   3.823  0.00  0.00    +0.095 C 
BRANCH  18  19
ATOM     19  C   UNL     1      -2.708   5.325   3.389  0.00  0.00    -0.014 C 
BRANCH  19  20
ATOM     20  C   UNL     1      -1.432   6.115   3.251  0.00  0.00    -0.022 A 
ATOM     21  C   UNL     1      -0.740   6.430   2.129  0.00  0.00    +0.009 A 
ATOM     22  C   UNL     1       0.418   7.175   2.243  0.00  0.00    +0.008 A 
ATOM     23  C   UNL     1       0.828   7.569   3.473  0.00  0.00    +0.045 A 
ATOM     24  S   UNL     1      -0.445   6.888   4.522  0.00  0.00    -0.103 S 
ENDBRANCH  19  20
BRANCH  19  25
ATOM     25  N   UNL     1      -3.569   5.956   4.398  0.00  0.00    +0.382 N 
ATOM     26  C   UNL     1      -3.942   7.304   3.950  0.00  0.00    -0.096 C 
ATOM     27  C   UNL     1      -4.782   5.148   4.582  0.00  0.00    -0.096 C 
ATOM     28  H   UNL     1      -3.070   6.018   5.274  0.00  0.00    -0.082 HD
ENDBRANCH  19  25
ENDBRANCH  18  19
ENDBRANCH   4  18
TORSDOF 8
