REMARK  Name = ZINC56755053
REMARK  12 active torsions:
REMARK  status: ('A' for Active; 'I' for Inactive)
REMARK    1  A    between atoms: C_1  and  C_2
REMARK    2  A    between atoms: N_7  and  C_9
REMARK    3  A    between atoms: C_9  and  C_10
REMARK    4  A    between atoms: C_9  and  C_11
REMARK    5  A    between atoms: C_9  and  C_12
REMARK    6  A    between atoms: C_12  and  N_13
REMARK    7  A    between atoms: N_16  and  N_17
REMARK    8  A    between atoms: C_18  and  C_20
REMARK    9  A    between atoms: C_20  and  C_21
REMARK   10  A    between atoms: C_21  and  C_22
REMARK   11  A    between atoms: C_25  and  O_28
REMARK   12  A    between atoms: O_28  and  C_29
REMARK                            x       y       z     vdW  Elec       q    Type
REMARK                         _______ _______ _______ _____ _____    ______ ____
ROOT
ATOM      1  N   UNL     1       2.234  -4.377   1.177  0.00  0.00    -0.300 N 
ATOM      2  C   UNL     1       2.304  -5.671   0.808  0.00  0.00    +0.316 C 
ATOM      3  O   UNL     1       1.695  -6.516   1.435  0.00  0.00    -0.251 OA
ATOM      4  N   UNL     1       3.050  -6.029  -0.256  0.00  0.00    -0.218 N 
ATOM      5  H   UNL     1       2.720  -3.702   0.677  0.00  0.00    +0.150 HD
ATOM      6  H   UNL     1       3.101  -6.960  -0.522  0.00  0.00    +0.174 HD
ENDROOT
BRANCH   4   7
ATOM      7  N   UNL     1       3.752  -5.055  -0.979  0.00  0.00    -0.233 N 
ATOM      8  C   UNL     1       4.497  -5.412  -2.043  0.00  0.00    +0.229 C 
ATOM      9  O   UNL     1       4.561  -6.577  -2.375  0.00  0.00    -0.274 OA
ATOM     10  H   UNL     1       3.701  -4.123  -0.713  0.00  0.00    +0.173 HD
BRANCH   8  11
ATOM     11  C   UNL     1       5.252  -4.365  -2.820  0.00  0.00    +0.102 C 
BRANCH  11  12
ATOM     12  C   UNL     1       6.012  -5.031  -3.969  0.00  0.00    +0.044 C 
BRANCH  12  13
ATOM     13  C   UNL     1       6.767  -3.984  -4.746  0.00  0.00    -0.047 A 
ATOM     14  C   UNL     1       6.162  -3.348  -5.814  0.00  0.00    +0.007 A 
ATOM     15  C   UNL     1       6.852  -2.388  -6.529  0.00  0.00    +0.046 A 
ATOM     16  C   UNL     1       8.153  -2.062  -6.173  0.00  0.00    +0.120 A 
ATOM     17  C   UNL     1       8.758  -2.701  -5.101  0.00  0.00    +0.046 A 
ATOM     18  C   UNL     1       8.061  -3.657  -4.386  0.00  0.00    +0.007 A 
BRANCH  16  19
ATOM     19  O   UNL     1       8.834  -1.118  -6.875  0.00  0.00    -0.495 OA
ATOM     20  C   UNL     1      10.169  -0.833  -6.452  0.00  0.00    +0.277 C 
ENDBRANCH  16  19
ENDBRANCH  12  13
ENDBRANCH  11  12
ENDBRANCH   8  11
ENDBRANCH   4   7
BRANCH   1  21
ATOM     21  C   UNL     1       1.423  -3.988   2.334  0.00  0.00    +0.093 C 
BRANCH  21  22
ATOM     22  C   UNL     1       1.615  -2.496   2.613  0.00  0.00    -0.055 C 
ATOM     23  C   UNL     1       0.834  -2.107   3.870  0.00  0.00    -0.008 C 
ATOM     24  C   UNL     1       1.102  -1.684   1.422  0.00  0.00    -0.008 C 
BRANCH  22  30
ATOM     25  C   UNL     1       4.900   1.012   3.547  0.00  0.00    +0.005 C 
ATOM     26  C   UNL     1       4.715  -0.476   3.242  0.00  0.00    -0.031 C 
ATOM     27  C   UNL     1       5.305  -1.309   4.384  0.00  0.00    -0.001 C 
ATOM     28  C   UNL     1       5.045  -2.793   4.107  0.00  0.00    -0.018 C 
ATOM     29  C   UNL     1       3.541  -3.019   3.941  0.00  0.00    -0.078 C 
ATOM     30  N   UNL     1       3.043  -2.216   2.818  0.00  0.00    +0.384 N 
ATOM     31  C   UNL     1       3.223  -0.788   3.107  0.00  0.00    -0.075 C 
ATOM     32  H   UNL     1       3.554  -2.455   1.981  0.00  0.00    -0.081 HD
ENDBRANCH  22  30
ENDBRANCH  21  22
ENDBRANCH   1  21
TORSDOF 8
