REMARK  Name = ZINC09314385
REMARK  8 active torsions:
REMARK  status: ('A' for Active; 'I' for Inactive)
REMARK    1  A    between atoms: C_1  and  C_2
REMARK    2  A    between atoms: C_2  and  C_4
REMARK    3  A    between atoms: C_2  and  N_55
REMARK    4  A    between atoms: N_6  and  C_7
REMARK    5  A    between atoms: C_10  and  C_13
REMARK    6  A    between atoms: C_13  and  C_15
REMARK    7  A    between atoms: N_19  and  C_22
REMARK    8  A    between atoms: C_25  and  C_27
REMARK                            x       y       z     vdW  Elec       q    Type
REMARK                         _______ _______ _______ _____ _____    ______ ____
ROOT
ATOM      1  C   UNL     1       0.227  -0.088   2.349  0.00  0.00    -0.076 C 
ATOM      2  C   UNL     1       0.967  -0.696   3.561  0.00  0.00    +0.000 C 
ATOM      3  C   UNL     1       2.450  -0.665   3.295  0.00  0.00    +0.104 C 
ATOM      4  N   UNL     1       3.106   0.554   3.821  0.00  0.00    -0.317 N 
ATOM      5  C   UNL     1       2.331   1.792   3.596  0.00  0.00    +0.088 C 
ATOM      6  C   UNL     1       1.708   1.824   2.223  0.00  0.00    -0.059 C 
ATOM      7  N   UNL     1       0.300   1.333   2.373  0.00  0.00    +0.388 N 
ATOM      8  H   UNL     1      -0.064   1.659   3.276  0.00  0.00    -0.081 HD
ENDROOT
BRANCH   4   9
ATOM      9  C   UNL     1       4.399   0.678   3.325  0.00  0.00    +0.117 A 
ATOM     10  C   UNL     1       5.477   0.693   4.206  0.00  0.00    +0.079 A 
ATOM     11  C   UNL     1       6.759   0.817   3.698  0.00  0.00    +0.037 A 
ATOM     12  C   UNL     1       6.919   0.922   2.322  0.00  0.00    +0.072 A 
ATOM     13  C   UNL     1       5.804   0.901   1.508  0.00  0.00    +0.096 A 
ATOM     14 CL   UNL     1       5.218   0.556   5.917  0.00  0.00    -0.080 Cl
ATOM     15  N   UNL     1       4.532   0.774   1.971  0.00  0.00    -0.348 N 
ATOM     16  H   UNL     1       3.722   0.753   1.341  0.00  0.00    +0.167 HD
BRANCH  12  17
ATOM     17  C   UNL     1       8.295   1.060   1.725  0.00  0.00    +0.419 C 
ATOM     18  F   UNL     1       8.813  -0.210   1.450  0.00  0.00    -0.166 F 
ATOM     19  F   UNL     1       8.217   1.799   0.539  0.00  0.00    -0.166 F 
ATOM     20  F   UNL     1       9.133   1.719   2.631  0.00  0.00    -0.166 F 
ENDBRANCH  12  17
ENDBRANCH   4   9
BRANCH   7  22
ATOM     21  C   UNL     1      -0.036   1.449  -0.084  0.00  0.00    -0.004 C 
ATOM     22  C   UNL     1      -0.534   1.888   1.294  0.00  0.00    +0.016 C 
BRANCH  22  23
ATOM     23  C   UNL     1      -0.493   3.392   1.388  0.00  0.00    +0.203 C 
ATOM     24  O   UNL     1       0.187   3.928   2.237  0.00  0.00    -0.277 OA
ATOM     25  N   UNL     1      -1.212   4.140   0.528  0.00  0.00    -0.287 N 
ATOM     26  H   UNL     1      -1.697   3.715  -0.196  0.00  0.00    +0.155 HD
BRANCH  25  27
ATOM     27  C   UNL     1      -1.260   5.524   0.681  0.00  0.00    +0.033 A 
ATOM     28  C   UNL     1      -1.347   6.343  -0.441  0.00  0.00    +0.024 A 
ATOM     29  C   UNL     1      -1.399   7.706  -0.295  0.00  0.00    +0.013 A 
ATOM     30  C   UNL     1      -1.354   8.273   0.985  0.00  0.00    +0.017 A 
ATOM     31  C   UNL     1      -1.262   7.445   2.111  0.00  0.00    +0.013 A 
ATOM     32  C   UNL     1      -1.215   6.083   1.955  0.00  0.00    +0.024 A 
BRANCH  30  33
ATOM     33  C   UNL     1      -1.405   9.732   1.146  0.00  0.00    +0.160 C 
ATOM     34  O   UNL     1      -1.366  10.221   2.255  0.00  0.00    -0.292 OA
ATOM     35  C   UNL     1      -1.504  10.621  -0.067  0.00  0.00    +0.091 C 
ENDBRANCH  30  33
ENDBRANCH  25  27
ENDBRANCH  22  23
ENDBRANCH   7  22
TORSDOF 6
