REMARK  Name = ZINC13024170
REMARK  10 active torsions:
REMARK  status: ('A' for Active; 'I' for Inactive)
REMARK    1  A    between atoms: C_1  and  C_2
REMARK    2  A    between atoms: C_2  and  C_4
REMARK    3  A    between atoms: C_2  and  O_25
REMARK    4  A    between atoms: N_6  and  C_7
REMARK    5  A    between atoms: C_10  and  S_13
REMARK    6  A    between atoms: S_13  and  N_16
REMARK    7  A    between atoms: N_16  and  C_17
REMARK    8  A    between atoms: N_16  and  C_18
REMARK    9  A    between atoms: N_21  and  C_24
REMARK   10  A    between atoms: O_25  and  C_26
REMARK                            x       y       z     vdW  Elec       q    Type
REMARK                         _______ _______ _______ _____ _____    ______ ____
ROOT
ATOM      1  C   UNL     1       0.857  -0.700  -3.809  0.00  0.00    +0.034 A 
ATOM      2  C   UNL     1       1.962  -1.540  -3.845  0.00  0.00    +0.025 A 
ATOM      3  C   UNL     1       2.527  -1.884  -5.057  0.00  0.00    +0.030 A 
ATOM      4  C   UNL     1       1.994  -1.392  -6.235  0.00  0.00    +0.106 A 
ATOM      5  C   UNL     1       0.894  -0.554  -6.202  0.00  0.00    +0.030 A 
ATOM      6  C   UNL     1       0.320  -0.212  -4.994  0.00  0.00    +0.025 A 
ENDROOT
BRANCH   1   9
ATOM      7  C   UNL     1      -1.052  -0.183  -2.487  0.00  0.00    +0.258 C 
ATOM      8  O   UNL     1      -1.764  -0.430  -3.437  0.00  0.00    -0.271 OA
ATOM      9  N   UNL     1       0.282  -0.350  -2.582  0.00  0.00    -0.282 N 
ATOM     10  H   UNL     1       0.843  -0.227  -1.801  0.00  0.00    +0.155 HD
BRANCH   7  12
ATOM     11  C   UNL     1      -1.434  -0.727  -0.098  0.00  0.00    +0.062 C 
ATOM     12  C   UNL     1      -1.659   0.311  -1.199  0.00  0.00    +0.256 C 
BRANCH  12  13
ATOM     13  O   UNL     1      -3.062   0.516  -1.381  0.00  0.00    -0.480 OA
BRANCH  13  14
ATOM     14  C   UNL     1      -3.666   1.413  -0.558  0.00  0.00    +0.122 A 
ATOM     15  C   UNL     1      -2.948   2.006   0.470  0.00  0.00    +0.047 A 
ATOM     16  C   UNL     1      -3.565   2.918   1.305  0.00  0.00    +0.019 A 
ATOM     17  C   UNL     1      -4.897   3.239   1.117  0.00  0.00    +0.018 A 
ATOM     18  C   UNL     1      -5.615   2.648   0.092  0.00  0.00    +0.019 A 
ATOM     19  C   UNL     1      -5.001   1.741  -0.749  0.00  0.00    +0.047 A 
ATOM     20 BR   UNL     1      -5.738   4.487   2.261  0.00  0.00    -0.050 Br
ENDBRANCH  13  14
ENDBRANCH  12  13
ENDBRANCH   7  12
ENDBRANCH   1   9
BRANCH   4  21
ATOM     21  S   UNL     1       2.718  -1.833  -7.779  0.00  0.00    +0.061 S 
ATOM     22  O   UNL     1       2.370  -0.806  -8.699  0.00  0.00    -0.153 OA
ATOM     23  O   UNL     1       4.067  -2.188  -7.509  0.00  0.00    -0.153 OA
BRANCH  21  24
ATOM     24  N   UNL     1       1.961  -3.211  -8.300  0.00  0.00    -0.177 NA
ATOM     25  C   UNL     1       0.762  -3.117  -9.136  0.00  0.00    +0.132 C 
BRANCH  24  26
ATOM     26  C   UNL     1       2.491  -4.524  -7.923  0.00  0.00    +0.076 C 
ATOM     27  C   UNL     1       2.850  -5.312  -9.187  0.00  0.00    +0.002 C 
ATOM     28  C   UNL     1       3.327  -6.711  -8.790  0.00  0.00    -0.078 C 
ATOM     29  N   UNL     1       2.260  -7.408  -8.063  0.00  0.00    +0.378 N 
ATOM     30  C   UNL     1       1.960  -6.697  -6.814  0.00  0.00    -0.078 C 
ATOM     31  C   UNL     1       1.430  -5.297  -7.135  0.00  0.00    +0.002 C 
ATOM     32  C   UNL     1       2.694  -8.777  -7.753  0.00  0.00    -0.096 C 
ATOM     33  H   UNL     1       1.430  -7.443  -8.637  0.00  0.00    -0.082 HD
ENDBRANCH  24  26
ENDBRANCH  21  24
ENDBRANCH   4  21
TORSDOF 7
