REMARK  Name = ZINC67332428
REMARK  7 active torsions:
REMARK  status: ('A' for Active; 'I' for Inactive)
REMARK    1  A    between atoms: C_2  and  C_10
REMARK    2  A    between atoms: C_5  and  S_6
REMARK    3  A    between atoms: S_6  and  N_9
REMARK    4  A    between atoms: N_12  and  C_13
REMARK    5  A    between atoms: C_13  and  C_14
REMARK    6  A    between atoms: N_19  and  C_20
REMARK    7  A    between atoms: C_20  and  C_21
REMARK                            x       y       z     vdW  Elec       q    Type
REMARK                         _______ _______ _______ _____ _____    ______ ____
ROOT
ATOM      1  C   UNL     1       1.494   3.015   0.148  0.00  0.00    +0.245 C 
ATOM      2  O   UNL     1       0.439   3.619   0.159  0.00  0.00    -0.270 OA
ATOM      3  N   UNL     1       2.658   3.693   0.090  0.00  0.00    -0.313 N 
ATOM      4  H   UNL     1       3.500   3.211   0.081  0.00  0.00    +0.149 HD
ENDROOT
BRANCH   1   6
ATOM      5  C   UNL     1       0.276   0.785   0.260  0.00  0.00    +0.049 A 
ATOM      6  C   UNL     1       1.501   1.544   0.197  0.00  0.00    +0.046 A 
ATOM      7  C   UNL     1       2.677   0.828   0.185  0.00  0.00    +0.060 A 
ATOM      8  S   UNL     1       2.184  -0.774   0.253  0.00  0.00    -0.076 S 
ATOM      9  C   UNL     1       0.418  -0.555   0.300  0.00  0.00    +0.143 A 
BRANCH   9  10
ATOM     10  S   UNL     1      -0.837  -1.789   0.379  0.00  0.00    +0.062 S 
ATOM     11  O   UNL     1      -0.237  -2.943   0.951  0.00  0.00    -0.153 OA
ATOM     12  O   UNL     1      -1.983  -1.166   0.945  0.00  0.00    -0.153 OA
BRANCH  10  13
ATOM     13  N   UNL     1      -1.235  -2.184  -1.179  0.00  0.00    -0.203 NA
ATOM     14  H   UNL     1      -1.545  -3.079  -1.388  0.00  0.00    +0.144 HD
ATOM     15  H   UNL     1      -1.157  -1.521  -1.882  0.00  0.00    +0.144 HD
ENDBRANCH  10  13
ENDBRANCH   9  10
ENDBRANCH   1   6
BRANCH   3  16
ATOM     16  C   UNL     1       2.651   5.157   0.041  0.00  0.00    +0.089 C 
BRANCH  16  17
ATOM     17  C   UNL     1       4.091   5.672  -0.020  0.00  0.00    -0.051 C 
ATOM     18  C   UNL     1       4.104   7.210   0.098  0.00  0.00    -0.016 C 
ATOM     19  C   UNL     1       4.398   7.443   1.604  0.00  0.00    -0.020 C 
ATOM     20  C   UNL     1       5.368   6.277   1.917  0.00  0.00    -0.078 C 
ATOM     21  N   UNL     1       4.863   5.136   1.116  0.00  0.00    +0.383 N 
ATOM     22  H   UNL     1       4.268   4.556   1.688  0.00  0.00    -0.081 HD
BRANCH  21  23
ATOM     23  C   UNL     1       5.992   4.341   0.616  0.00  0.00    -0.075 C 
BRANCH  23  24
ATOM     24  C   UNL     1       6.708   3.675   1.792  0.00  0.00    -0.028 C 
ATOM     25  C   UNL     1       7.965   2.962   1.287  0.00  0.00    +0.002 C 
ATOM     26  C   UNL     1       8.680   2.296   2.464  0.00  0.00    +0.000 C 
ATOM     27  C   UNL     1       7.745   1.278   3.120  0.00  0.00    +0.000 C 
ATOM     28  C   UNL     1       6.489   1.991   3.625  0.00  0.00    +0.000 C 
ATOM     29  C   UNL     1       5.773   2.657   2.448  0.00  0.00    +0.002 C 
ENDBRANCH  23  24
ENDBRANCH  21  23
ENDBRANCH  16  17
ENDBRANCH   3  16
TORSDOF 7
