REMARK  Name = ZINC40723213
REMARK  9 active torsions:
REMARK  status: ('A' for Active; 'I' for Inactive)
REMARK    1  A    between atoms: C_1  and  C_2
REMARK    2  A    between atoms: C_2  and  N_3
REMARK    3  A    between atoms: N_3  and  C_4
REMARK    4  A    between atoms: C_4  and  C_5
REMARK    5  A    between atoms: C_7  and  N_26
REMARK    6  A    between atoms: C_8  and  N_12
REMARK    7  A    between atoms: N_12  and  N_13
REMARK    8  A    between atoms: N_13  and  C_14
REMARK    9  A    between atoms: N_13  and  C_20
REMARK                            x       y       z     vdW  Elec       q    Type
REMARK                         _______ _______ _______ _____ _____    ______ ____
ROOT
ATOM      1  N   UNL     1       1.708  -0.276  -1.605  0.00  0.00    -0.314 N 
ATOM      2  C   UNL     1       0.807  -0.488  -2.641  0.00  0.00    +0.147 A 
ATOM      3  C   UNL     1       1.175  -1.243  -3.757  0.00  0.00    +0.105 A 
ATOM      4  C   UNL     1       0.232  -1.425  -4.769  0.00  0.00    +0.139 A 
ATOM      5  N   UNL     1      -0.974  -0.877  -4.634  0.00  0.00    -0.332 N 
ATOM      6  C   UNL     1      -1.281  -0.172  -3.564  0.00  0.00    +0.200 A 
ATOM      7  N   UNL     1      -0.422   0.020  -2.583  0.00  0.00    -0.221 NA
ATOM      8  H   UNL     1      -1.635  -0.999  -5.333  0.00  0.00    +0.168 HD
ENDROOT
BRANCH   3   9
ATOM      9  N   UNL     1       2.459  -1.802  -3.857  0.00  0.00    -0.353 N 
ATOM     10  H   UNL     1       3.075  -1.740  -3.111  0.00  0.00    +0.143 HD
ATOM     11  H   UNL     1       2.730  -2.250  -4.674  0.00  0.00    +0.143 HD
ENDBRANCH   3   9
BRANCH   1  13
ATOM     12  C   UNL     1       3.808   0.755  -2.317  0.00  0.00    +0.024 C 
ATOM     13  C   UNL     1       2.495   0.959  -1.560  0.00  0.00    +0.103 C 
ENDBRANCH   1  13
BRANCH   1  14
ATOM     14  C   UNL     1       1.871  -1.286  -0.557  0.00  0.00    +0.103 C 
ATOM     15  C   UNL     1       0.973  -0.938   0.632  0.00  0.00    +0.024 C 
ENDBRANCH   1  14
BRANCH   4  16
ATOM     16  N   UNL     1       0.547  -2.167  -5.901  0.00  0.00    -0.243 N 
ATOM     17  H   UNL     1       1.428  -2.563  -5.992  0.00  0.00    +0.172 HD
BRANCH  16  18
ATOM     18  N   UNL     1      -0.408  -2.344  -6.911  0.00  0.00    -0.221 N 
BRANCH  18  19
ATOM     19  C   UNL     1      -0.298  -1.633  -8.108  0.00  0.00    +0.053 A 
ATOM     20  C   UNL     1      -0.070  -0.262  -8.086  0.00  0.00    +0.025 A 
ATOM     21  C   UNL     1       0.038   0.438  -9.271  0.00  0.00    +0.002 A 
ATOM     22  C   UNL     1      -0.081  -0.224 -10.480  0.00  0.00    +0.000 A 
ATOM     23  C   UNL     1      -0.309  -1.587 -10.506  0.00  0.00    +0.002 A 
ATOM     24  C   UNL     1      -0.412  -2.295  -9.325  0.00  0.00    +0.025 A 
ENDBRANCH  18  19
BRANCH  18  25
ATOM     25  C   UNL     1      -1.470  -3.231  -6.721  0.00  0.00    +0.053 A 
ATOM     26  C   UNL     1      -1.314  -4.338  -5.895  0.00  0.00    +0.025 A 
ATOM     27  C   UNL     1      -2.366  -5.213  -5.709  0.00  0.00    +0.002 A 
ATOM     28  C   UNL     1      -3.574  -4.989  -6.343  0.00  0.00    +0.000 A 
ATOM     29  C   UNL     1      -3.733  -3.889  -7.166  0.00  0.00    +0.002 A 
ATOM     30  C   UNL     1      -2.688  -3.006  -7.352  0.00  0.00    +0.025 A 
ENDBRANCH  18  25
ENDBRANCH  16  18
ENDBRANCH   4  16
TORSDOF 7
