REMARK  Name = ZINC04177575
REMARK  10 active torsions:
REMARK  status: ('A' for Active; 'I' for Inactive)
REMARK    1  A    between atoms: C_1  and  C_2
REMARK    2  A    between atoms: C_2  and  C_3
REMARK    3  A    between atoms: C_3  and  C_4
REMARK    4  A    between atoms: C_4  and  C_5
REMARK    5  A    between atoms: C_5  and  C_6
REMARK    6  A    between atoms: C_6  and  C_7
REMARK    7  A    between atoms: C_11  and  C_31
REMARK    8  A    between atoms: C_16  and  O_17
REMARK    9  A    between atoms: N_18  and  C_19
REMARK   10  A    between atoms: C_20  and  C_28
REMARK                            x       y       z     vdW  Elec       q    Type
REMARK                         _______ _______ _______ _____ _____    ______ ____
ROOT
ATOM      1  C   UNL     1       2.155  -4.648   3.682  0.00  0.00    -0.005 A 
ATOM      2  C   UNL     1       1.478  -5.083   4.783  0.00  0.00    +0.018 A 
ATOM      3  C   UNL     1       2.186  -5.508   5.917  0.00  0.00    +0.019 A 
ATOM      4  C   UNL     1       1.494  -5.928   7.080  0.00  0.00    +0.030 A 
ATOM      5  C   UNL     1       2.231  -6.147   8.238  0.00  0.00    +0.097 A 
ATOM      6  C   UNL     1       3.681  -5.893   8.176  0.00  0.00    +0.212 A 
ATOM      7  O   UNL     1       4.287  -5.988   6.965  0.00  0.00    -0.438 OA
ATOM      8  C   UNL     1       3.595  -5.522   5.896  0.00  0.00    +0.141 A 
ATOM      9  C   UNL     1       4.267  -5.071   4.772  0.00  0.00    +0.092 A 
ATOM     10  C   UNL     1       3.549  -4.638   3.667  0.00  0.00    +0.124 A 
ATOM     11  N   UNL     1       4.368  -5.584   9.261  0.00  0.00    -0.319 N 
ATOM     12  H   UNL     1       3.933  -5.590  10.128  0.00  0.00    +0.169 HD
ENDROOT
BRANCH  11  13
ATOM     13  C   UNL     1       5.672  -5.261   9.163  0.00  0.00    +0.093 A 
ATOM     14  C   UNL     1       6.570  -4.912  10.180  0.00  0.00    +0.071 A 
ATOM     15  C   UNL     1       7.937  -4.606   9.794  0.00  0.00    -0.023 A 
ATOM     16  C   UNL     1       8.220  -4.688   8.474  0.00  0.00    -0.004 A 
ATOM     17  S   UNL     1       6.699  -5.176   7.707  0.00  0.00    -0.075 S 
ATOM     18  C   UNL     1       9.538  -4.425   7.812  0.00  0.00    +0.043 C 
ATOM     19  C   UNL     1      10.442  -3.686   8.808  0.00  0.00    +0.005 C 
ATOM     20  C   UNL     1      10.388  -4.413  10.155  0.00  0.00    +0.005 C 
ATOM     21  C   UNL     1       9.016  -4.212  10.798  0.00  0.00    +0.037 C 
BRANCH  14  22
ATOM     22  C   UNL     1       6.147  -4.856  11.579  0.00  0.00    +0.244 C 
ATOM     23  O   UNL     1       6.232  -5.848  12.280  0.00  0.00    -0.270 OA
ATOM     24  N   UNL     1       5.664  -3.707  12.092  0.00  0.00    -0.325 N 
ATOM     25  H   UNL     1       5.597  -2.917  11.533  0.00  0.00    +0.145 HD
ATOM     26  H   UNL     1       5.383  -3.670  13.019  0.00  0.00    +0.145 HD
ENDBRANCH  14  22
ENDBRANCH  11  13
BRANCH   5  27
ATOM     27  C   UNL     1       1.588  -6.615   9.477  0.00  0.00    +0.247 C 
ATOM     28  O   UNL     1       2.268  -6.900  10.444  0.00  0.00    -0.270 OA
ATOM     29  N   UNL     1       0.246  -6.727   9.540  0.00  0.00    -0.325 N 
ATOM     30  H   UNL     1      -0.291  -6.570   8.747  0.00  0.00    +0.145 HD
ATOM     31  H   UNL     1      -0.182  -6.964  10.377  0.00  0.00    +0.145 HD
ENDBRANCH   5  27
BRANCH  10  32
ATOM     32  O   UNL     1       4.208  -4.197   2.567  0.00  0.00    -0.506 OA
ATOM     33  H   UNL     1       4.396  -3.248   2.575  0.00  0.00    +0.292 HD
ENDBRANCH  10  32
BRANCH   1  34
ATOM     34  C   UNL     1       1.391  -4.182   2.470  0.00  0.00    +0.039 C 
BRANCH  34  35
ATOM     35  C   UNL     1       1.344  -2.652   2.454  0.00  0.00    +0.005 C 
BRANCH  35  36
ATOM     36  C   UNL     1       0.568  -2.179   1.223  0.00  0.00    +0.000 C 
BRANCH  36  37
ATOM     37  C   UNL     1       0.521  -0.649   1.207  0.00  0.00    -0.000 C 
BRANCH  37  39
ATOM     38  C   UNL     1      -0.301   1.353  -0.039  0.00  0.00    +0.004 C 
ATOM     39  C   UNL     1      -0.254  -0.176  -0.024  0.00  0.00    -0.003 C 
ENDBRANCH  37  39
ENDBRANCH  36  37
ENDBRANCH  35  36
ENDBRANCH  34  35
ENDBRANCH   1  34
TORSDOF 9
