REMARK  Name = ZINC05485589
REMARK  7 active torsions:
REMARK  status: ('A' for Active; 'I' for Inactive)
REMARK    1  A    between atoms: C_1  and  C_2
REMARK    2  A    between atoms: C_5  and  C_18
REMARK    3  A    between atoms: N_20  and  C_21
REMARK    4  A    between atoms: C_23  and  O_29
REMARK    5  A    between atoms: C_26  and  O_27
REMARK    6  A    between atoms: O_27  and  C_28
REMARK    7  A    between atoms: O_29  and  C_30
REMARK                            x       y       z     vdW  Elec       q    Type
REMARK                         _______ _______ _______ _____ _____    ______ ____
ROOT
ATOM      1  C   UNL     1       1.414  -5.241  -1.581  0.00  0.00    -0.014 C 
ATOM      2  C   UNL     1       0.625  -4.215  -0.765  0.00  0.00    -0.072 C 
ATOM      3  C   UNL     1       1.000  -4.331   0.728  0.00  0.00    -0.004 C 
ATOM      4  C   UNL     1       1.018  -2.853   1.203  0.00  0.00    +0.076 C 
ATOM      5  C   UNL     1       1.547  -2.133  -0.051  0.00  0.00    +0.049 C 
ATOM      6  C   UNL     1       1.159  -0.681  -0.048  0.00  0.00    -0.026 A 
ATOM      7  C   UNL     1      -0.051  -0.023  -0.024  0.00  0.00    +0.004 A 
ATOM      8  C   UNL     1      -0.088   1.360  -0.031  0.00  0.00    +0.002 A 
ATOM      9  C   UNL     1       1.093   2.080  -0.064  0.00  0.00    +0.022 A 
ATOM     10  C   UNL     1       2.307   1.425  -0.088  0.00  0.00    +0.062 A 
ATOM     11  C   UNL     1       2.353   0.032  -0.080  0.00  0.00    +0.054 A 
ATOM     12  N   UNL     1       3.440  -0.846  -0.099  0.00  0.00    -0.285 N 
ATOM     13  C   UNL     1       3.051  -2.135  -0.083  0.00  0.00    +0.211 C 
ATOM     14  O   UNL     1       3.773  -3.110  -0.092  0.00  0.00    -0.277 OA
ATOM     15 CL   UNL     1       3.783   2.340  -0.129  0.00  0.00    -0.082 Cl
ATOM     16  H   UNL     1       4.367  -0.560  -0.120  0.00  0.00    +0.155 HD
ATOM     17  N   UNL     1       0.978  -2.852  -1.192  0.00  0.00    +0.393 N 
ATOM     18  H   UNL     1       0.137  -2.365  -1.522  0.00  0.00    -0.083 HD
ATOM     19  H   UNL     1       1.668  -2.895  -1.951  0.00  0.00    -0.083 HD
ENDROOT
BRANCH   4  20
ATOM     20  C   UNL     1      -0.370  -2.380   1.552  0.00  0.00    +0.220 C 
ATOM     21  O   UNL     1      -1.334  -2.882   1.016  0.00  0.00    -0.275 OA
ATOM     22  N   UNL     1      -0.539  -1.399   2.461  0.00  0.00    -0.282 N 
ATOM     23  H   UNL     1       0.234  -0.956   2.846  0.00  0.00    +0.155 HD
BRANCH  22  24
ATOM     24  C   UNL     1      -1.830  -1.019   2.850  0.00  0.00    +0.079 A 
ATOM     25  C   UNL     1      -2.902  -1.223   1.993  0.00  0.00    +0.072 A 
ATOM     26  C   UNL     1      -4.179  -0.852   2.383  0.00  0.00    +0.122 A 
ATOM     27  C   UNL     1      -4.384  -0.266   3.624  0.00  0.00    +0.049 A 
ATOM     28  C   UNL     1      -3.317  -0.057   4.477  0.00  0.00    +0.051 A 
ATOM     29  C   UNL     1      -2.039  -0.431   4.095  0.00  0.00    +0.141 A 
BRANCH  29  30
ATOM     30  O   UNL     1      -0.989  -0.225   4.935  0.00  0.00    -0.493 OA
ATOM     31  C   UNL     1      -1.278   0.383   6.196  0.00  0.00    +0.277 C 
ENDBRANCH  29  30
BRANCH  26  32
ATOM     32  O   UNL     1      -5.231  -1.056   1.546  0.00  0.00    -0.495 OA
ATOM     33  C   UNL     1      -6.519  -0.644   2.010  0.00  0.00    +0.277 C 
ENDBRANCH  26  32
ENDBRANCH  22  24
ENDBRANCH   4  20
TORSDOF 4
