REMARK  Name = ZINC50360575
REMARK  5 active torsions:
REMARK  status: ('A' for Active; 'I' for Inactive)
REMARK    1  A    between atoms: C_2  and  C_8
REMARK    2  A    between atoms: C_8  and  N_9
REMARK    3  A    between atoms: N_9  and  C_10
REMARK    4  A    between atoms: N_13  and  C_16
REMARK    5  A    between atoms: C_16  and  C_17
REMARK                            x       y       z     vdW  Elec       q    Type
REMARK                         _______ _______ _______ _____ _____    ______ ____
ROOT
ATOM      1  C   UNL     1       2.357   5.104   1.391  0.00  0.00    -0.075 C 
ATOM      2  C   UNL     1       1.264   6.002   0.805  0.00  0.00    -0.034 C 
ATOM      3  C   UNL     1       1.714   7.463   0.884  0.00  0.00    -0.080 C 
ATOM      4  N   UNL     1       1.952   7.830   2.285  0.00  0.00    +0.385 N 
ATOM      5  C   UNL     1       3.049   7.021   2.832  0.00  0.00    -0.080 C 
ATOM      6  C   UNL     1       2.649   5.544   2.828  0.00  0.00    -0.034 C 
ATOM      7  H   UNL     1       1.114   7.665   2.822  0.00  0.00    -0.081 HD
ENDROOT
BRANCH   1   8
ATOM      8  N   UNL     1       1.899   3.708   1.388  0.00  0.00    +0.385 N 
ATOM      9  H   UNL     1       1.016   3.643   1.872  0.00  0.00    -0.085 HD
ATOM     10  H   UNL     1       2.582   3.130   1.855  0.00  0.00    -0.085 HD
BRANCH   8  11
ATOM     11  C   UNL     1       1.734   3.250   0.003  0.00  0.00    -0.006 C 
BRANCH  11  13
ATOM     12  C   UNL     1      -0.017   1.410   0.010  0.00  0.00    +0.059 A 
ATOM     13  C   UNL     1       1.265   1.818  -0.000  0.00  0.00    +0.091 A 
ATOM     14  O   UNL     1       2.056   0.732  -0.014  0.00  0.00    -0.454 OA
ATOM     15  C   UNL     1       1.296  -0.376  -0.012  0.00  0.00    +0.184 A 
ATOM     16  C   UNL     1       0.002  -0.004   0.002  0.00  0.00    +0.070 A 
ATOM     17 BR   UNL     1      -1.501  -1.152   0.011  0.00  0.00    -0.046 Br
ATOM     18 BR   UNL     1       1.936  -2.156  -0.029  0.00  0.00    -0.007 Br
ENDBRANCH  11  13
ENDBRANCH   8  11
ENDBRANCH   1   8
BRANCH   4  19
ATOM     19  C   UNL     1       2.309   9.253   2.363  0.00  0.00    +0.018 C 
BRANCH  19  20
ATOM     20  C   UNL     1       2.434   9.661   3.808  0.00  0.00    +0.194 C 
ATOM     21  O   UNL     1       2.244   8.847   4.687  0.00  0.00    -0.278 OA
ATOM     22  N   UNL     1       2.756  10.931   4.124  0.00  0.00    -0.331 N 
ATOM     23  H   UNL     1       2.908  11.582   3.421  0.00  0.00    +0.145 HD
ATOM     24  H   UNL     1       2.836  11.194   5.054  0.00  0.00    +0.145 HD
ENDBRANCH  19  20
ENDBRANCH   4  19
TORSDOF 5
