REMARK  Name = ZINC38673045
REMARK  12 active torsions:
REMARK  status: ('A' for Active; 'I' for Inactive)
REMARK    1  A    between atoms: C_1  and  C_2
REMARK    2  A    between atoms: C_2  and  C_3
REMARK    3  A    between atoms: C_2  and  S_4
REMARK    4  A    between atoms: S_4  and  C_7
REMARK    5  A    between atoms: C_10  and  C_13
REMARK    6  A    between atoms: C_13  and  C_14
REMARK    7  A    between atoms: N_16  and  C_17
REMARK    8  A    between atoms: C_17  and  C_18
REMARK    9  A    between atoms: C_18  and  C_20
REMARK   10  A    between atoms: C_18  and  N_31
REMARK   11  A    between atoms: N_29  and  C_30
REMARK   12  A    between atoms: N_34  and  C_37
REMARK                            x       y       z     vdW  Elec       q    Type
REMARK                         _______ _______ _______ _____ _____    ______ ____
ROOT
ATOM      1  C   UNL     1      -3.155   4.295  -8.963  0.00  0.00    +0.104 C 
ENDROOT
BRANCH   1   2
ATOM      2  C   UNL     1      -2.242   5.477  -8.760  0.00  0.00    -0.028 A 
ATOM      3  C   UNL     1      -2.433   6.317  -7.678  0.00  0.00    +0.007 A 
ATOM      4  C   UNL     1      -1.598   7.401  -7.492  0.00  0.00    +0.024 A 
ATOM      5  C   UNL     1      -0.566   7.646  -8.392  0.00  0.00    +0.033 A 
ATOM      6  C   UNL     1      -0.374   6.802  -9.474  0.00  0.00    -0.026 A 
ATOM      7  C   UNL     1      -1.214   5.715  -9.651  0.00  0.00    +0.010 A 
ATOM      8  C   UNL     1       0.740   7.030 -10.462  0.00  0.00    +0.038 C 
ATOM      9  C   UNL     1       1.216   8.481 -10.405  0.00  0.00    +0.024 C 
ATOM     10  C   UNL     1       1.521   8.846  -8.946  0.00  0.00    +0.105 C 
ATOM     11  N   UNL     1       0.266   8.752  -8.188  0.00  0.00    -0.333 N 
ATOM     12  C   UNL     1      -0.108   9.800  -7.235  0.00  0.00    +0.129 C 
ENDBRANCH   1   2
BRANCH   1  13
ATOM     13  N   UNL     1      -4.463   4.763  -9.440  0.00  0.00    -0.297 NA
ATOM     14  C   UNL     1      -4.378   5.245 -10.826  0.00  0.00    +0.066 C 
ATOM     15  C   UNL     1      -5.770   5.666 -11.303  0.00  0.00    -0.064 C 
ATOM     16  N   UNL     1      -6.286   6.727 -10.428  0.00  0.00    +0.379 N 
ATOM     17  C   UNL     1      -6.389   6.224  -9.052  0.00  0.00    -0.064 C 
ATOM     18  C   UNL     1      -5.003   5.807  -8.557  0.00  0.00    +0.066 C 
ATOM     19  C   UNL     1      -7.615   7.144 -10.898  0.00  0.00    -0.096 C 
ATOM     20  H   UNL     1      -5.659   7.517 -10.452  0.00  0.00    -0.082 HD
ENDBRANCH   1  13
BRANCH   1  21
ATOM     21  C   UNL     1      -3.331   3.552  -7.638  0.00  0.00    +0.127 C 
BRANCH  21  24
ATOM     22  C   UNL     1      -4.527   1.601  -6.801  0.00  0.00    +0.217 C 
ATOM     23  O   UNL     1      -3.954   1.741  -5.741  0.00  0.00    -0.275 OA
ATOM     24  N   UNL     1      -4.285   2.455  -7.816  0.00  0.00    -0.313 N 
ATOM     25  H   UNL     1      -4.743   2.343  -8.663  0.00  0.00    +0.149 HD
BRANCH  22  26
ATOM     26  C   UNL     1      -5.508   0.472  -6.984  0.00  0.00    +0.130 C 
BRANCH  26  30
ATOM     27  C   UNL     1      -5.757  -1.800  -3.376  0.00  0.00    +0.088 A 
ATOM     28  C   UNL     1      -6.602  -0.724  -3.575  0.00  0.00    +0.027 A 
ATOM     29  C   UNL     1      -6.521   0.011  -4.742  0.00  0.00    +0.006 A 
ATOM     30  C   UNL     1      -5.596  -0.329  -5.711  0.00  0.00    -0.039 A 
ATOM     31  C   UNL     1      -4.751  -1.405  -5.512  0.00  0.00    +0.006 A 
ATOM     32  C   UNL     1      -4.828  -2.138  -4.343  0.00  0.00    +0.027 A 
BRANCH  27  33
ATOM     33  S   UNL     1      -5.860  -2.738  -1.888  0.00  0.00    -0.001 S 
ATOM     34  O   UNL     1      -5.367  -4.025  -2.235  0.00  0.00    -0.169 OA
ATOM     35  O   UNL     1      -7.200  -2.571  -1.446  0.00  0.00    -0.169 OA
BRANCH  33  37
ATOM     36  C   UNL     1      -5.159  -0.470  -0.529  0.00  0.00    +0.032 C 
ATOM     37  C   UNL     1      -4.717  -1.920  -0.741  0.00  0.00    +0.130 C 
ATOM     38  C   UNL     1      -4.724  -2.657   0.599  0.00  0.00    +0.032 C 
ENDBRANCH  33  37
ENDBRANCH  27  33
ENDBRANCH  26  30
ENDBRANCH  22  26
ENDBRANCH  21  24
ENDBRANCH   1  21
TORSDOF 8
