REMARK  Name = ZINC67308471
REMARK  10 active torsions:
REMARK  status: ('A' for Active; 'I' for Inactive)
REMARK    1  A    between atoms: C_1  and  C_2
REMARK    2  A    between atoms: C_2  and  C_3
REMARK    3  A    between atoms: C_3  and  N_4
REMARK    4  A    between atoms: N_4  and  C_5
REMARK    5  A    between atoms: C_5  and  C_6
REMARK    6  A    between atoms: C_6  and  O_7
REMARK    7  A    between atoms: N_10  and  C_11
REMARK    8  A    between atoms: C_14  and  N_17
REMARK    9  A    between atoms: C_18  and  C_20
REMARK   10  A    between atoms: C_20  and  N_21
REMARK                            x       y       z     vdW  Elec       q    Type
REMARK                         _______ _______ _______ _____ _____    ______ ____
ROOT
ATOM      1  C   UNL     1       2.793  -4.695  -0.054  0.00  0.00    +0.035 A 
ATOM      2  C   UNL     1       3.806  -4.037   0.632  0.00  0.00    +0.025 A 
ATOM      3  C   UNL     1       4.782  -4.762   1.285  0.00  0.00    +0.025 A 
ATOM      4  C   UNL     1       4.751  -6.150   1.256  0.00  0.00    +0.033 A 
ATOM      5  C   UNL     1       3.739  -6.808   0.570  0.00  0.00    +0.025 A 
ATOM      6  C   UNL     1       2.760  -6.083  -0.078  0.00  0.00    +0.025 A 
ENDROOT
BRANCH   1  10
ATOM      7  N   UNL     1       0.235  -3.776  -2.437  0.00  0.00    -0.283 N 
ATOM      8  C   UNL     1       1.259  -4.432  -1.855  0.00  0.00    +0.307 C 
ATOM      9  O   UNL     1       1.692  -5.452  -2.357  0.00  0.00    -0.252 OA
ATOM     10  N   UNL     1       1.803  -3.958  -0.717  0.00  0.00    -0.269 N 
ATOM     11  H   UNL     1       1.509  -3.107  -0.357  0.00  0.00    +0.156 HD
BRANCH   7  12
ATOM     12  C   UNL     1      -0.356  -4.292  -3.674  0.00  0.00    +0.109 C 
BRANCH  12  14
ATOM     13  C   UNL     1      -0.243  -4.232  -6.170  0.00  0.00    +0.005 C 
ATOM     14  C   UNL     1       0.375  -3.693  -4.877  0.00  0.00    +0.016 C 
ENDBRANCH  12  14
ENDBRANCH   7  12
BRANCH   7  15
ATOM     15  C   UNL     1      -0.286  -2.548  -1.832  0.00  0.00    +0.137 C 
BRANCH  15  16
ATOM     16  C   UNL     1      -1.405  -2.899  -0.849  0.00  0.00    +0.175 C 
BRANCH  16  17
ATOM     17  O   UNL     1      -0.865  -3.655   0.236  0.00  0.00    -0.393 OA
ATOM     18  H   UNL     1      -1.520  -3.913   0.900  0.00  0.00    +0.209 HD
ENDBRANCH  16  17
ENDBRANCH  15  16
ENDBRANCH   7  15
ENDBRANCH   1  10
BRANCH   4  19
ATOM     19  N   UNL     1       5.742  -6.887   1.918  0.00  0.00    -0.287 N 
ATOM     20  C   UNL     1       6.251  -6.438   3.082  0.00  0.00    +0.201 C 
ATOM     21  O   UNL     1       5.913  -5.356   3.514  0.00  0.00    -0.278 OA
ATOM     22  H   UNL     1       6.062  -7.720   1.538  0.00  0.00    +0.155 HD
BRANCH  20  23
ATOM     23  C   UNL     1       7.240  -7.279   3.847  0.00  0.00    +0.019 C 
BRANCH  23  24
ATOM     24  N   UNL     1       7.640  -6.573   5.071  0.00  0.00    +0.385 N 
ATOM     25  C   UNL     1       6.474  -6.425   5.953  0.00  0.00    -0.078 C 
ATOM     26  C   UNL     1       6.921  -6.047   7.364  0.00  0.00    -0.019 C 
ATOM     27  C   UNL     1       7.297  -4.561   7.399  0.00  0.00    -0.002 C 
ATOM     28  C   UNL     1       8.651  -4.383   6.712  0.00  0.00    -0.000 C 
ATOM     29  C   UNL     1       9.597  -5.493   7.175  0.00  0.00    -0.002 C 
ATOM     30  C   UNL     1       9.900  -6.428   6.006  0.00  0.00    -0.019 C 
ATOM     31  C   UNL     1       8.692  -7.338   5.754  0.00  0.00    -0.078 C 
ATOM     32  H   UNL     1       7.994  -5.659   4.830  0.00  0.00    -0.081 HD
ENDBRANCH  23  24
ENDBRANCH  20  23
ENDBRANCH   4  19
TORSDOF 9
