REMARK  Name = ZINC13093230
REMARK  8 active torsions:
REMARK  status: ('A' for Active; 'I' for Inactive)
REMARK    1  A    between atoms: C_1  and  C_2
REMARK    2  A    between atoms: C_2  and  C_4
REMARK    3  A    between atoms: C_2  and  S_15
REMARK    4  A    between atoms: N_6  and  C_7
REMARK    5  A    between atoms: C_10  and  C_13
REMARK    6  A    between atoms: S_15  and  C_16
REMARK    7  A    between atoms: C_20  and  C_34
REMARK    8  A    between atoms: N_26  and  C_27
REMARK                            x       y       z     vdW  Elec       q    Type
REMARK                         _______ _______ _______ _____ _____    ______ ____
ROOT
ATOM      1  C   UNL     1       1.654  -2.731   0.220  0.00  0.00    +0.177 A 
ATOM      2  N   UNL     1       0.475  -3.146  -0.172  0.00  0.00    -0.223 NA
ATOM      3  C   UNL     1       0.011  -4.375   0.155  0.00  0.00    +0.080 A 
ATOM      4  C   UNL     1      -1.248  -4.814  -0.265  0.00  0.00    +0.043 A 
ATOM      5  C   UNL     1      -1.683  -6.083   0.095  0.00  0.00    +0.065 A 
ATOM      6  C   UNL     1      -0.870  -6.919   0.872  0.00  0.00    +0.016 A 
ATOM      7  C   UNL     1       0.361  -6.501   1.288  0.00  0.00    +0.016 A 
ATOM      8  C   UNL     1       0.818  -5.230   0.938  0.00  0.00    +0.065 A 
ATOM      9  C   UNL     1       2.138  -4.740   1.365  0.00  0.00    +0.267 A 
ATOM     10  O   UNL     1       2.879  -5.429   2.041  0.00  0.00    -0.267 OA
ATOM     11  N   UNL     1       2.500  -3.496   0.974  0.00  0.00    -0.255 N 
ENDROOT
BRANCH  11  12
ATOM     12  C   UNL     1       3.750  -2.986   1.351  0.00  0.00    +0.052 A 
ATOM     13  C   UNL     1       3.860  -2.172   2.470  0.00  0.00    +0.029 A 
ATOM     14  C   UNL     1       5.093  -1.674   2.843  0.00  0.00    +0.040 A 
ATOM     15  C   UNL     1       6.218  -1.977   2.094  0.00  0.00    +0.124 A 
ATOM     16  C   UNL     1       6.109  -2.784   0.974  0.00  0.00    +0.040 A 
ATOM     17  C   UNL     1       4.879  -3.289   0.601  0.00  0.00    +0.029 A 
ATOM     18  F   UNL     1       7.423  -1.485   2.456  0.00  0.00    -0.205 F 
ENDBRANCH  11  12
BRANCH   5  19
ATOM     19  C   UNL     1      -3.014  -6.555  -0.344  0.00  0.00    +0.387 C 
ATOM     20  O   UNL     1      -3.722  -5.834  -1.018  0.00  0.00    -0.241 OA
ATOM     21  O   UNL     1      -3.441  -7.785   0.002  0.00  0.00    -0.241 OA
ENDBRANCH   5  19
BRANCH   1  22
ATOM     22  S   UNL     1       2.178  -1.116  -0.252  0.00  0.00    -0.075 S 
BRANCH  22  24
ATOM     23  C   UNL     1       0.590  -1.460  -2.449  0.00  0.00    +0.029 C 
ATOM     24  C   UNL     1       0.733  -0.583  -1.203  0.00  0.00    +0.137 C 
BRANCH  24  25
ATOM     25  C   UNL     1       0.907   0.855  -1.618  0.00  0.00    +0.230 C 
ATOM     26  O   UNL     1       2.020   1.325  -1.722  0.00  0.00    -0.274 OA
ATOM     27  N   UNL     1      -0.174   1.617  -1.879  0.00  0.00    -0.285 N 
ATOM     28  H   UNL     1      -1.059   1.220  -1.876  0.00  0.00    +0.155 HD
BRANCH  27  29
ATOM     29  C   UNL     1      -0.019   2.976  -2.154  0.00  0.00    +0.033 A 
ATOM     30  C   UNL     1       1.047   3.679  -1.602  0.00  0.00    +0.024 A 
ATOM     31  C   UNL     1       1.205   5.019  -1.875  0.00  0.00    +0.020 A 
ATOM     32  C   UNL     1       0.287   5.676  -2.700  0.00  0.00    +0.052 A 
ATOM     33  C   UNL     1      -0.786   4.968  -3.248  0.00  0.00    +0.020 A 
ATOM     34  C   UNL     1      -0.935   3.627  -2.975  0.00  0.00    +0.024 A 
BRANCH  32  35
ATOM     35  C   UNL     1       0.446   7.071  -2.982  0.00  0.00    +0.099 C 
ATOM     36  N   UNL     1       0.571   8.178  -3.206  0.00  0.00    -0.191 NA
ENDBRANCH  32  35
ENDBRANCH  27  29
ENDBRANCH  24  25
ENDBRANCH  22  24
ENDBRANCH   1  22
TORSDOF 7
