REMARK  Name = ZINC32070535
REMARK  6 active torsions:
REMARK  status: ('A' for Active; 'I' for Inactive)
REMARK    1  A    between atoms: C_1  and  C_2
REMARK    2  A    between atoms: C_2  and  C_4
REMARK    3  A    between atoms: C_2  and  N_17
REMARK    4  A    between atoms: C_4  and  N_6
REMARK    5  A    between atoms: C_18  and  C_20
REMARK    6  A    between atoms: N_25  and  C_27
REMARK                            x       y       z     vdW  Elec       q    Type
REMARK                         _______ _______ _______ _____ _____    ______ ____
ROOT
ATOM      1  C   UNL     1       0.466   1.754   0.026  0.00  0.00    +0.038 C 
ATOM      2  C   UNL     1       0.488   0.224   0.012  0.00  0.00    +0.158 C 
ENDROOT
BRANCH   2   3
ATOM      3  N   UNL     1      -0.885  -0.284   0.001  0.00  0.00    -0.304 N 
ATOM      4  C   UNL     1      -1.547  -0.412  -1.167  0.00  0.00    +0.219 C 
ATOM      5  O   UNL     1      -1.004  -0.106  -2.208  0.00  0.00    -0.275 OA
ATOM      6  H   UNL     1      -1.319  -0.528   0.833  0.00  0.00    +0.149 HD
BRANCH   4   7
ATOM      7  C   UNL     1      -2.960  -0.935  -1.179  0.00  0.00    +0.101 C 
ATOM      8  C   UNL     1      -3.914   0.033  -0.442  0.00  0.00    +0.110 C 
ATOM      9  C   UNL     1      -4.460   0.922  -1.538  0.00  0.00    +0.221 C 
ATOM     10  O   UNL     1      -5.020   1.982  -1.358  0.00  0.00    -0.275 OA
ATOM     11  N   UNL     1      -4.233   0.365  -2.740  0.00  0.00    -0.271 N 
ATOM     12  C   UNL     1      -3.542  -0.924  -2.610  0.00  0.00    +0.127 C 
BRANCH  11  13
ATOM     13  C   UNL     1      -4.608   0.940  -3.960  0.00  0.00    +0.036 A 
ATOM     14  C   UNL     1      -5.144   2.221  -3.990  0.00  0.00    +0.023 A 
ATOM     15  C   UNL     1      -5.513   2.786  -5.195  0.00  0.00    +0.002 A 
ATOM     16  C   UNL     1      -5.348   2.077  -6.371  0.00  0.00    +0.000 A 
ATOM     17  C   UNL     1      -4.815   0.801  -6.345  0.00  0.00    +0.002 A 
ATOM     18  C   UNL     1      -4.439   0.234  -5.143  0.00  0.00    +0.023 A 
ENDBRANCH  11  13
ENDBRANCH   4   7
ENDBRANCH   2   3
BRANCH   2  19
ATOM     19  C   UNL     1       1.200  -0.279   1.242  0.00  0.00    +0.259 C 
ATOM     20  O   UNL     1       0.615  -0.993   2.033  0.00  0.00    -0.272 OA
BRANCH  19  21
ATOM     21  N   UNL     1       2.467   0.059   1.462  0.00  0.00    -0.145 NA
ATOM     22  C   UNL     1       3.063  -0.298   2.596  0.00  0.00    +0.198 A 
ATOM     23  N   UNL     1       2.522  -1.099   3.551  0.00  0.00    -0.326 N 
ATOM     24  H   UNL     1       1.641  -1.504   3.521  0.00  0.00    +0.169 HD
ATOM     25  C   UNL     1       3.449  -1.240   4.579  0.00  0.00    +0.065 A 
ATOM     26  C   UNL     1       3.432  -1.931   5.782  0.00  0.00    +0.028 A 
ATOM     27  C   UNL     1       4.529  -1.882   6.619  0.00  0.00    +0.002 A 
ATOM     28  C   UNL     1       5.646  -1.146   6.264  0.00  0.00    +0.002 A 
ATOM     29  C   UNL     1       5.673  -0.454   5.069  0.00  0.00    +0.028 A 
ATOM     30  C   UNL     1       4.576  -0.497   4.221  0.00  0.00    +0.065 A 
ATOM     31  N   UNL     1       4.312   0.075   2.980  0.00  0.00    -0.326 N 
ATOM     32  H   UNL     1       4.915   0.643   2.477  0.00  0.00    +0.169 HD
ENDBRANCH  19  21
ENDBRANCH   2  19
TORSDOF 5
