REMARK  Name = ZINC43526672
REMARK  12 active torsions:
REMARK  status: ('A' for Active; 'I' for Inactive)
REMARK    1  A    between atoms: C_1  and  N_2
REMARK    2  A    between atoms: C_3  and  C_17
REMARK    3  A    between atoms: C_5  and  C_7
REMARK    4  A    between atoms: C_10  and  O_15
REMARK    5  A    between atoms: C_11  and  O_13
REMARK    6  A    between atoms: O_13  and  C_14
REMARK    7  A    between atoms: O_15  and  C_16
REMARK    8  A    between atoms: C_26  and  C_28
REMARK    9  A    between atoms: C_28  and  N_29
REMARK   10  A    between atoms: N_29  and  C_30
REMARK   11  A    between atoms: C_30  and  N_32
REMARK   12  A    between atoms: N_32  and  C_33
REMARK                            x       y       z     vdW  Elec       q    Type
REMARK                         _______ _______ _______ _____ _____    ______ ____
ROOT
ATOM      1  C   UNL     1      -0.327   0.454  -3.106  0.00  0.00    +0.024 C 
ATOM      2  C   UNL     1       1.164   0.181  -3.320  0.00  0.00    -0.068 C 
ATOM      3  N   UNL     1       1.360  -0.600  -4.543  0.00  0.00    +0.383 N 
ATOM      4  C   UNL     1       0.687  -1.897  -4.441  0.00  0.00    -0.078 C 
ATOM      5  C   UNL     1      -0.819  -1.693  -4.264  0.00  0.00    -0.015 C 
ATOM      6  C   UNL     1      -1.119  -0.185  -4.254  0.00  0.00    -0.007 C 
ATOM      7  C   UNL     1      -0.624   0.415  -5.577  0.00  0.00    -0.010 C 
ATOM      8  C   UNL     1       0.878   0.141  -5.711  0.00  0.00    -0.051 C 
ATOM      9  H   UNL     1       2.348  -0.769  -4.658  0.00  0.00    -0.081 HD
ENDROOT
BRANCH   1  12
ATOM     10  C   UNL     1      -2.943   1.085  -1.575  0.00  0.00    +0.172 C 
ATOM     11  N   UNL     1      -1.912   0.141  -1.137  0.00  0.00    -0.271 N 
ATOM     12  C   UNL     1      -0.767  -0.143  -1.794  0.00  0.00    +0.041 A 
ATOM     13  C   UNL     1      -0.086  -1.057  -1.070  0.00  0.00    +0.053 A 
ATOM     14  C   UNL     1      -0.844  -1.347   0.082  0.00  0.00    +0.093 A 
ATOM     15  N   UNL     1      -1.939  -0.619   0.039  0.00  0.00    -0.171 NA
BRANCH  14  16
ATOM     16  C   UNL     1      -0.470  -2.301   1.155  0.00  0.00    +0.006 A 
ATOM     17  C   UNL     1       0.731  -3.002   1.079  0.00  0.00    +0.014 A 
ATOM     18  C   UNL     1       1.079  -3.889   2.078  0.00  0.00    +0.050 A 
ATOM     19  C   UNL     1       0.233  -4.084   3.159  0.00  0.00    +0.162 A 
ATOM     20  C   UNL     1      -0.969  -3.386   3.241  0.00  0.00    +0.162 A 
ATOM     21  C   UNL     1      -1.318  -2.492   2.244  0.00  0.00    +0.059 A 
BRANCH  20  22
ATOM     22  O   UNL     1      -1.798  -3.580   4.302  0.00  0.00    -0.491 OA
ATOM     23  C   UNL     1      -3.014  -2.830   4.320  0.00  0.00    +0.277 C 
ENDBRANCH  20  22
BRANCH  19  24
ATOM     24  O   UNL     1       0.578  -4.960   4.141  0.00  0.00    -0.491 OA
ATOM     25  C   UNL     1       1.825  -5.642   3.994  0.00  0.00    +0.277 C 
ENDBRANCH  19  24
ENDBRANCH  14  16
ENDBRANCH   1  12
BRANCH   8  26
ATOM     26  C   UNL     1       1.134  -0.681  -6.975  0.00  0.00    +0.088 C 
BRANCH  26  27
ATOM     27  N   UNL     1       2.555  -1.032  -7.050  0.00  0.00    -0.328 N 
ATOM     28  H   UNL     1       3.164  -0.740  -6.354  0.00  0.00    +0.148 HD
BRANCH  27  29
ATOM     29  C   UNL     1       3.015  -1.760  -8.087  0.00  0.00    +0.134 C 
ATOM     30  S   UNL     1       1.940  -2.275  -9.316  0.00  0.00    -0.019 S 
BRANCH  29  31
ATOM     31  N   UNL     1       4.322  -2.083  -8.156  0.00  0.00    -0.297 N 
ATOM     32  H   UNL     1       4.916  -1.861  -7.422  0.00  0.00    +0.154 HD
BRANCH  31  33
ATOM     33  C   UNL     1       4.822  -2.739  -9.287  0.00  0.00    +0.033 A 
ATOM     34  C   UNL     1       4.402  -2.357 -10.554  0.00  0.00    +0.025 A 
ATOM     35  C   UNL     1       4.898  -3.005 -11.668  0.00  0.00    +0.022 A 
ATOM     36  C   UNL     1       5.812  -4.034 -11.523  0.00  0.00    +0.041 A 
ATOM     37  C   UNL     1       6.231  -4.416 -10.261  0.00  0.00    +0.022 A 
ATOM     38  C   UNL     1       5.743  -3.768  -9.143  0.00  0.00    +0.025 A 
ATOM     39 CL   UNL     1       6.432  -4.847 -12.925  0.00  0.00    -0.084 Cl
ENDBRANCH  31  33
ENDBRANCH  29  31
ENDBRANCH  27  29
ENDBRANCH  26  27
ENDBRANCH   8  26
TORSDOF 9
