REMARK  Name = ZINC37172226
REMARK  12 active torsions:
REMARK  status: ('A' for Active; 'I' for Inactive)
REMARK    1  A    between atoms: C_1  and  C_2
REMARK    2  A    between atoms: C_2  and  C_3
REMARK    3  A    between atoms: C_3  and  C_5
REMARK    4  A    between atoms: C_3  and  C_6
REMARK    5  A    between atoms: C_6  and  N_7
REMARK    6  A    between atoms: N_7  and  C_8
REMARK    7  A    between atoms: N_7  and  C_9
REMARK    8  A    between atoms: C_9  and  C_10
REMARK    9  A    between atoms: C_10  and  C_11
REMARK   10  A    between atoms: C_11  and  C_12
REMARK   11  A    between atoms: N_14  and  C_15
REMARK   12  A    between atoms: C_18  and  N_22
REMARK                            x       y       z     vdW  Elec       q    Type
REMARK                         _______ _______ _______ _____ _____    ______ ____
ROOT
ATOM      1  C   UNL     1       3.204  -6.493   4.771  0.00  0.00    +0.217 C 
ATOM      2  O   UNL     1       3.662  -5.696   5.563  0.00  0.00    -0.275 OA
ATOM      3  N   UNL     1       3.357  -7.815   4.980  0.00  0.00    -0.284 N 
ATOM      4  H   UNL     1       2.936  -8.453   4.383  0.00  0.00    +0.155 HD
ENDROOT
BRANCH   3   5
ATOM      5  C   UNL     1       4.125  -8.270   6.061  0.00  0.00    +0.052 A 
ATOM      6  C   UNL     1       4.130  -7.561   7.255  0.00  0.00    +0.026 A 
ATOM      7  C   UNL     1       4.887  -8.008   8.320  0.00  0.00    +0.024 A 
ATOM      8  C   UNL     1       5.643  -9.167   8.198  0.00  0.00    +0.026 A 
ATOM      9  C   UNL     1       5.638  -9.876   7.004  0.00  0.00    +0.044 A 
ATOM     10  C   UNL     1       4.877  -9.432   5.940  0.00  0.00    +0.064 A 
ATOM     11 CL   UNL     1       4.865 -10.322   4.449  0.00  0.00    -0.082 Cl
BRANCH   8  12
ATOM     12  N   UNL     1       6.410  -9.619   9.277  0.00  0.00    -0.358 N 
ATOM     13  H   UNL     1       6.414  -9.124  10.110  0.00  0.00    +0.142 HD
ATOM     14  H   UNL     1       6.938 -10.428   9.191  0.00  0.00    +0.142 HD
ENDBRANCH   8  12
ENDBRANCH   3   5
BRANCH   1  15
ATOM     15  C   UNL     1       2.463  -6.003   3.553  0.00  0.00    +0.094 C 
BRANCH  15  16
ATOM     16  C   UNL     1       2.433  -4.474   3.555  0.00  0.00    -0.009 C 
BRANCH  16  17
ATOM     17  C   UNL     1       1.681  -3.977   2.318  0.00  0.00    -0.079 C 
BRANCH  17  18
ATOM     18  N   UNL     1       1.652  -2.508   2.321  0.00  0.00    +0.378 N 
ATOM     19  C   UNL     1       3.019  -1.991   2.178  0.00  0.00    -0.096 C 
ATOM     20  H   UNL     1       1.257  -2.181   3.190  0.00  0.00    -0.082 HD
BRANCH  18  21
ATOM     21  C   UNL     1       0.829  -2.033   1.200  0.00  0.00    -0.076 C 
BRANCH  21  22
ATOM     22  C   UNL     1       0.696  -0.511   1.274  0.00  0.00    -0.031 C 
ATOM     23  C   UNL     1      -0.080  -0.128   2.536  0.00  0.00    +0.005 C 
BRANCH  22  25
ATOM     24  C   UNL     1      -0.079   1.526   0.053  0.00  0.00    +0.004 C 
ATOM     25  C   UNL     1      -0.054  -0.004   0.041  0.00  0.00    -0.002 C 
ENDBRANCH  22  25
ENDBRANCH  21  22
ENDBRANCH  18  21
ENDBRANCH  17  18
ENDBRANCH  16  17
ENDBRANCH  15  16
ENDBRANCH   1  15
TORSDOF 9
