REMARK  Name = ZINC41586194
REMARK  9 active torsions:
REMARK  status: ('A' for Active; 'I' for Inactive)
REMARK    1  A    between atoms: C_1  and  C_2
REMARK    2  A    between atoms: C_2  and  O_3
REMARK    3  A    between atoms: O_3  and  C_4
REMARK    4  A    between atoms: C_4  and  C_6
REMARK    5  A    between atoms: N_9  and  C_12
REMARK    6  A    between atoms: C_12  and  C_13
REMARK    7  A    between atoms: C_14  and  O_33
REMARK    8  A    between atoms: C_16  and  C_32
REMARK    9  A    between atoms: C_21  and  C_22
REMARK                            x       y       z     vdW  Elec       q    Type
REMARK                         _______ _______ _______ _____ _____    ______ ____
ROOT
ATOM      1  C   UNL     1       1.670  -6.104  -6.029  0.00  0.00    +0.020 A 
ATOM      2  C   UNL     1       2.752  -6.894  -5.675  0.00  0.00    +0.122 A 
ATOM      3  C   UNL     1       2.757  -8.256  -5.959  0.00  0.00    +0.050 A 
ATOM      4  C   UNL     1       1.690  -8.829  -6.593  0.00  0.00    -0.033 A 
ATOM      5  C   UNL     1       0.594  -8.046  -6.955  0.00  0.00    +0.071 A 
ATOM      6  C   UNL     1       0.575  -6.671  -6.668  0.00  0.00    +0.145 A 
ATOM      7  O   UNL     1      -0.583  -6.130  -7.104  0.00  0.00    -0.451 OA
ATOM      8  C   UNL     1      -1.386  -7.056  -7.680  0.00  0.00    +0.176 C 
ATOM      9  C   UNL     1      -2.612  -6.832  -8.215  0.00  0.00    +0.058 C 
ATOM     10  C   UNL     1      -0.681  -8.347  -7.631  0.00  0.00    +0.232 C 
ATOM     11  O   UNL     1      -1.069  -9.425  -8.045  0.00  0.00    -0.283 OA
ATOM     12  C   UNL     1       1.698 -10.304  -6.901  0.00  0.00    +0.045 C 
ENDROOT
BRANCH   9  13
ATOM     13  C   UNL     1      -3.441  -7.964  -8.651  0.00  0.00    -0.020 A 
ATOM     14  C   UNL     1      -3.489  -9.136  -7.888  0.00  0.00    +0.009 A 
ATOM     15  C   UNL     1      -4.269 -10.194  -8.303  0.00  0.00    +0.022 A 
ATOM     16  C   UNL     1      -5.004 -10.100  -9.473  0.00  0.00    +0.059 A 
ATOM     17  C   UNL     1      -4.962  -8.943 -10.236  0.00  0.00    +0.060 A 
ATOM     18  C   UNL     1      -4.191  -7.873  -9.830  0.00  0.00    +0.029 A 
ATOM     19 CL   UNL     1      -5.888  -8.836 -11.700  0.00  0.00    -0.082 Cl
ATOM     20 CL   UNL     1      -5.983 -11.438  -9.988  0.00  0.00    -0.082 Cl
ENDBRANCH   9  13
BRANCH   2  21
ATOM     21  O   UNL     1       3.817  -6.334  -5.045  0.00  0.00    -0.506 OA
ATOM     22  H   UNL     1       3.749  -6.337  -4.080  0.00  0.00    +0.292 HD
ENDBRANCH   2  21
BRANCH   1  23
ATOM     23  C   UNL     1       1.679  -4.630  -5.715  0.00  0.00    -0.036 C 
BRANCH  23  27
ATOM     24  C   UNL     1       1.149  -3.390  -1.673  0.00  0.00    +0.094 C 
ATOM     25  C   UNL     1       0.318  -2.731  -2.777  0.00  0.00    -0.004 C 
ATOM     26  C   UNL     1       0.997  -2.967  -4.128  0.00  0.00    -0.078 C 
ATOM     27  N   UNL     1       1.098  -4.409  -4.384  0.00  0.00    +0.383 N 
ATOM     28  C   UNL     1       1.953  -5.036  -3.369  0.00  0.00    -0.078 C 
ATOM     29  C   UNL     1       1.311  -4.880  -1.988  0.00  0.00    -0.004 C 
ATOM     30  H   UNL     1       0.178  -4.821  -4.348  0.00  0.00    -0.081 HD
BRANCH  24  31
ATOM     31  C   UNL     1       0.446  -3.228  -0.349  0.00  0.00    +0.310 C 
ATOM     32  O   UNL     1       0.109  -4.204   0.278  0.00  0.00    -0.251 OA
BRANCH  31  33
ATOM     33  O   UNL     1       0.196  -2.001   0.132  0.00  0.00    -0.465 OA
BRANCH  33  35
ATOM     34  C   UNL     1      -0.671  -0.454   1.774  0.00  0.00    +0.048 C 
ATOM     35  C   UNL     1      -0.474  -1.922   1.392  0.00  0.00    +0.229 C 
ENDBRANCH  33  35
ENDBRANCH  31  33
ENDBRANCH  24  31
ENDBRANCH  23  27
ENDBRANCH   1  23
TORSDOF 7
