REMARK  Name = ZINC48571987
REMARK  10 active torsions:
REMARK  status: ('A' for Active; 'I' for Inactive)
REMARK    1  A    between atoms: C_1  and  C_2
REMARK    2  A    between atoms: C_2  and  C_3
REMARK    3  A    between atoms: C_2  and  C_4
REMARK    4  A    between atoms: C_4  and  N_5
REMARK    5  A    between atoms: N_5  and  C_6
REMARK    6  A    between atoms: N_5  and  C_10
REMARK    7  A    between atoms: C_6  and  C_7
REMARK    8  A    between atoms: C_10  and  C_11
REMARK    9  A    between atoms: N_13  and  C_14
REMARK   10  A    between atoms: C_14  and  C_15
REMARK                            x       y       z     vdW  Elec       q    Type
REMARK                         _______ _______ _______ _____ _____    ______ ____
ROOT
ATOM      1  N   UNL     1      -0.779  -2.312   0.043  0.00  0.00    +0.391 N 
ATOM      2  H   UNL     1      -0.346  -2.667  -0.797  0.00  0.00    -0.080 HD
ENDROOT
BRANCH   1   3
ATOM      3  C   UNL     1      -0.181  -1.018   0.393  0.00  0.00    -0.075 C 
BRANCH   3   5
ATOM      4  C   UNL     1       0.185   1.328  -0.386  0.00  0.00    +0.005 C 
ATOM      5  C   UNL     1      -0.280  -0.069  -0.803  0.00  0.00    -0.034 C 
ATOM      6  C   UNL     1       0.608  -0.584  -1.937  0.00  0.00    +0.005 C 
ENDBRANCH   3   5
ENDBRANCH   1   3
BRANCH   1   7
ATOM      7  C   UNL     1      -0.568  -3.263   1.142  0.00  0.00    +0.019 C 
BRANCH   7   8
ATOM      8  C   UNL     1       0.902  -3.566   1.270  0.00  0.00    +0.194 C 
ATOM      9  O   UNL     1       1.685  -3.124   0.455  0.00  0.00    -0.278 OA
ATOM     10  N   UNL     1       1.348  -4.327   2.289  0.00  0.00    -0.331 N 
ATOM     11  H   UNL     1       0.722  -4.680   2.940  0.00  0.00    +0.145 HD
ATOM     12  H   UNL     1       2.295  -4.521   2.371  0.00  0.00    +0.145 HD
ENDBRANCH   7   8
ENDBRANCH   1   7
BRANCH   1  13
ATOM     13  C   UNL     1      -2.220  -2.140  -0.186  0.00  0.00    +0.019 C 
BRANCH  13  14
ATOM     14  C   UNL     1      -2.812  -3.439  -0.667  0.00  0.00    +0.197 C 
ATOM     15  O   UNL     1      -2.087  -4.378  -0.922  0.00  0.00    -0.278 OA
ATOM     16  N   UNL     1      -4.146  -3.559  -0.815  0.00  0.00    -0.312 N 
ATOM     17  H   UNL     1      -4.726  -2.808  -0.612  0.00  0.00    +0.149 HD
BRANCH  16  18
ATOM     18  C   UNL     1      -4.721  -4.822  -1.283  0.00  0.00    +0.146 C 
BRANCH  18  19
ATOM     19  C   UNL     1      -6.221  -4.694  -1.361  0.00  0.00    +0.008 A 
ATOM     20  C   UNL     1      -6.989  -4.293  -2.404  0.00  0.00    +0.028 A 
ATOM     21  C   UNL     1      -8.363  -4.252  -2.246  0.00  0.00    +0.025 A 
ATOM     22  C   UNL     1      -8.899  -4.612  -1.054  0.00  0.00    +0.060 A 
ATOM     23  S   UNL     1      -7.445  -5.035  -0.108  0.00  0.00    -0.099 S 
ATOM     24 BR   UNL     1      -9.476  -3.700  -3.672  0.00  0.00    -0.050 Br
ENDBRANCH  18  19
ENDBRANCH  16  18
ENDBRANCH  13  14
ENDBRANCH   1  13
TORSDOF 8
