REMARK  Name = ZINC11753731
REMARK  8 active torsions:
REMARK  status: ('A' for Active; 'I' for Inactive)
REMARK    1  A    between atoms: C_4  and  C_27
REMARK    2  A    between atoms: C_5  and  C_7
REMARK    3  A    between atoms: C_7  and  N_58
REMARK    4  A    between atoms: C_13  and  C_15
REMARK    5  A    between atoms: C_15  and  C_16
REMARK    6  A    between atoms: N_18  and  C_19
REMARK    7  A    between atoms: C_19  and  C_20
REMARK    8  A    between atoms: C_20  and  C_21
REMARK                            x       y       z     vdW  Elec       q    Type
REMARK                         _______ _______ _______ _____ _____    ______ ____
ROOT
ATOM      1  C   UNL     1      -4.340  -3.417  -1.544  0.00  0.00    -0.058 C 
ATOM      2  C   UNL     1      -3.925  -4.874  -1.750  0.00  0.00    +0.085 C 
ATOM      3  N   UNL     1      -2.981  -5.277  -0.712  0.00  0.00    -0.318 N 
ATOM      4  C   UNL     1      -2.301  -4.399   0.034  0.00  0.00    +0.200 C 
ATOM      5  O   UNL     1      -1.513  -4.820   0.854  0.00  0.00    -0.278 OA
ATOM      6  C   UNL     1      -2.473  -2.913  -0.103  0.00  0.00    +0.028 C 
ATOM      7  H   UNL     1      -2.840  -6.224  -0.555  0.00  0.00    +0.149 HD
ATOM      8  N   UNL     1      -3.114  -2.608  -1.396  0.00  0.00    +0.391 N 
ATOM      9  H   UNL     1      -2.464  -2.842  -2.156  0.00  0.00    -0.080 HD
ENDROOT
BRANCH   8  10
ATOM     10  C   UNL     1      -3.443  -1.166  -1.471  0.00  0.00    -0.041 C 
BRANCH  10  15
ATOM     11  C   UNL     1      -5.833  -0.409  -4.294  0.00  0.00    +0.000 A 
ATOM     12  C   UNL     1      -4.967  -0.290  -5.365  0.00  0.00    +0.001 A 
ATOM     13  C   UNL     1      -3.607  -0.455  -5.175  0.00  0.00    +0.012 A 
ATOM     14  C   UNL     1      -3.114  -0.738  -3.915  0.00  0.00    +0.056 A 
ATOM     15  C   UNL     1      -3.981  -0.857  -2.845  0.00  0.00    -0.052 A 
ATOM     16  C   UNL     1      -5.341  -0.697  -3.035  0.00  0.00    +0.002 A 
BRANCH  14  17
ATOM     17  C   UNL     1      -1.633  -0.918  -3.709  0.00  0.00    +0.418 C 
ATOM     18  F   UNL     1      -0.961  -0.670  -4.911  0.00  0.00    -0.166 F 
ATOM     19  F   UNL     1      -1.186  -0.022  -2.732  0.00  0.00    -0.166 F 
ATOM     20  F   UNL     1      -1.375  -2.228  -3.292  0.00  0.00    -0.166 F 
ENDBRANCH  14  17
ENDBRANCH  10  15
ENDBRANCH   8  10
BRANCH   6  21
ATOM     21  C   UNL     1      -1.102  -2.236  -0.055  0.00  0.00    +0.089 C 
BRANCH  21  22
ATOM     22  C   UNL     1      -0.517  -2.382   1.326  0.00  0.00    +0.212 C 
ATOM     23  O   UNL     1      -1.184  -2.861   2.219  0.00  0.00    -0.276 OA
ATOM     24  N   UNL     1       0.747  -1.982   1.569  0.00  0.00    -0.315 N 
ATOM     25  H   UNL     1       1.280  -1.600   0.854  0.00  0.00    +0.149 HD
BRANCH  24  26
ATOM     26  C   UNL     1       1.315  -2.125   2.911  0.00  0.00    +0.108 C 
BRANCH  26  27
ATOM     27  C   UNL     1       2.752  -1.599   2.916  0.00  0.00    +0.049 C 
BRANCH  27  28
ATOM     28  C   UNL     1       3.337  -1.746   4.297  0.00  0.00    -0.072 C 
ATOM     29  C   UNL     1       4.038  -2.803   4.550  0.00  0.00    -0.028 C 
ATOM     30  C   UNL     1       4.675  -3.093   5.878  0.00  0.00    +0.027 C 
ATOM     31  C   UNL     1       4.743  -1.816   6.719  0.00  0.00    +0.004 C 
ATOM     32  C   UNL     1       3.359  -1.155   6.710  0.00  0.00    +0.005 C 
ATOM     33  C   UNL     1       3.074  -0.653   5.292  0.00  0.00    +0.030 C 
ENDBRANCH  27  28
ENDBRANCH  26  27
ENDBRANCH  24  26
ENDBRANCH  21  22
ENDBRANCH   6  21
TORSDOF 8
