REMARK  Name = ZINC14554849
REMARK  10 active torsions:
REMARK  status: ('A' for Active; 'I' for Inactive)
REMARK    1  A    between atoms: C_1  and  C_2
REMARK    2  A    between atoms: C_2  and  C_3
REMARK    3  A    between atoms: C_3  and  O_4
REMARK    4  A    between atoms: O_4  and  C_5
REMARK    5  A    between atoms: C_8  and  C_11
REMARK    6  A    between atoms: N_13  and  C_14
REMARK    7  A    between atoms: C_14  and  N_16
REMARK    8  A    between atoms: N_16  and  C_17
REMARK    9  A    between atoms: C_21  and  C_23
REMARK   10  A    between atoms: C_30  and  N_59
REMARK                            x       y       z     vdW  Elec       q    Type
REMARK                         _______ _______ _______ _____ _____    ______ ____
ROOT
ATOM      1  N   UNL     1      -2.740  -0.016   6.742  0.00  0.00    -0.297 N 
ATOM      2  H   UNL     1      -3.654  -0.169   7.028  0.00  0.00    +0.154 HD
ENDROOT
BRANCH   1   3
ATOM      3  C   UNL     1      -2.477   0.839   5.666  0.00  0.00    +0.033 A 
ATOM      4  C   UNL     1      -3.116   2.070   5.585  0.00  0.00    +0.023 A 
ATOM      5  C   UNL     1      -2.859   2.919   4.525  0.00  0.00    +0.003 A 
ATOM      6  C   UNL     1      -1.962   2.551   3.542  0.00  0.00    +0.013 A 
ATOM      7  C   UNL     1      -1.319   1.314   3.611  0.00  0.00    +0.039 A 
ATOM      8  C   UNL     1      -1.578   0.458   4.682  0.00  0.00    +0.036 A 
BRANCH   7   9
ATOM      9  C   UNL     1      -0.363   0.915   2.557  0.00  0.00    +0.247 C 
ATOM     10  O   UNL     1       0.587   0.209   2.834  0.00  0.00    -0.270 OA
ATOM     11  N   UNL     1      -0.544   1.334   1.289  0.00  0.00    -0.301 N 
ATOM     12  C   UNL     1       0.457   1.049   0.249  0.00  0.00    +0.089 C 
ATOM     13  C   UNL     1      -0.252   0.422  -0.956  0.00  0.00    -0.060 C 
ATOM     14  C   UNL     1      -2.372   1.416  -0.326  0.00  0.00    -0.060 C 
ATOM     15  C   UNL     1      -1.751   2.083   0.905  0.00  0.00    +0.089 C 
ATOM     16  C   UNL     1      -1.952   0.818  -2.634  0.00  0.00    -0.096 C 
ATOM     17  N   UNL     1      -1.344   1.322  -1.385  0.00  0.00    +0.380 N 
ATOM     18  H   UNL     1      -0.957   2.257  -1.557  0.00  0.00    -0.082 HD
ENDBRANCH   7   9
ENDBRANCH   1   3
BRANCH   1  19
ATOM     19  C   UNL     1      -1.722  -0.628   7.381  0.00  0.00    +0.141 C 
ATOM     20  S   UNL     1      -0.119  -0.447   6.808  0.00  0.00    -0.018 S 
BRANCH  19  23
ATOM     21  C   UNL     1      -0.951  -1.993   9.110  0.00  0.00    +0.250 C 
ATOM     22  O   UNL     1       0.188  -1.865   8.703  0.00  0.00    -0.270 OA
ATOM     23  N   UNL     1      -1.968  -1.382   8.471  0.00  0.00    -0.264 N 
ATOM     24  H   UNL     1      -2.876  -1.484   8.796  0.00  0.00    +0.157 HD
BRANCH  21  28
ATOM     25  C   UNL     1      -1.722  -4.367  12.544  0.00  0.00    +0.121 A 
ATOM     26  C   UNL     1      -0.420  -4.223  12.080  0.00  0.00    +0.046 A 
ATOM     27  C   UNL     1      -0.166  -3.454  10.967  0.00  0.00    +0.016 A 
ATOM     28  C   UNL     1      -1.219  -2.818  10.303  0.00  0.00    +0.037 A 
ATOM     29  C   UNL     1      -2.526  -2.963  10.776  0.00  0.00    +0.016 A 
ATOM     30  C   UNL     1      -2.773  -3.738  11.887  0.00  0.00    +0.046 A 
BRANCH  25  31
ATOM     31  O   UNL     1      -1.969  -5.127  13.642  0.00  0.00    -0.492 OA
BRANCH  31  32
ATOM     32  C   UNL     1      -3.330  -5.233  14.065  0.00  0.00    +0.229 C 
BRANCH  32  34
ATOM     33  C   UNL     1      -4.867  -6.236  15.760  0.00  0.00    +0.007 C 
ATOM     34  C   UNL     1      -3.410  -6.122  15.307  0.00  0.00    +0.038 C 
ENDBRANCH  32  34
ENDBRANCH  31  32
ENDBRANCH  25  31
ENDBRANCH  21  28
ENDBRANCH  19  23
ENDBRANCH   1  19
TORSDOF 8
