REMARK  Name = ZINC43547728
REMARK  13 active torsions:
REMARK  status: ('A' for Active; 'I' for Inactive)
REMARK    1  A    between atoms: C_1  and  C_2
REMARK    2  A    between atoms: C_7  and  N_10
REMARK    3  A    between atoms: N_10  and  C_11
REMARK    4  A    between atoms: C_14  and  C_37
REMARK    5  A    between atoms: C_14  and  C_38
REMARK    6  A    between atoms: C_17  and  C_24
REMARK    7  A    between atoms: C_20  and  C_22
REMARK    8  A    between atoms: C_20  and  O_23
REMARK    9  A    between atoms: C_24  and  C_25
REMARK   10  A    between atoms: C_25  and  C_26
REMARK   11  A    between atoms: N_28  and  C_29
REMARK   12  A    between atoms: C_29  and  C_30
REMARK   13  A    between atoms: C_30  and  N_31
REMARK                            x       y       z     vdW  Elec       q    Type
REMARK                         _______ _______ _______ _____ _____    ______ ____
ROOT
ATOM      1  C   UNL     1      -4.832  -3.923   2.238  0.00  0.00    -0.064 C 
ATOM      2  C   UNL     1      -3.532  -4.763   2.304  0.00  0.00    -0.009 C 
ATOM      3  C   UNL     1      -3.689  -5.718   3.518  0.00  0.00    -0.033 C 
ATOM      4  C   UNL     1      -4.708  -4.987   4.400  0.00  0.00    +0.002 C 
ATOM      5  C   UNL     1      -5.726  -4.472   3.344  0.00  0.00    -0.038 C 
ATOM      6  C   UNL     1      -6.635  -3.477   4.038  0.00  0.00    +0.008 C 
ATOM      7  C   UNL     1      -7.425  -4.248   5.107  0.00  0.00    +0.035 C 
ATOM      8  C   UNL     1      -6.494  -4.944   6.096  0.00  0.00    +0.064 C 
ATOM      9  C   UNL     1      -5.467  -5.853   5.389  0.00  0.00    +0.039 C 
ATOM     10  C   UNL     1      -7.329  -5.787   7.061  0.00  0.00    +0.041 C 
ATOM     11  C   UNL     1      -2.358  -5.885   4.253  0.00  0.00    +0.011 C 
ATOM     12  C   UNL     1      -4.236  -7.076   3.071  0.00  0.00    +0.011 C 
ENDROOT
BRANCH   1  13
ATOM     13  N   UNL     1      -4.534  -2.505   2.481  0.00  0.00    +0.383 N 
ATOM     14  H   UNL     1      -4.003  -2.414   3.333  0.00  0.00    -0.085 HD
ATOM     15  H   UNL     1      -5.398  -1.990   2.566  0.00  0.00    -0.085 HD
BRANCH  13  22
ATOM     16  C   UNL     1      -4.241   0.757  -2.819  0.00  0.00    +0.109 C 
ATOM     17  C   UNL     1      -3.454   0.923  -1.544  0.00  0.00    +0.212 C 
ATOM     18  O   UNL     1      -3.007   2.010  -1.246  0.00  0.00    -0.276 OA
ATOM     19  N   UNL     1      -3.248  -0.136  -0.736  0.00  0.00    -0.302 N 
ATOM     20  C   UNL     1      -3.779  -1.460  -1.088  0.00  0.00    +0.106 C 
ATOM     21  C   UNL     1      -4.608  -1.987   0.088  0.00  0.00    +0.003 C 
ATOM     22  C   UNL     1      -3.753  -1.969   1.357  0.00  0.00    -0.069 C 
ATOM     23  C   UNL     1      -3.331  -0.531   1.670  0.00  0.00    +0.003 C 
ATOM     24  C   UNL     1      -2.483   0.011   0.509  0.00  0.00    +0.106 C 
ENDBRANCH  13  22
ENDBRANCH   1  13
BRANCH   8  25
ATOM     25  O   UNL     1      -5.780  -3.955   6.840  0.00  0.00    -0.389 OA
ATOM     26  H   UNL     1      -6.347  -3.359   7.348  0.00  0.00    +0.210 HD
ENDBRANCH   8  25
BRANCH   5  27
ATOM     27  C   UNL     1      -6.553  -5.642   2.808  0.00  0.00    +0.015 C 
BRANCH  27  28
ATOM     28  C   UNL     1      -7.547  -5.128   1.764  0.00  0.00    +0.096 C 
BRANCH  28  29
ATOM     29  C   UNL     1      -8.361  -6.281   1.236  0.00  0.00    +0.213 C 
ATOM     30  O   UNL     1      -8.166  -7.403   1.653  0.00  0.00    -0.276 OA
ATOM     31  N   UNL     1      -9.306  -6.065   0.299  0.00  0.00    -0.314 N 
ATOM     32  H   UNL     1      -9.462  -5.168  -0.035  0.00  0.00    +0.149 HD
BRANCH  31  33
ATOM     33  C   UNL     1     -10.098  -7.185  -0.214  0.00  0.00    +0.119 C 
BRANCH  33  34
ATOM     34  C   UNL     1     -11.092  -6.671  -1.258  0.00  0.00    +0.103 C 
BRANCH  34  35
ATOM     35  N   UNL     1     -11.886  -7.795  -1.773  0.00  0.00    -0.297 NA
ATOM     36  C   UNL     1     -11.044  -8.731  -2.532  0.00  0.00    +0.112 C 
ATOM     37  C   UNL     1     -11.897  -9.914  -2.998  0.00  0.00    +0.175 C 
ATOM     38  O   UNL     1     -12.997  -9.426  -3.771  0.00  0.00    -0.377 OA
ATOM     39  C   UNL     1     -13.839  -8.512  -3.062  0.00  0.00    +0.175 C 
ATOM     40  C   UNL     1     -13.005  -7.315  -2.597  0.00  0.00    +0.112 C 
ENDBRANCH  34  35
ENDBRANCH  33  34
ENDBRANCH  31  33
ENDBRANCH  28  29
ENDBRANCH  27  28
ENDBRANCH   5  27
TORSDOF 9
