REMARK  Name = ZINC65567404
REMARK  8 active torsions:
REMARK  status: ('A' for Active; 'I' for Inactive)
REMARK    1  A    between atoms: C_4  and  S_18
REMARK    2  A    between atoms: C_5  and  N_7
REMARK    3  A    between atoms: N_10  and  C_11
REMARK    4  A    between atoms: C_11  and  C_12
REMARK    5  A    between atoms: C_12  and  C_13
REMARK    6  A    between atoms: S_18  and  C_19
REMARK    7  A    between atoms: C_19  and  C_20
REMARK    8  A    between atoms: C_20  and  C_21
REMARK                            x       y       z     vdW  Elec       q    Type
REMARK                         _______ _______ _______ _____ _____    ______ ____
ROOT
ATOM      1  C   UNL     1      -0.030   1.373   0.042  0.00  0.00    +0.002 A 
ATOM      2  C   UNL     1       1.153   2.090   0.038  0.00  0.00    +0.001 A 
ATOM      3  C   UNL     1       2.366   1.429   0.015  0.00  0.00    +0.016 A 
ATOM      4  C   UNL     1       2.400   0.041  -0.005  0.00  0.00    +0.029 A 
ATOM      5  C   UNL     1       1.206  -0.681  -0.001  0.00  0.00    +0.048 A 
ATOM      6  C   UNL     1      -0.006  -0.009   0.022  0.00  0.00    +0.024 A 
ENDROOT
BRANCH   5   7
ATOM      7  N   UNL     1       1.233  -2.083  -0.021  0.00  0.00    -0.268 N 
ATOM      8  C   UNL     1       0.181  -2.770  -0.509  0.00  0.00    +0.304 C 
ATOM      9  O   UNL     1      -0.747  -2.176  -1.024  0.00  0.00    -0.253 OA
ATOM     10  N   UNL     1       0.157  -4.115  -0.425  0.00  0.00    -0.299 N 
ATOM     11  H   UNL     1       2.009  -2.558   0.315  0.00  0.00    +0.156 HD
ATOM     12  H   UNL     1       0.897  -4.588  -0.014  0.00  0.00    +0.150 HD
BRANCH  10  13
ATOM     13  C   UNL     1      -0.987  -4.861  -0.955  0.00  0.00    +0.111 C 
BRANCH  13  14
ATOM     14  C   UNL     1      -0.764  -6.359  -0.735  0.00  0.00    +0.061 C 
BRANCH  14  15
ATOM     15  C   UNL     1      -1.940  -7.127  -1.279  0.00  0.00    -0.009 A 
ATOM     16  C   UNL     1      -2.127  -7.634  -2.523  0.00  0.00    +0.011 A 
ATOM     17  C   UNL     1      -3.299  -8.312  -2.801  0.00  0.00    +0.008 A 
ATOM     18  C   UNL     1      -4.227  -8.450  -1.823  0.00  0.00    +0.045 A 
ATOM     19  S   UNL     1      -3.446  -7.613  -0.453  0.00  0.00    -0.102 S 
ENDBRANCH  14  15
ENDBRANCH  13  14
ENDBRANCH  10  13
ENDBRANCH   5   7
BRANCH   4  20
ATOM     20  S   UNL     1       3.945  -0.805  -0.035  0.00  0.00    -0.123 S 
BRANCH  20  21
ATOM     21  C   UNL     1       5.175   0.528  -0.031  0.00  0.00    +0.083 C 
BRANCH  21  22
ATOM     22  C   UNL     1       6.581  -0.075  -0.056  0.00  0.00    +0.106 C 
BRANCH  22  23
ATOM     23  C   UNL     1       7.603   1.032  -0.052  0.00  0.00    +0.211 C 
ATOM     24  O   UNL     1       7.243   2.190  -0.032  0.00  0.00    -0.276 OA
ATOM     25  N   UNL     1       8.918   0.736  -0.072  0.00  0.00    -0.329 N 
ATOM     26  H   UNL     1       9.206  -0.190  -0.088  0.00  0.00    +0.145 HD
ATOM     27  H   UNL     1       9.576   1.449  -0.070  0.00  0.00    +0.145 HD
ENDBRANCH  22  23
ENDBRANCH  21  22
ENDBRANCH  20  21
ENDBRANCH   4  20
TORSDOF 8
