REMARK  Name = ZINC38931698
REMARK  6 active torsions:
REMARK  status: ('A' for Active; 'I' for Inactive)
REMARK    1  A    between atoms: C_1  and  C_2
REMARK    2  A    between atoms: C_2  and  N_3
REMARK    3  A    between atoms: C_4  and  C_30
REMARK    4  A    between atoms: C_8  and  S_10
REMARK    5  A    between atoms: S_10  and  C_11
REMARK    6  A    between atoms: C_13  and  C_24
REMARK                            x       y       z     vdW  Elec       q    Type
REMARK                         _______ _______ _______ _____ _____    ______ ____
ROOT
ATOM      1  C   UNL     1      -2.450  -1.276   1.726  0.00  0.00    +0.167 C 
ATOM      2  C   UNL     1      -3.722  -1.313   0.902  0.00  0.00    -0.010 C 
ATOM      3  C   UNL     1      -4.710  -2.218   1.298  0.00  0.00    +0.002 A 
ATOM      4  C   UNL     1      -5.923  -2.316   0.585  0.00  0.00    +0.011 A 
ATOM      5  C   UNL     1      -6.871  -3.204   0.988  0.00  0.00    +0.021 A 
ATOM      6  C   UNL     1      -6.669  -4.026   2.096  0.00  0.00    +0.043 A 
ATOM      7  C   UNL     1      -5.509  -3.976   2.829  0.00  0.00    +0.044 A 
ATOM      8  C   UNL     1      -4.490  -3.079   2.466  0.00  0.00    +0.042 A 
ATOM      9  N   UNL     1      -3.360  -3.031   3.180  0.00  0.00    -0.284 N 
ATOM     10  C   UNL     1      -2.359  -2.220   2.904  0.00  0.00    +0.235 C 
ATOM     11  O   UNL     1      -1.359  -2.231   3.598  0.00  0.00    -0.274 OA
ATOM     12 CL   UNL     1      -7.917  -5.141   2.560  0.00  0.00    -0.083 Cl
ATOM     13  H   UNL     1      -3.273  -3.626   3.941  0.00  0.00    +0.155 HD
ENDROOT
BRANCH   2  14
ATOM     14  C   UNL     1      -3.901  -0.466  -0.221  0.00  0.00    -0.020 A 
ATOM     15  C   UNL     1      -4.854   0.565  -0.184  0.00  0.00    +0.008 A 
ATOM     16  C   UNL     1      -5.021   1.383  -1.280  0.00  0.00    +0.001 A 
ATOM     17  C   UNL     1      -4.252   1.190  -2.416  0.00  0.00    +0.000 A 
ATOM     18  C   UNL     1      -3.309   0.176  -2.463  0.00  0.00    +0.001 A 
ATOM     19  C   UNL     1      -3.123  -0.648  -1.376  0.00  0.00    +0.008 A 
ENDBRANCH   2  14
BRANCH   1  20
ATOM     20  S   UNL     1      -2.238   0.414   2.349  0.00  0.00    -0.099 S 
BRANCH  20  25
ATOM     21  N   UNL     1       0.190   0.610   1.150  0.00  0.00    -0.244 NA
ATOM     22  C   UNL     1       0.569  -0.818   1.000  0.00  0.00    +0.231 C 
ATOM     23  N   UNL     1       0.688  -1.320   2.376  0.00  0.00    -0.166 NA
ATOM     24  N   UNL     1       0.145  -0.554   3.179  0.00  0.00    -0.160 NA
ATOM     25  C   UNL     1      -0.440   0.606   2.494  0.00  0.00    +0.259 C 
BRANCH  22  26
ATOM     26  C   UNL     1       1.888  -0.938   0.280  0.00  0.00    -0.007 A 
ATOM     27  C   UNL     1       2.261   0.021  -0.643  0.00  0.00    +0.007 A 
ATOM     28  C   UNL     1       3.470  -0.089  -1.303  0.00  0.00    +0.000 A 
ATOM     29  C   UNL     1       4.307  -1.158  -1.040  0.00  0.00    +0.000 A 
ATOM     30  C   UNL     1       3.934  -2.116  -0.116  0.00  0.00    +0.000 A 
ATOM     31  C   UNL     1       2.727  -2.004   0.547  0.00  0.00    +0.007 A 
ENDBRANCH  22  26
BRANCH  21  33
ATOM     32  C   UNL     1      -1.114   2.492   0.280  0.00  0.00    +0.020 C 
ATOM     33  C   UNL     1      -0.776   1.008   0.117  0.00  0.00    +0.086 C 
ENDBRANCH  21  33
ENDBRANCH  20  25
ENDBRANCH   1  20
TORSDOF 5
