REMARK  Name = ZINC65329439
REMARK  7 active torsions:
REMARK  status: ('A' for Active; 'I' for Inactive)
REMARK    1  A    between atoms: C_1  and  C_2
REMARK    2  A    between atoms: C_6  and  C_15
REMARK    3  A    between atoms: CA_7  and  C_12
REMARK    4  A    between atoms: C_15  and  N_16
REMARK    5  A    between atoms: N_16  and  C_17
REMARK    6  A    between atoms: C_17  and  C_18
REMARK    7  A    between atoms: C_18  and  C_19
REMARK                            x       y       z     vdW  Elec       q    Type
REMARK                         _______ _______ _______ _____ _____    ______ ____
ROOT
ATOM      1  C   UNL     1      -0.018   1.503   0.010  0.00  0.00    +0.044 C 
ATOM      2  C   UNL     1       0.002  -0.004   0.002  0.00  0.00    -0.048 A 
ATOM      3  C   UNL     1       0.005  -0.669  -1.232  0.00  0.00    +0.004 A 
ATOM      4  C   UNL     1       0.024  -2.019  -1.312  0.00  0.00    +0.010 A 
ATOM      5  C   UNL     1       0.041  -2.806  -0.072  0.00  0.00    -0.002 A 
ATOM      6  C   UNL     1       0.060  -4.137   0.168  0.00  0.00    -0.045 C 
ATOM      7  CA  UNL     1       0.070  -4.290   1.673  0.00  0.00    +0.219 C 
ATOM      8  N   UNL     1       0.054  -2.928   2.216  0.00  0.00    -0.368 N 
ATOM      9  C   UNL     1       0.037  -2.079   1.218  0.00  0.00    +0.044 A 
ATOM     10  C   UNL     1       0.022  -0.658   1.183  0.00  0.00    +0.029 A 
ATOM     11  H   UNL     1       0.055  -2.694   3.158  0.00  0.00    +0.161 HD
ENDROOT
BRANCH   7  12
ATOM     12  C   UNL     1       1.317  -5.012   2.113  0.00  0.00    +0.382 C 
ATOM     13  O   UNL     1       2.187  -4.412   2.721  0.00  0.00    -0.244 OA
ATOM     14  OXT UNL     1       1.457  -6.197   1.861  0.00  0.00    -0.244 OA
ENDBRANCH   7  12
BRANCH   6  15
ATOM     15  C   UNL     1       0.070  -5.242  -0.856  0.00  0.00    -0.048 C 
BRANCH  15  16
ATOM     16  N   UNL     1       0.055  -4.660  -2.205  0.00  0.00    +0.382 N 
ATOM     17  H   UNL     1      -0.777  -4.102  -2.321  0.00  0.00    -0.085 HD
ATOM     18  H   UNL     1       0.871  -4.079  -2.330  0.00  0.00    -0.085 HD
BRANCH  16  19
ATOM     19  C   UNL     1       0.064  -5.738  -3.203  0.00  0.00    -0.077 C 
BRANCH  19  20
ATOM     20  C   UNL     1       0.049  -5.132  -4.608  0.00  0.00    +0.017 C 
BRANCH  20  21
ATOM     21  C   UNL     1       0.058  -6.238  -5.632  0.00  0.00    -0.031 A 
ATOM     22  C   UNL     1       1.254  -6.662  -6.180  0.00  0.00    +0.005 A 
ATOM     23  C   UNL     1       1.263  -7.676  -7.119  0.00  0.00    +0.000 A 
ATOM     24  C   UNL     1       0.076  -8.267  -7.511  0.00  0.00    +0.001 A 
ATOM     25  C   UNL     1      -1.120  -7.844  -6.963  0.00  0.00    +0.020 A 
ATOM     26  C   UNL     1      -1.129  -6.833  -6.019  0.00  0.00    +0.044 A 
ATOM     27 CL   UNL     1      -2.631  -6.305  -5.326  0.00  0.00    -0.083 Cl
ENDBRANCH  20  21
ENDBRANCH  19  20
ENDBRANCH  16  19
ENDBRANCH  15  16
ENDBRANCH   6  15
TORSDOF 6
