REMARK  Name = ZINC12498117
REMARK  12 active torsions:
REMARK  status: ('A' for Active; 'I' for Inactive)
REMARK    1  A    between atoms: C_1  and  C_2
REMARK    2  A    between atoms: C_2  and  C_3
REMARK    3  A    between atoms: C_3  and  C_4
REMARK    4  A    between atoms: C_4  and  C_32
REMARK    5  A    between atoms: C_9  and  C_11
REMARK    6  A    between atoms: C_14  and  O_17
REMARK    7  A    between atoms: N_20  and  C_23
REMARK    8  A    between atoms: C_27  and  C_29
REMARK    9  A    between atoms: C_29  and  C_31
REMARK   10  A    between atoms: C_32  and  O_34
REMARK   11  A    between atoms: O_34  and  C_35
REMARK   12  A    between atoms: C_35  and  C_36
REMARK                            x       y       z     vdW  Elec       q    Type
REMARK                         _______ _______ _______ _____ _____    ______ ____
ROOT
ATOM      1  C   UNL     1      -1.290   8.693   0.256  0.00  0.00    +0.044 C 
ATOM      2  C   UNL     1      -0.808   7.305   0.344  0.00  0.00    +0.086 C 
ATOM      3  C   UNL     1       0.591   7.413  -0.383  0.00  0.00    +0.077 C 
ATOM      4  C   UNL     1       1.122   8.627   0.381  0.00  0.00    -0.027 C 
ATOM      5  C   UNL     1       1.073   6.040   0.010  0.00  0.00    +0.229 C 
ATOM      6  O   UNL     1       2.209   5.710   0.277  0.00  0.00    -0.275 OA
ATOM      7  N   UNL     1      -0.036   5.242   0.000  0.00  0.00    -0.210 N 
ATOM      8  C   UNL     1      -1.206   5.960   0.014  0.00  0.00    +0.229 C 
ATOM      9  O   UNL     1      -2.327   5.552  -0.203  0.00  0.00    -0.275 OA
ATOM     10  N   UNL     1      -0.074   9.464   0.653  0.00  0.00    +0.395 N 
ATOM     11  H   UNL     1      -0.119   9.691   1.654  0.00  0.00    -0.083 HD
ATOM     12  H   UNL     1      -0.021  10.333   0.108  0.00  0.00    -0.083 HD
ENDROOT
BRANCH   4  13
ATOM     13  C   UNL     1       1.764   8.191   1.672  0.00  0.00    -0.060 A 
ATOM     14  C   UNL     1       0.991   8.022   2.806  0.00  0.00    +0.005 A 
ATOM     15  C   UNL     1       1.577   7.617   3.989  0.00  0.00    +0.045 A 
ATOM     16  C   UNL     1       2.944   7.389   4.042  0.00  0.00    +0.117 A 
ATOM     17  C   UNL     1       3.719   7.564   2.905  0.00  0.00    +0.045 A 
ATOM     18  C   UNL     1       3.127   7.964   1.722  0.00  0.00    +0.005 A 
BRANCH  16  19
ATOM     19  O   UNL     1       3.524   6.997   5.207  0.00  0.00    -0.507 OA
ATOM     20  H   UNL     1       3.824   7.728   5.764  0.00  0.00    +0.292 HD
ENDBRANCH  16  19
ENDBRANCH   4  13
BRANCH   7  21
ATOM     21  C   UNL     1       0.016   3.841  -0.016  0.00  0.00    +0.045 A 
ATOM     22  C   UNL     1      -1.162   3.102  -0.019  0.00  0.00    +0.024 A 
ATOM     23  C   UNL     1      -1.119   1.721  -0.041  0.00  0.00    +0.003 A 
ATOM     24  C   UNL     1       0.094   1.064  -0.049  0.00  0.00    +0.011 A 
ATOM     25  C   UNL     1       1.286   1.796  -0.046  0.00  0.00    +0.019 A 
ATOM     26  C   UNL     1       1.240   3.193  -0.030  0.00  0.00    +0.035 A 
BRANCH  25  27
ATOM     27  C   UNL     1       2.582   1.099  -0.061  0.00  0.00    +0.160 C 
ATOM     28  O   UNL     1       3.613   1.737  -0.059  0.00  0.00    -0.292 OA
ATOM     29  C   UNL     1       2.628  -0.407  -0.080  0.00  0.00    +0.091 C 
ENDBRANCH  25  27
ENDBRANCH   7  21
BRANCH   1  30
ATOM     30  C   UNL     1      -2.425   8.931   1.218  0.00  0.00    +0.297 C 
ATOM     31  O   UNL     1      -3.110   8.006   1.584  0.00  0.00    -0.252 OA
BRANCH  30  32
ATOM     32  O   UNL     1      -2.674  10.171   1.669  0.00  0.00    -0.466 OA
BRANCH  32  33
ATOM     33  C   UNL     1      -3.783  10.325   2.593  0.00  0.00    +0.228 C 
ATOM     34  C   UNL     1      -3.912  11.797   2.993  0.00  0.00    +0.048 C 
ENDBRANCH  32  33
ENDBRANCH  30  32
ENDBRANCH   1  30
BRANCH   1  35
ATOM     35  C   UNL     1      -1.709   9.036  -1.175  0.00  0.00    -0.001 C 
BRANCH  35  37
ATOM     36  C   UNL     1      -2.503  10.860  -2.687  0.00  0.00    +0.004 C 
ATOM     37  C   UNL     1      -2.084  10.517  -1.256  0.00  0.00    -0.004 C 
ENDBRANCH  35  37
ENDBRANCH   1  35
TORSDOF 9
