REMARK  Name = ZINC65174388
REMARK  8 active torsions:
REMARK  status: ('A' for Active; 'I' for Inactive)
REMARK    1  A    between atoms: C_1  and  N_2
REMARK    2  A    between atoms: N_2  and  C_3
REMARK    3  A    between atoms: N_6  and  C_9
REMARK    4  A    between atoms: C_15  and  C_17
REMARK    5  A    between atoms: C_17  and  C_18
REMARK    6  A    between atoms: C_18  and  C_19
REMARK    7  A    between atoms: C_19  and  C_20
REMARK    8  A    between atoms: C_20  and  N_21
REMARK                            x       y       z     vdW  Elec       q    Type
REMARK                         _______ _______ _______ _____ _____    ______ ____
ROOT
ATOM      1  C   UNL     1      -0.018   1.461   0.010  0.00  0.00    +0.132 C 
ATOM      2  N   UNL     1       0.002  -0.004   0.002  0.00  0.00    -0.302 N 
ATOM      3  C   UNL     1       0.000  -0.672  -1.169  0.00  0.00    +0.216 C 
ATOM      4  O   UNL     1       0.017  -1.884  -1.175  0.00  0.00    -0.276 OA
ENDROOT
BRANCH   2   5
ATOM      5  C   UNL     1       0.024  -0.743   1.267  0.00  0.00    +0.072 C 
ATOM      6  C   UNL     1      -1.218  -0.388   2.089  0.00  0.00    +0.004 C 
ATOM      7  C   UNL     1      -1.149  -1.102   3.441  0.00  0.00    -0.077 C 
ATOM      8  N   UNL     1       0.056  -0.675   4.163  0.00  0.00    +0.382 N 
ATOM      9  C   UNL     1       1.253  -1.076   3.414  0.00  0.00    -0.077 C 
ATOM     10  C   UNL     1       1.276  -0.362   2.061  0.00  0.00    +0.004 C 
ATOM     11  H   UNL     1       0.046   0.328   4.267  0.00  0.00    -0.081 HD
BRANCH   8  12
ATOM     12  C   UNL     1       0.077  -1.303   5.491  0.00  0.00    -0.064 C 
ATOM     13  C   UNL     1      -1.161  -0.870   6.282  0.00  0.00    +0.013 C 
ATOM     14  C   UNL     1      -1.090  -1.465   7.691  0.00  0.00    +0.158 C 
ATOM     15  O   UNL     1       0.117  -1.038   8.327  0.00  0.00    -0.380 OA
ATOM     16  C   UNL     1       1.308  -1.455   7.657  0.00  0.00    +0.158 C 
ATOM     17  C   UNL     1       1.334  -0.860   6.247  0.00  0.00    +0.013 C 
ENDBRANCH   8  12
ENDBRANCH   2   5
BRANCH   3  18
ATOM     18  C   UNL     1      -0.023   0.089  -2.470  0.00  0.00    +0.096 C 
BRANCH  18  19
ATOM     19  C   UNL     1      -0.020  -0.899  -3.638  0.00  0.00    +0.011 C 
BRANCH  19  20
ATOM     20  C   UNL     1      -0.043  -0.127  -4.959  0.00  0.00    +0.019 C 
BRANCH  20  21
ATOM     21  C   UNL     1      -0.041  -1.115  -6.127  0.00  0.00    +0.106 C 
BRANCH  21  22
ATOM     22  N   UNL     1      -0.063  -0.376  -7.392  0.00  0.00    -0.300 N 
ATOM     23  C   UNL     1      -0.065  -1.043  -8.562  0.00  0.00    +0.297 C 
ATOM     24  O   UNL     1      -0.048  -2.259  -8.569  0.00  0.00    -0.253 OA
ATOM     25  N   UNL     1      -0.085  -0.363  -9.726  0.00  0.00    -0.313 N 
ATOM     26  H   UNL     1      -0.076   0.594  -7.386  0.00  0.00    +0.150 HD
ATOM     27  H   UNL     1      -0.098   0.607  -9.721  0.00  0.00    +0.146 HD
ATOM     28  H   UNL     1      -0.087  -0.844 -10.569  0.00  0.00    +0.146 HD
ENDBRANCH  21  22
ENDBRANCH  20  21
ENDBRANCH  19  20
ENDBRANCH  18  19
ENDBRANCH   3  18
TORSDOF 7
