REMARK  Name = ZINC27367876
REMARK  12 active torsions:
REMARK  status: ('A' for Active; 'I' for Inactive)
REMARK    1  A    between atoms: C_1  and  C_2
REMARK    2  A    between atoms: C_2  and  C_3
REMARK    3  A    between atoms: C_3  and  C_4
REMARK    4  A    between atoms: C_7  and  C_10
REMARK    5  A    between atoms: C_10  and  C_12
REMARK    6  A    between atoms: C_10  and  N_15
REMARK    7  A    between atoms: C_12  and  C_13
REMARK    8  A    between atoms: C_12  and  C_14
REMARK    9  A    between atoms: N_15  and  C_16
REMARK   10  A    between atoms: C_16  and  C_17
REMARK   11  A    between atoms: C_26  and  S_28
REMARK   12  A    between atoms: S_28  and  N_31
REMARK                            x       y       z     vdW  Elec       q    Type
REMARK                         _______ _______ _______ _____ _____    ______ ____
ROOT
ATOM      1  C   UNL     1      -0.038  -0.442   3.625  0.00  0.00    +0.016 C 
ENDROOT
BRANCH   1   2
ATOM      2  C   UNL     1      -1.241   0.407   3.304  0.00  0.00    +0.203 C 
ATOM      3  O   UNL     1      -1.238   1.590   3.572  0.00  0.00    -0.277 OA
ATOM      4  N   UNL     1      -2.320  -0.148   2.717  0.00  0.00    -0.272 N 
ATOM      5  C   UNL     1      -2.441  -1.560   2.346  0.00  0.00    +0.118 C 
ATOM      6  C   UNL     1      -3.838  -1.696   1.718  0.00  0.00    +0.056 C 
ATOM      7  C   UNL     1      -4.422  -0.303   1.784  0.00  0.00    -0.023 A 
ATOM      8  C   UNL     1      -3.491   0.538   2.373  0.00  0.00    +0.040 A 
ATOM      9  C   UNL     1      -3.809   1.887   2.543  0.00  0.00    +0.026 A 
ATOM     10  C   UNL     1      -5.032   2.371   2.131  0.00  0.00    +0.030 A 
ATOM     11  C   UNL     1      -5.954   1.524   1.545  0.00  0.00    +0.105 A 
ATOM     12  C   UNL     1      -5.646   0.187   1.372  0.00  0.00    +0.034 A 
BRANCH  11  13
ATOM     13  S   UNL     1      -7.516   2.146   1.018  0.00  0.00    +0.056 S 
ATOM     14  O   UNL     1      -7.345   3.539   0.797  0.00  0.00    -0.153 OA
ATOM     15  O   UNL     1      -7.984   1.265   0.006  0.00  0.00    -0.153 OA
BRANCH  13  16
ATOM     16  N   UNL     1      -8.559   1.995   2.296  0.00  0.00    -0.204 NA
ATOM     17  H   UNL     1      -9.550   2.374   2.007  0.00  0.00    +0.144 HD
ATOM     18  H   UNL     1      -8.179   2.575   3.150  0.00  0.00    +0.144 HD
ENDBRANCH  13  16
ENDBRANCH  11  13
ENDBRANCH   1   2
BRANCH   1  19
ATOM     19  N   UNL     1       0.995   0.391   4.255  0.00  0.00    +0.389 N 
ATOM     20  H   UNL     1       0.561   0.883   5.138  0.00  0.00    -0.084 HD
ATOM     21  H   UNL     1       1.321   1.155   3.533  0.00  0.00    -0.084 HD
BRANCH  19  22
ATOM     22  C   UNL     1       2.149  -0.420   4.664  0.00  0.00    -0.038 C 
BRANCH  22  26
ATOM     23  C   UNL     1       1.335  -2.256   8.434  0.00  0.00    -0.047 A 
ATOM     24  C   UNL     1       1.992  -2.967   7.447  0.00  0.00    +0.004 A 
ATOM     25  C   UNL     1       2.255  -2.373   6.227  0.00  0.00    +0.002 A 
ATOM     26  C   UNL     1       1.861  -1.068   5.994  0.00  0.00    -0.061 A 
ATOM     27  C   UNL     1       1.209  -0.356   6.983  0.00  0.00    +0.002 A 
ATOM     28  C   UNL     1       0.941  -0.952   8.201  0.00  0.00    +0.004 A 
BRANCH  23  29
ATOM     29  C   UNL     1       1.048  -2.904   9.764  0.00  0.00    +0.035 C 
BRANCH  29  31
ATOM     30  C   UNL     1       1.926  -3.308  12.068  0.00  0.00    +0.004 C 
ATOM     31  C   UNL     1       2.217  -2.650  10.717  0.00  0.00    +0.001 C 
ENDBRANCH  29  31
ENDBRANCH  23  29
ENDBRANCH  22  26
BRANCH  22  32
ATOM     32  C   UNL     1       3.384   0.474   4.789  0.00  0.00    -0.027 C 
ATOM     33  C   UNL     1       4.602  -0.383   5.139  0.00  0.00    +0.006 C 
ATOM     34  C   UNL     1       3.630   1.192   3.460  0.00  0.00    +0.006 C 
ENDBRANCH  22  32
ENDBRANCH  19  22
ENDBRANCH   1  19
TORSDOF 9
