REMARK  Name = ZINC39984301
REMARK  5 active torsions:
REMARK  status: ('A' for Active; 'I' for Inactive)
REMARK    1  A    between atoms: N_7  and  S_8
REMARK    2  A    between atoms: S_8  and  C_11
REMARK    3  A    between atoms: C_18  and  N_23
REMARK    4  A    between atoms: N_23  and  C_24
REMARK    5  A    between atoms: C_29  and  C_30
REMARK                            x       y       z     vdW  Elec       q    Type
REMARK                         _______ _______ _______ _____ _____    ______ ____
ROOT
ATOM      1  C   UNL     1      -0.449   1.039   0.245  0.00  0.00    +0.002 A 
ATOM      2  C   UNL     1       0.641   1.917   0.128  0.00  0.00    +0.002 A 
ATOM      3  C   UNL     1       1.915   1.486   0.001  0.00  0.00    +0.028 A 
ATOM      4  C   UNL     1       2.204   0.098  -0.020  0.00  0.00    +0.064 A 
ATOM      5  N   UNL     1       3.448  -0.316  -0.144  0.00  0.00    -0.338 N 
ATOM      6  C   UNL     1       3.756  -1.622  -0.168  0.00  0.00    +0.170 C 
ATOM      7  N   UNL     1       4.992  -2.006  -0.292  0.00  0.00    -0.112 NA
ATOM      8  C   UNL     1       2.645  -2.640  -0.049  0.00  0.00    +0.235 C 
ATOM      9  N   UNL     1       1.268  -2.141   0.089  0.00  0.00    -0.359 N 
ATOM     10  C   UNL     1       1.072  -0.852   0.101  0.00  0.00    +0.061 A 
ATOM     11  C   UNL     1      -0.285  -0.302   0.237  0.00  0.00    +0.027 A 
ATOM     12  H   UNL     1       0.522  -2.757   0.168  0.00  0.00    +0.162 HD
ATOM     13  H   UNL     1       4.159   0.340  -0.221  0.00  0.00    +0.167 HD
ENDROOT
BRANCH   7  14
ATOM     14  S   UNL     1       6.200  -0.881  -0.421  0.00  0.00    +0.100 S 
ATOM     15  O   UNL     1       5.998  -0.208  -1.656  0.00  0.00    -0.146 OA
ATOM     16  O   UNL     1       6.250  -0.194   0.822  0.00  0.00    -0.146 OA
BRANCH  14  17
ATOM     17  C   UNL     1       7.719  -1.761  -0.570  0.00  0.00    +0.113 A 
ATOM     18  C   UNL     1       8.433  -2.105   0.563  0.00  0.00    +0.030 A 
ATOM     19  C   UNL     1       9.624  -2.795   0.446  0.00  0.00    +0.022 A 
ATOM     20  C   UNL     1      10.103  -3.143  -0.804  0.00  0.00    +0.041 A 
ATOM     21  C   UNL     1       9.388  -2.799  -1.938  0.00  0.00    +0.022 A 
ATOM     22  C   UNL     1       8.194  -2.113  -1.820  0.00  0.00    +0.030 A 
ATOM     23 CL   UNL     1      11.600  -4.010  -0.952  0.00  0.00    -0.084 Cl
ENDBRANCH  14  17
ENDBRANCH   7  14
BRANCH   8  24
ATOM     24  N   UNL     1       2.693  -3.496  -1.237  0.00  0.00    -0.317 N 
ATOM     25  H   UNL     1       2.826  -3.102  -2.113  0.00  0.00    +0.148 HD
BRANCH  24  26
ATOM     26  C   UNL     1       2.547  -4.869  -1.109  0.00  0.00    +0.045 A 
ATOM     27  C   UNL     1       2.212  -5.425   0.119  0.00  0.00    +0.043 A 
ATOM     28  C   UNL     1       2.068  -6.792   0.244  0.00  0.00    +0.043 A 
ATOM     29  C   UNL     1       2.255  -7.622  -0.854  0.00  0.00    +0.021 A 
ATOM     30  C   UNL     1       2.587  -7.091  -2.079  0.00  0.00    +0.018 A 
ATOM     31  C   UNL     1       2.732  -5.706  -2.223  0.00  0.00    +0.084 A 
ATOM     32 CL   UNL     1       1.650  -7.479   1.783  0.00  0.00    -0.083 Cl
BRANCH  31  33
ATOM     33  C   UNL     1       3.079  -5.132  -3.531  0.00  0.00    +0.388 C 
ATOM     34  O   UNL     1       3.128  -5.849  -4.521  0.00  0.00    -0.241 OA
ATOM     35  O   UNL     1       3.321  -3.936  -3.629  0.00  0.00    -0.241 OA
ENDBRANCH  31  33
ENDBRANCH  24  26
ENDBRANCH   8  24
TORSDOF 5
