REMARK  Name = ZINC63515136
REMARK  7 active torsions:
REMARK  status: ('A' for Active; 'I' for Inactive)
REMARK    1  A    between atoms: C_7  and  C_10
REMARK    2  A    between atoms: C_10  and  C_11
REMARK    3  A    between atoms: C_11  and  N_12
REMARK    4  A    between atoms: C_13  and  C_15
REMARK    5  A    between atoms: C_17  and  C_28
REMARK    6  A    between atoms: N_19  and  C_21
REMARK    7  A    between atoms: C_28  and  O_29
REMARK                            x       y       z     vdW  Elec       q    Type
REMARK                         _______ _______ _______ _____ _____    ______ ____
ROOT
ATOM      1  N   UNL     1      -0.458  -4.798  -1.460  0.00  0.00    -0.313 N 
ATOM      2  C   UNL     1      -0.811  -5.380  -2.623  0.00  0.00    +0.237 C 
ATOM      3  O   UNL     1      -0.371  -4.957  -3.671  0.00  0.00    -0.274 OA
ATOM      4  H   UNL     1      -0.810  -5.136  -0.622  0.00  0.00    +0.149 HD
ENDROOT
BRANCH   2   5
ATOM      5  C   UNL     1      -1.752  -6.557  -2.622  0.00  0.00    +0.208 C 
ATOM      6  C   UNL     1      -3.187  -6.088  -2.527  0.00  0.00    +0.091 C 
ATOM      7  N   UNL     1      -3.788  -6.480  -3.581  0.00  0.00    -0.169 NA
ATOM      8  N   UNL     1      -2.948  -7.187  -4.438  0.00  0.00    -0.156 N 
ATOM      9  N   UNL     1      -1.686  -7.274  -3.912  0.00  0.00    -0.202 NA
ATOM     10  H   UNL     1      -1.413  -8.236  -3.778  0.00  0.00    +0.148 HD
BRANCH   8  11
ATOM     11  C   UNL     1      -3.338  -7.733  -5.663  0.00  0.00    +0.069 A 
ATOM     12  C   UNL     1      -2.419  -8.427  -6.440  0.00  0.00    +0.028 A 
ATOM     13  C   UNL     1      -2.807  -8.967  -7.651  0.00  0.00    +0.022 A 
ATOM     14  C   UNL     1      -4.111  -8.816  -8.090  0.00  0.00    +0.041 A 
ATOM     15  C   UNL     1      -5.029  -8.126  -7.318  0.00  0.00    +0.022 A 
ATOM     16  C   UNL     1      -4.648  -7.589  -6.104  0.00  0.00    +0.028 A 
ATOM     17 CL   UNL     1      -4.596  -9.495  -9.612  0.00  0.00    -0.084 Cl
ENDBRANCH   8  11
BRANCH   6  18
ATOM     18  C   UNL     1      -3.794  -5.301  -1.394  0.00  0.00    +0.210 C 
BRANCH  18  19
ATOM     19  O   UNL     1      -5.173  -5.050  -1.674  0.00  0.00    -0.389 OA
ATOM     20  H   UNL     1      -5.629  -4.546  -0.986  0.00  0.00    +0.210 HD
ENDBRANCH  18  19
ENDBRANCH   6  18
ENDBRANCH   2   5
BRANCH   1  21
ATOM     21  C   UNL     1       0.457  -3.653  -1.462  0.00  0.00    +0.108 C 
BRANCH  21  22
ATOM     22  C   UNL     1       0.691  -3.186  -0.024  0.00  0.00    +0.052 C 
BRANCH  22  29
ATOM     23  C   UNL     1      -0.016   1.348   0.009  0.00  0.00    +0.001 A 
ATOM     24  C   UNL     1       1.166   2.101   0.002  0.00  0.00    +0.002 A 
ATOM     25  C   UNL     1       2.391   1.535  -0.013  0.00  0.00    +0.026 A 
ATOM     26  C   UNL     1       2.529   0.120  -0.022  0.00  0.00    +0.043 A 
ATOM     27  N   UNL     1       3.587  -0.654  -0.037  0.00  0.00    -0.380 N 
ATOM     28  C   UNL     1       3.143  -2.053  -0.041  0.00  0.00    +0.144 C 
ATOM     29  C   UNL     1       1.631  -2.008  -0.025  0.00  0.00    -0.040 C 
ATOM     30  C   UNL     1       1.295  -0.698  -0.014  0.00  0.00    -0.001 A 
ATOM     31  C   UNL     1       0.002  -0.004   0.002  0.00  0.00    +0.010 A 
ATOM     32  H   UNL     1       4.509  -0.353  -0.045  0.00  0.00    +0.160 HD
ENDBRANCH  22  29
ENDBRANCH  21  22
ENDBRANCH   1  21
TORSDOF 7
