REMARK  Name = ZINC01877532
REMARK  11 active torsions:
REMARK  status: ('A' for Active; 'I' for Inactive)
REMARK    1  A    between atoms: C_1  and  C_2
REMARK    2  A    between atoms: C_2  and  C_3
REMARK    3  A    between atoms: C_3  and  C_4
REMARK    4  A    between atoms: C_4  and  C_5
REMARK    5  A    between atoms: C_5  and  C_6
REMARK    6  A    between atoms: C_6  and  C_7
REMARK    7  A    between atoms: C_11  and  C_28
REMARK    8  A    between atoms: N_13  and  N_14
REMARK    9  A    between atoms: C_15  and  C_17
REMARK   10  A    between atoms: C_26  and  O_27
REMARK   11  A    between atoms: N_30  and  C_31
REMARK                            x       y       z     vdW  Elec       q    Type
REMARK                         _______ _______ _______ _____ _____    ______ ____
ROOT
ATOM      1  C   UNL     1      -1.296  -0.962   0.061  0.00  0.00    -0.005 A 
ATOM      2  C   UNL     1      -1.886  -1.400  -1.090  0.00  0.00    +0.018 A 
ATOM      3  C   UNL     1      -3.246  -1.731  -1.093  0.00  0.00    +0.019 A 
ATOM      4  C   UNL     1      -3.897  -2.204  -2.318  0.00  0.00    +0.030 A 
ATOM      5  C   UNL     1      -5.283  -2.245  -2.331  0.00  0.00    +0.099 A 
ATOM      6  C   UNL     1      -5.982  -1.807  -1.102  0.00  0.00    +0.224 A 
ATOM      7  N   UNL     1      -7.194  -1.322  -1.152  0.00  0.00    -0.273 N 
ATOM      8  O   UNL     1      -5.321  -1.925   0.084  0.00  0.00    -0.437 OA
ATOM      9  C   UNL     1      -4.003  -1.603   0.088  0.00  0.00    +0.141 A 
ATOM     10  C   UNL     1      -3.393  -1.151   1.244  0.00  0.00    +0.092 A 
ATOM     11  C   UNL     1      -2.042  -0.831   1.230  0.00  0.00    +0.124 A 
ATOM     12  H   UNL     1      -7.711  -1.234  -2.119  0.00  0.00    +0.188 HD
ENDROOT
BRANCH   7  13
ATOM     13  N   UNL     1      -7.834  -0.914   0.025  0.00  0.00    -0.223 N 
ATOM     14  C   UNL     1      -9.085  -0.413  -0.027  0.00  0.00    +0.262 C 
ATOM     15  O   UNL     1      -9.657  -0.317  -1.096  0.00  0.00    -0.269 OA
ATOM     16  H   UNL     1      -7.317  -1.001   0.992  0.00  0.00    +0.175 HD
BRANCH  14  17
ATOM     17  C   UNL     1      -9.761   0.017   1.215  0.00  0.00    +0.038 A 
ATOM     18  C   UNL     1      -9.109  -0.098   2.444  0.00  0.00    +0.013 A 
ATOM     19  C   UNL     1      -9.743   0.312   3.599  0.00  0.00    +0.001 A 
ATOM     20  C   UNL     1     -11.027   0.825   3.542  0.00  0.00    +0.000 A 
ATOM     21  C   UNL     1     -11.681   0.936   2.328  0.00  0.00    +0.001 A 
ATOM     22  C   UNL     1     -11.056   0.536   1.165  0.00  0.00    +0.013 A 
ENDBRANCH  14  17
ENDBRANCH   7  13
BRANCH   5  23
ATOM     23  C   UNL     1      -6.027  -2.703  -3.514  0.00  0.00    +0.253 C 
ATOM     24  O   UNL     1      -5.425  -3.057  -4.511  0.00  0.00    -0.270 OA
ATOM     25  N   UNL     1      -7.374  -2.730  -3.495  0.00  0.00    -0.281 N 
ATOM     26  H   UNL     1      -7.916  -2.495  -2.567  0.00  0.00    +0.155 HD
BRANCH  25  27
ATOM     27  C   UNL     1      -8.083  -3.058  -4.655  0.00  0.00    +0.034 A 
ATOM     28  C   UNL     1      -7.588  -2.694  -5.900  0.00  0.00    +0.023 A 
ATOM     29  C   UNL     1      -8.289  -3.023  -7.043  0.00  0.00    +0.002 A 
ATOM     30  C   UNL     1      -9.488  -3.707  -6.949  0.00  0.00    +0.000 A 
ATOM     31  C   UNL     1      -9.986  -4.066  -5.710  0.00  0.00    +0.002 A 
ATOM     32  C   UNL     1      -9.288  -3.744  -4.563  0.00  0.00    +0.023 A 
ENDBRANCH  25  27
ENDBRANCH   5  23
BRANCH  11  33
ATOM     33  O   UNL     1      -1.444  -0.387   2.365  0.00  0.00    -0.506 OA
ATOM     34  H   UNL     1      -2.029  -0.282   3.290  0.00  0.00    +0.292 HD
ENDBRANCH  11  33
BRANCH   1  35
ATOM     35  C   UNL     1       0.169  -0.611   0.066  0.00  0.00    +0.039 C 
BRANCH  35  36
ATOM     36  C   UNL     1       0.331   0.907  -0.043  0.00  0.00    +0.005 C 
BRANCH  36  37
ATOM     37  C   UNL     1       1.819   1.263  -0.039  0.00  0.00    +0.000 C 
BRANCH  37  38
ATOM     38  C   UNL     1       1.980   2.780  -0.148  0.00  0.00    -0.000 C 
BRANCH  38  40
ATOM     39  C   UNL     1       3.630   4.654  -0.254  0.00  0.00    +0.004 C 
ATOM     40  C   UNL     1       3.468   3.136  -0.144  0.00  0.00    -0.003 C 
ENDBRANCH  38  40
ENDBRANCH  37  38
ENDBRANCH  36  37
ENDBRANCH  35  36
ENDBRANCH   1  35
TORSDOF 10
