REMARK  Name = ZINC48180943
REMARK  10 active torsions:
REMARK  status: ('A' for Active; 'I' for Inactive)
REMARK    1  A    between atoms: C_1  and  C_2
REMARK    2  A    between atoms: C_4  and  C_23
REMARK    3  A    between atoms: C_7  and  N_8
REMARK    4  A    between atoms: N_11  and  C_12
REMARK    5  A    between atoms: C_12  and  C_13
REMARK    6  A    between atoms: C_13  and  C_15
REMARK    7  A    between atoms: C_13  and  N_20
REMARK    8  A    between atoms: N_20  and  C_21
REMARK    9  A    between atoms: N_20  and  C_22
REMARK   10  A    between atoms: N_25  and  C_26
REMARK                            x       y       z     vdW  Elec       q    Type
REMARK                         _______ _______ _______ _____ _____    ______ ____
ROOT
ATOM      1  N   UNL     1       0.321   0.096   2.460  0.00  0.00    -0.269 N 
ATOM      2  C   UNL     1       0.116  -0.602   3.595  0.00  0.00    +0.304 C 
ATOM      3  O   UNL     1       0.056  -1.816   3.559  0.00  0.00    -0.253 OA
ATOM      4  N   UNL     1      -0.023   0.046   4.769  0.00  0.00    -0.300 N 
ATOM      5  H   UNL     1       0.437   1.059   2.497  0.00  0.00    +0.156 HD
ATOM      6  H   UNL     1       0.025   1.014   4.797  0.00  0.00    +0.150 HD
ENDROOT
BRANCH   1  13
ATOM      7  C   UNL     1      -0.720   1.441   0.184  0.00  0.00    +0.045 C 
ATOM      8  C   UNL     1      -0.133   0.056   0.092  0.00  0.00    -0.028 A 
ATOM      9  C   UNL     1      -0.085  -0.592  -1.122  0.00  0.00    +0.018 A 
ATOM     10  C   UNL     1       0.460  -1.876  -1.206  0.00  0.00    +0.037 A 
ATOM     11  C   UNL     1       0.955  -2.498  -0.057  0.00  0.00    +0.015 A 
ATOM     12  C   UNL     1       0.904  -1.845   1.154  0.00  0.00    +0.024 A 
ATOM     13  C   UNL     1       0.366  -0.565   1.233  0.00  0.00    +0.038 A 
BRANCH  10  14
ATOM     14  C   UNL     1       0.512  -2.573  -2.506  0.00  0.00    +0.244 C 
ATOM     15  O   UNL     1       0.081  -2.030  -3.505  0.00  0.00    -0.270 OA
ATOM     16  N   UNL     1       1.038  -3.812  -2.585  0.00  0.00    -0.314 N 
ATOM     17  C   UNL     1       1.090  -4.504  -3.875  0.00  0.00    +0.128 C 
ATOM     18  H   UNL     1       1.382  -4.245  -1.788  0.00  0.00    +0.149 HD
ENDBRANCH  10  14
ENDBRANCH   1  13
BRANCH   4  19
ATOM     19  C   UNL     1      -0.245  -0.713   6.002  0.00  0.00    +0.095 C 
BRANCH  19  20
ATOM     20  C   UNL     1      -0.490   0.256   7.160  0.00  0.00    -0.014 C 
BRANCH  20  21
ATOM     21  C   UNL     1       0.746   1.088   7.388  0.00  0.00    -0.022 A 
ATOM     22  C   UNL     1       1.006   2.357   6.991  0.00  0.00    +0.009 A 
ATOM     23  C   UNL     1       2.222   2.927   7.318  0.00  0.00    +0.008 A 
ATOM     24  C   UNL     1       3.119   2.199   8.026  0.00  0.00    +0.045 A 
ATOM     25  S   UNL     1       2.244   0.660   8.259  0.00  0.00    -0.103 S 
ENDBRANCH  20  21
BRANCH  20  26
ATOM     26  N   UNL     1      -0.800  -0.505   8.378  0.00  0.00    +0.382 N 
ATOM     27  C   UNL     1      -1.127   0.426   9.466  0.00  0.00    -0.096 C 
ATOM     28  C   UNL     1      -1.948  -1.386   8.126  0.00  0.00    -0.096 C 
ATOM     29  H   UNL     1       0.000  -1.061   8.640  0.00  0.00    -0.082 HD
ENDBRANCH  20  26
ENDBRANCH  19  20
ENDBRANCH   4  19
TORSDOF 6
