REMARK  Name = ZINC40687707
REMARK  5 active torsions:
REMARK  status: ('A' for Active; 'I' for Inactive)
REMARK    1  A    between atoms: C_9  and  S_11
REMARK    2  A    between atoms: S_11  and  C_12
REMARK    3  A    between atoms: C_13  and  N_25
REMARK    4  A    between atoms: C_14  and  N_18
REMARK    5  A    between atoms: N_18  and  C_19
REMARK                            x       y       z     vdW  Elec       q    Type
REMARK                         _______ _______ _______ _____ _____    ______ ____
ROOT
ATOM      1  C   UNL     1      -0.500  -2.863   0.431  0.00  0.00    +0.127 A 
ATOM      2  C   UNL     1      -0.881  -4.206   0.422  0.00  0.00    +0.098 A 
ATOM      3  C   UNL     1      -2.238  -4.507   0.550  0.00  0.00    +0.148 A 
ATOM      4  N   UNL     1      -3.111  -3.509   0.675  0.00  0.00    -0.219 NA
ATOM      5  C   UNL     1      -2.709  -2.254   0.678  0.00  0.00    +0.224 A 
ATOM      6  N   UNL     1      -1.438  -1.927   0.565  0.00  0.00    -0.227 NA
ENDROOT
BRANCH   2   7
ATOM      7  N   UNL     1       0.073  -5.226   0.288  0.00  0.00    -0.353 N 
ATOM      8  H   UNL     1       1.013  -5.002   0.200  0.00  0.00    +0.142 HD
ATOM      9  H   UNL     1      -0.206  -6.155   0.284  0.00  0.00    +0.142 HD
ENDBRANCH   2   7
BRANCH   3  10
ATOM     10  N   UNL     1      -2.672  -5.828   0.548  0.00  0.00    -0.298 N 
ATOM     11  H   UNL     1      -2.026  -6.551   0.532  0.00  0.00    +0.154 HD
BRANCH  10  12
ATOM     12  C   UNL     1      -4.036  -6.114   0.567  0.00  0.00    +0.035 A 
ATOM     13  C   UNL     1      -4.953  -5.264  -0.051  0.00  0.00    +0.041 A 
ATOM     14  C   UNL     1      -6.294  -5.582  -0.009  0.00  0.00    +0.084 A 
ATOM     15  N   UNL     1      -6.712  -6.673   0.605  0.00  0.00    -0.367 N 
ATOM     16  C   UNL     1      -5.875  -7.502   1.201  0.00  0.00    +0.084 A 
ATOM     17  C   UNL     1      -4.518  -7.259   1.199  0.00  0.00    +0.041 A 
ATOM     18  H   UNL     1      -7.662  -6.872   0.618  0.00  0.00    +0.165 HD
ENDBRANCH  10  12
ENDBRANCH   3  10
BRANCH   1  19
ATOM     19  S   UNL     1       1.197  -2.413   0.273  0.00  0.00    -0.066 S 
BRANCH  19  28
ATOM     20  C   UNL     1       1.634   1.277   1.838  0.00  0.00    +0.002 A 
ATOM     21  C   UNL     1       1.208   2.111   0.849  0.00  0.00    +0.010 A 
ATOM     22  C   UNL     1       0.756   1.579  -0.370  0.00  0.00    +0.001 A 
ATOM     23  C   UNL     1       0.309   2.415  -1.411  0.00  0.00    +0.011 A 
ATOM     24  C   UNL     1      -0.116   1.829  -2.570  0.00  0.00    +0.020 A 
ATOM     25  C   UNL     1      -0.098   0.442  -2.694  0.00  0.00    +0.111 A 
ATOM     26  N   UNL     1       0.319  -0.332  -1.722  0.00  0.00    -0.254 NA
ATOM     27  C   UNL     1       0.747   0.177  -0.564  0.00  0.00    +0.085 A 
ATOM     28  C   UNL     1       1.195  -0.663   0.480  0.00  0.00    +0.040 A 
ATOM     29  C   UNL     1       1.631  -0.103   1.662  0.00  0.00    +0.017 A 
ENDBRANCH  19  28
ENDBRANCH   1  19
TORSDOF 5
