REMARK  Name = ZINC16293763
REMARK  10 active torsions:
REMARK  status: ('A' for Active; 'I' for Inactive)
REMARK    1  A    between atoms: C_1  and  C_2
REMARK    2  A    between atoms: C_2  and  C_3
REMARK    3  A    between atoms: C_3  and  O_4
REMARK    4  A    between atoms: O_4  and  C_5
REMARK    5  A    between atoms: C_10  and  C_11
REMARK    6  A    between atoms: C_16  and  C_21
REMARK    7  A    between atoms: C_29  and  C_35
REMARK    8  A    between atoms: C_30  and  C_31
REMARK    9  A    between atoms: C_31  and  O_33
REMARK   10  A    between atoms: O_33  and  C_34
REMARK                            x       y       z     vdW  Elec       q    Type
REMARK                         _______ _______ _______ _____ _____    ______ ____
ROOT
ATOM      1  C   UNL     1      -0.082   5.350   0.031  0.00  0.00    +0.096 C 
ATOM      2  C   UNL     1      -0.791   5.827   1.273  0.00  0.00    +0.024 C 
ATOM      3  C   UNL     1      -2.064   6.271   1.213  0.00  0.00    +0.016 C 
ATOM      4  C   UNL     1      -2.784   6.738   2.454  0.00  0.00    +0.059 C 
ATOM      5  C   UNL     1      -1.776   7.337   3.438  0.00  0.00    +0.032 C 
ATOM      6  C   UNL     1      -0.727   6.271   3.769  0.00  0.00    +0.088 C 
ATOM      7  C   UNL     1      -0.090   5.798   2.491  0.00  0.00    +0.162 C 
ATOM      8  O   UNL     1       1.052   5.382   2.513  0.00  0.00    -0.292 OA
ATOM      9  N   UNL     1      -2.731   6.309   0.018  0.00  0.00    -0.321 N 
ATOM     10  C   UNL     1      -2.045   6.284  -1.164  0.00  0.00    +0.016 C 
ATOM     11  C   UNL     1      -0.777   5.839  -1.206  0.00  0.00    +0.065 C 
ATOM     12  C   UNL     1      -2.713   6.759  -2.428  0.00  0.00    +0.061 C 
ATOM     13  H   UNL     1      -3.830   6.360   0.003  0.00  0.00    +0.152 HD
ENDROOT
BRANCH   5  14
ATOM     14  C   UNL     1      -2.488   7.757   4.698  0.00  0.00    -0.043 A 
ATOM     15  C   UNL     1      -3.191   6.825   5.438  0.00  0.00    +0.007 A 
ATOM     16  C   UNL     1      -3.839   7.207   6.597  0.00  0.00    +0.038 A 
ATOM     17  C   UNL     1      -3.793   8.528   7.011  0.00  0.00    +0.123 A 
ATOM     18  C   UNL     1      -3.093   9.462   6.267  0.00  0.00    +0.038 A 
ATOM     19  C   UNL     1      -2.441   9.075   5.111  0.00  0.00    +0.007 A 
ATOM     20  F   UNL     1      -4.431   8.904   8.141  0.00  0.00    -0.205 F 
ENDBRANCH   5  14
BRANCH   1  26
ATOM     21  C   UNL     1       1.155   3.169   0.008  0.00  0.00    +0.125 A 
ATOM     22  C   UNL     1       1.174   1.782   0.000  0.00  0.00    +0.046 A 
ATOM     23  C   UNL     1      -0.013   1.076   0.008  0.00  0.00    +0.004 A 
ATOM     24  C   UNL     1      -1.220   1.750   0.017  0.00  0.00    +0.001 A 
ATOM     25  C   UNL     1      -1.242   3.132   0.030  0.00  0.00    +0.008 A 
ATOM     26  C   UNL     1      -0.057   3.844   0.022  0.00  0.00    +0.006 A 
BRANCH  21  27
ATOM     27  O   UNL     1       2.321   3.867   0.001  0.00  0.00    -0.492 OA
BRANCH  27  28
ATOM     28  C   UNL     1       3.531   3.107  -0.014  0.00  0.00    +0.229 C 
BRANCH  28  30
ATOM     29  C   UNL     1       6.026   3.243  -0.036  0.00  0.00    +0.007 C 
ATOM     30  C   UNL     1       4.731   4.057  -0.020  0.00  0.00    +0.038 C 
ENDBRANCH  28  30
ENDBRANCH  27  28
ENDBRANCH  21  27
ENDBRANCH   1  26
BRANCH  11  31
ATOM     31  C   UNL     1      -0.086   5.830  -2.440  0.00  0.00    +0.337 C 
ATOM     32  O   UNL     1      -0.639   6.223  -3.450  0.00  0.00    -0.245 OA
BRANCH  31  33
ATOM     33  O   UNL     1       1.187   5.385  -2.497  0.00  0.00    -0.465 OA
ATOM     34  C   UNL     1       1.824   5.404  -3.776  0.00  0.00    +0.280 C 
ENDBRANCH  31  33
ENDBRANCH  11  31
TORSDOF 7
