REMARK  Name = ZINC66120505
REMARK  7 active torsions:
REMARK  status: ('A' for Active; 'I' for Inactive)
REMARK    1  A    between atoms: C_1  and  N_2
REMARK    2  A    between atoms: N_2  and  C_3
REMARK    3  A    between atoms: C_5  and  C_10
REMARK    4  A    between atoms: C_10  and  N_11
REMARK    5  A    between atoms: C_18  and  C_21
REMARK    6  A    between atoms: C_21  and  C_22
REMARK    7  A    between atoms: C_22  and  C_23
REMARK                            x       y       z     vdW  Elec       q    Type
REMARK                         _______ _______ _______ _____ _____    ______ ____
ROOT
ATOM      1  N   UNL     1      -0.634  -4.152   2.739  0.00  0.00    -0.295 N 
ATOM      2  C   UNL     1      -1.710  -3.571   2.170  0.00  0.00    +0.302 C 
ATOM      3  O   UNL     1      -1.582  -2.924   1.149  0.00  0.00    -0.253 OA
ATOM      4  N   UNL     1      -2.926  -3.708   2.734  0.00  0.00    -0.285 N 
ATOM      5  C   UNL     1      -4.124  -3.182   2.066  0.00  0.00    +0.109 C 
ATOM      6  C   UNL     1      -4.873  -2.269   3.042  0.00  0.00    +0.019 C 
ATOM      7  C   UNL     1      -5.160  -3.038   4.334  0.00  0.00    +0.006 C 
ATOM      8  C   UNL     1      -3.840  -3.460   4.983  0.00  0.00    +0.007 C 
ATOM      9  C   UNL     1      -3.080  -4.390   4.026  0.00  0.00    +0.112 C 
ATOM     10  H   UNL     1      -0.723  -4.607   3.590  0.00  0.00    +0.151 HD
ENDROOT
BRANCH   1  11
ATOM     11  C   UNL     1       0.668  -4.095   2.070  0.00  0.00    +0.144 C 
BRANCH  11  16
ATOM     12  C   UNL     1      -0.409  -7.302   2.557  0.00  0.00    +0.130 C 
ATOM     13  N   UNL     1       0.919  -6.930   2.063  0.00  0.00    -0.323 N 
ATOM     14  C   UNL     1       1.336  -7.324   0.715  0.00  0.00    +0.130 C 
ATOM     15  C   UNL     1       1.783  -6.203   2.874  0.00  0.00    +0.103 A 
ATOM     16  C   UNL     1       1.694  -4.815   2.907  0.00  0.00    +0.008 A 
ATOM     17  C   UNL     1       2.560  -4.104   3.718  0.00  0.00    +0.010 A 
ATOM     18  C   UNL     1       3.490  -4.808   4.471  0.00  0.00    +0.018 A 
ATOM     19  C   UNL     1       3.523  -6.186   4.390  0.00  0.00    +0.084 A 
ATOM     20  N   UNL     1       2.680  -6.838   3.612  0.00  0.00    -0.349 N 
ATOM     21  H   UNL     1       2.722  -7.807   3.576  0.00  0.00    +0.167 HD
ENDBRANCH  11  16
ENDBRANCH   1  11
BRANCH   8  22
ATOM     22  C   UNL     1      -4.128  -4.199   6.291  0.00  0.00    +0.014 C 
BRANCH  22  23
ATOM     23  C   UNL     1      -2.808  -4.510   7.001  0.00  0.00    +0.096 C 
BRANCH  23  24
ATOM     24  C   UNL     1      -3.091  -5.238   8.290  0.00  0.00    +0.210 C 
ATOM     25  O   UNL     1      -4.236  -5.484   8.609  0.00  0.00    -0.276 OA
ATOM     26  N   UNL     1      -2.073  -5.617   9.088  0.00  0.00    -0.329 N 
ATOM     27  H   UNL     1      -1.158  -5.420   8.833  0.00  0.00    +0.145 HD
ATOM     28  H   UNL     1      -2.256  -6.085   9.918  0.00  0.00    +0.145 HD
ENDBRANCH  23  24
ENDBRANCH  22  23
ENDBRANCH   8  22
TORSDOF 5
