REMARK  Name = ZINC19809383
REMARK  8 active torsions:
REMARK  status: ('A' for Active; 'I' for Inactive)
REMARK    1  A    between atoms: C_5  and  C_7
REMARK    2  A    between atoms: C_7  and  N_8
REMARK    3  A    between atoms: N_11  and  C_14
REMARK    4  A    between atoms: C_14  and  C_15
REMARK    5  A    between atoms: N_17  and  N_18
REMARK    6  A    between atoms: C_19  and  C_20
REMARK    7  A    between atoms: C_23  and  O_27
REMARK    8  A    between atoms: C_24  and  O_26
REMARK                            x       y       z     vdW  Elec       q    Type
REMARK                         _______ _______ _______ _____ _____    ______ ____
ROOT
ATOM      1  C   UNL     1       0.307  -8.214  -2.534  0.00  0.00    +0.020 C 
ENDROOT
BRANCH   1   5
ATOM      2  N   UNL     1      -0.809 -10.413  -5.963  0.00  0.00    -0.302 NA
ATOM      3  C   UNL     1       0.451 -10.769  -5.297  0.00  0.00    +0.066 C 
ATOM      4  C   UNL     1       0.436 -10.234  -3.863  0.00  0.00    -0.063 C 
ATOM      5  N   UNL     1       0.251  -8.776  -3.890  0.00  0.00    +0.387 N 
ATOM      6  C   UNL     1      -1.009  -8.420  -4.556  0.00  0.00    -0.063 C 
ATOM      7  C   UNL     1      -0.994  -8.956  -5.990  0.00  0.00    +0.066 C 
ATOM      8  H   UNL     1       1.077  -8.339  -4.470  0.00  0.00    -0.081 HD
BRANCH   2   9
ATOM      9  C   UNL     1      -0.865 -10.976  -7.319  0.00  0.00    +0.120 C 
BRANCH   9  14
ATOM     10  C   UNL     1      -3.207  -9.117  -9.624  0.00  0.00    +0.000 A 
ATOM     11  C   UNL     1      -4.431  -9.651  -9.264  0.00  0.00    +0.001 A 
ATOM     12  C   UNL     1      -4.501 -10.614  -8.276  0.00  0.00    +0.020 A 
ATOM     13  C   UNL     1      -3.346 -11.043  -7.646  0.00  0.00    +0.045 A 
ATOM     14  C   UNL     1      -2.123 -10.509  -8.006  0.00  0.00    -0.015 A 
ATOM     15  C   UNL     1      -2.054  -9.542  -8.991  0.00  0.00    +0.006 A 
ATOM     16 CL   UNL     1      -3.434 -12.253  -6.403  0.00  0.00    -0.083 Cl
ENDBRANCH   9  14
ENDBRANCH   2   9
ENDBRANCH   1   5
BRANCH   1  17
ATOM     17  C   UNL     1       0.360  -6.710  -2.615  0.00  0.00    +0.216 C 
ATOM     18  O   UNL     1       0.353  -6.160  -3.697  0.00  0.00    -0.276 OA
ATOM     19  N   UNL     1       0.417  -5.975  -1.487  0.00  0.00    -0.209 N 
ATOM     20  H   UNL     1       0.423  -6.473  -0.506  0.00  0.00    +0.177 HD
BRANCH  19  21
ATOM     21  N   UNL     1       0.467  -4.577  -1.563  0.00  0.00    -0.188 NA
ATOM     22  C   UNL     1       0.521  -3.870  -0.476  0.00  0.00    +0.138 C 
BRANCH  22  23
ATOM     23  C   UNL     1       0.574  -2.399  -0.556  0.00  0.00    -0.002 A 
ATOM     24  C   UNL     1       0.565  -1.764  -1.800  0.00  0.00    +0.013 A 
ATOM     25  C   UNL     1       0.608  -0.388  -1.873  0.00  0.00    +0.050 A 
ATOM     26  C   UNL     1       0.671   0.370  -0.712  0.00  0.00    +0.158 A 
ATOM     27  C   UNL     1       0.680  -0.256   0.532  0.00  0.00    +0.159 A 
ATOM     28  C   UNL     1       0.632  -1.635   0.613  0.00  0.00    +0.058 A 
BRANCH  27  29
ATOM     29  O   UNL     1       0.738   0.490   1.668  0.00  0.00    -0.503 OA
ATOM     30  H   UNL     1       0.745  -0.004   2.651  0.00  0.00    +0.292 HD
ENDBRANCH  27  29
BRANCH  26  31
ATOM     31  O   UNL     1       0.720   1.726  -0.789  0.00  0.00    -0.503 OA
ATOM     32  H   UNL     1       0.770   2.328   0.130  0.00  0.00    +0.292 HD
ENDBRANCH  26  31
ENDBRANCH  22  23
ENDBRANCH  19  21
ENDBRANCH   1  17
TORSDOF 8
