REMARK  Name = ZINC35069339
REMARK  14 active torsions:
REMARK  status: ('A' for Active; 'I' for Inactive)
REMARK    1  A    between atoms: C_1  and  C_2
REMARK    2  A    between atoms: C_2  and  C_3
REMARK    3  A    between atoms: C_3  and  C_5
REMARK    4  A    between atoms: C_3  and  N_24
REMARK    5  A    between atoms: N_15  and  C_16
REMARK    6  A    between atoms: C_19  and  C_23
REMARK    7  A    between atoms: C_20  and  C_22
REMARK    8  A    between atoms: N_24  and  C_25
REMARK    9  A    between atoms: C_25  and  C_26
REMARK   10  A    between atoms: C_26  and  N_27
REMARK   11  A    between atoms: N_27  and  C_28
REMARK   12  A    between atoms: N_27  and  C_29
REMARK   13  A    between atoms: N_32  and  C_33
REMARK   14  A    between atoms: C_37  and  C_39
REMARK                            x       y       z     vdW  Elec       q    Type
REMARK                         _______ _______ _______ _____ _____    ______ ____
ROOT
ATOM      1  C   UNL     1       0.985  -0.325  -1.027  0.00  0.00    +0.144 C 
ENDROOT
BRANCH   1   2
ATOM      2  C   UNL     1       1.043  -1.829  -1.087  0.00  0.00    +0.138 A 
ATOM      3  N   UNL     1       0.889  -2.496   0.017  0.00  0.00    -0.231 NA
ATOM      4  C   UNL     1       0.929  -3.852   0.040  0.00  0.00    +0.078 A 
ATOM      5  C   UNL     1       0.763  -4.569   1.226  0.00  0.00    +0.028 A 
ATOM      6  C   UNL     1       0.811  -5.945   1.204  0.00  0.00    +0.002 A 
ATOM      7  C   UNL     1       1.023  -6.630   0.015  0.00  0.00    +0.001 A 
ATOM      8  C   UNL     1       1.190  -5.945  -1.169  0.00  0.00    +0.015 A 
ATOM      9  C   UNL     1       1.144  -4.552  -1.168  0.00  0.00    +0.065 A 
ATOM     10  C   UNL     1       1.315  -3.768  -2.400  0.00  0.00    +0.266 A 
ATOM     11  O   UNL     1       1.504  -4.310  -3.473  0.00  0.00    -0.267 OA
ATOM     12  N   UNL     1       1.249  -2.420  -2.295  0.00  0.00    -0.263 N 
BRANCH  12  13
ATOM     13  C   UNL     1       1.400  -1.627  -3.439  0.00  0.00    +0.051 A 
ATOM     14  C   UNL     1       2.636  -1.538  -4.066  0.00  0.00    +0.026 A 
ATOM     15  C   UNL     1       2.781  -0.755  -5.194  0.00  0.00    +0.005 A 
ATOM     16  C   UNL     1       1.698  -0.060  -5.700  0.00  0.00    -0.047 A 
ATOM     17  C   UNL     1       0.466  -0.145  -5.077  0.00  0.00    -0.046 A 
ATOM     18  C   UNL     1       0.313  -0.931  -3.951  0.00  0.00    +0.030 A 
ATOM     19  C   UNL     1      -0.711   0.615  -5.630  0.00  0.00    +0.044 C 
ATOM     20  C   UNL     1       1.860   0.794  -6.931  0.00  0.00    +0.044 C 
ENDBRANCH  12  13
ENDBRANCH   1   2
BRANCH   1  21
ATOM     21  N   UNL     1       2.341   0.221  -1.118  0.00  0.00    -0.277 N 
ATOM     22  C   UNL     1       2.639   1.135  -2.063  0.00  0.00    +0.307 C 
ATOM     23  O   UNL     1       1.781   1.506  -2.840  0.00  0.00    -0.252 OA
ATOM     24  N   UNL     1       3.887   1.636  -2.147  0.00  0.00    -0.269 N 
ATOM     25  H   UNL     1       4.591   1.280  -1.583  0.00  0.00    +0.156 HD
BRANCH  24  26
ATOM     26  C   UNL     1       4.166   2.671  -3.046  0.00  0.00    +0.036 A 
ATOM     27  C   UNL     1       3.202   3.635  -3.318  0.00  0.00    +0.023 A 
ATOM     28  C   UNL     1       3.473   4.659  -4.206  0.00  0.00    +0.003 A 
ATOM     29  C   UNL     1       4.702   4.732  -4.829  0.00  0.00    +0.019 A 
ATOM     30  C   UNL     1       5.678   3.769  -4.563  0.00  0.00    +0.054 A 
ATOM     31  C   UNL     1       5.406   2.738  -3.662  0.00  0.00    +0.042 A 
BRANCH  30  32
ATOM     32  C   UNL     1       6.954   3.842  -5.208  0.00  0.00    +0.099 C 
ATOM     33  N   UNL     1       7.967   3.900  -5.719  0.00  0.00    -0.191 NA
ENDBRANCH  30  32
ENDBRANCH  24  26
BRANCH  21  34
ATOM     34  C   UNL     1       3.375  -0.228  -0.182  0.00  0.00    +0.091 C 
BRANCH  34  35
ATOM     35  C   UNL     1       4.195  -1.348  -0.825  0.00  0.00    -0.060 C 
BRANCH  35  36
ATOM     36  N   UNL     1       5.147  -1.883   0.157  0.00  0.00    +0.377 N 
ATOM     37  C   UNL     1       5.850  -3.037  -0.421  0.00  0.00    -0.097 C 
ATOM     38  C   UNL     1       6.122  -0.843   0.511  0.00  0.00    -0.097 C 
ATOM     39  H   UNL     1       4.650  -2.173   0.985  0.00  0.00    -0.083 HD
ENDBRANCH  35  36
ENDBRANCH  34  35
ENDBRANCH  21  34
ENDBRANCH   1  21
BRANCH   1  41
ATOM     40  C   UNL     1       0.199   1.632   0.314  0.00  0.00    +0.006 C 
ATOM     41  C   UNL     1       0.348   0.109   0.295  0.00  0.00    +0.027 C 
ENDBRANCH   1  41
TORSDOF 9
