REMARK  Name = ZINC09365481
REMARK  5 active torsions:
REMARK  status: ('A' for Active; 'I' for Inactive)
REMARK    1  A    between atoms: C_1  and  C_2
REMARK    2  A    between atoms: C_5  and  N_9
REMARK    3  A    between atoms: C_10  and  C_12
REMARK    4  A    between atoms: C_12  and  N_41
REMARK    5  A    between atoms: C_17  and  C_19
REMARK                            x       y       z     vdW  Elec       q    Type
REMARK                         _______ _______ _______ _____ _____    ______ ____
ROOT
ATOM      1  N   UNL     1      -1.588   2.486   2.704  0.00  0.00    -0.285 N 
ATOM      2  C   UNL     1      -1.879   1.729   1.628  0.00  0.00    +0.201 C 
ATOM      3  O   UNL     1      -3.035   1.551   1.306  0.00  0.00    -0.278 OA
ATOM      4  H   UNL     1      -0.667   2.585   2.992  0.00  0.00    +0.155 HD
ENDROOT
BRANCH   1   9
ATOM      5  C   UNL     1      -5.750   5.088   5.552  0.00  0.00    +0.044 C 
ATOM      6  C   UNL     1      -4.645   4.397   4.796  0.00  0.00    -0.048 A 
ATOM      7  C   UNL     1      -3.649   3.730   5.486  0.00  0.00    +0.020 A 
ATOM      8  C   UNL     1      -2.634   3.095   4.795  0.00  0.00    +0.040 A 
ATOM      9  C   UNL     1      -2.615   3.127   3.407  0.00  0.00    +0.062 A 
ATOM     10  C   UNL     1      -3.614   3.803   2.717  0.00  0.00    +0.040 A 
ATOM     11  C   UNL     1      -4.629   4.430   3.413  0.00  0.00    +0.020 A 
ATOM     12 BR   UNL     1      -3.588   3.857   0.827  0.00  0.00    -0.048 Br
ATOM     13 BR   UNL     1      -1.273   2.184   5.740  0.00  0.00    -0.048 Br
ENDBRANCH   1   9
BRANCH   2  14
ATOM     14  C   UNL     1      -0.768   1.103   0.824  0.00  0.00    +0.020 C 
BRANCH  14  20
ATOM     15  C   UNL     1      -2.203  -0.762   0.255  0.00  0.00    -0.077 C 
ATOM     16  C   UNL     1      -2.666  -1.656  -0.897  0.00  0.00    -0.019 C 
ATOM     17  C   UNL     1      -3.434  -0.811  -1.917  0.00  0.00    -0.003 C 
ATOM     18  C   UNL     1      -2.531   0.324  -2.411  0.00  0.00    -0.006 C 
ATOM     19  C   UNL     1      -2.072   1.161  -1.214  0.00  0.00    +0.020 C 
ATOM     20  N   UNL     1      -1.319   0.294  -0.283  0.00  0.00    +0.393 N 
ATOM     21  H   UNL     1      -0.544  -0.147  -0.791  0.00  0.00    -0.080 HD
BRANCH  19  22
ATOM     22  C   UNL     1      -1.168   2.267  -1.694  0.00  0.00    +0.197 C 
ATOM     23  O   UNL     1       0.030   2.087  -1.754  0.00  0.00    -0.278 OA
ATOM     24  N   UNL     1      -1.690   3.456  -2.054  0.00  0.00    -0.331 N 
ATOM     25  H   UNL     1      -2.648   3.600  -2.005  0.00  0.00    +0.145 HD
ATOM     26  H   UNL     1      -1.108   4.168  -2.362  0.00  0.00    +0.145 HD
ENDBRANCH  19  22
ENDBRANCH  14  20
ENDBRANCH   2  14
TORSDOF 4
