REMARK  Name = ZINC42398711
REMARK  9 active torsions:
REMARK  status: ('A' for Active; 'I' for Inactive)
REMARK    1  A    between atoms: C_1  and  N_2
REMARK    2  A    between atoms: N_2  and  C_3
REMARK    3  A    between atoms: N_2  and  C_10
REMARK    4  A    between atoms: C_3  and  C_4
REMARK    5  A    between atoms: C_10  and  C_12
REMARK    6  A    between atoms: C_10  and  C_14
REMARK    7  A    between atoms: C_12  and  N_13
REMARK    8  A    between atoms: C_17  and  S_20
REMARK    9  A    between atoms: S_20  and  C_21
REMARK                            x       y       z     vdW  Elec       q    Type
REMARK                         _______ _______ _______ _____ _____    ______ ____
ROOT
ATOM      1  C   UNL     1      -1.195  -0.947  -0.392  0.00  0.00    +0.069 C 
ENDROOT
BRANCH   1   2
ATOM      2  C   UNL     1      -1.641  -0.532  -1.770  0.00  0.00    -0.032 A 
ATOM      3  C   UNL     1      -1.377   0.748  -2.224  0.00  0.00    +0.006 A 
ATOM      4  C   UNL     1      -1.785   1.132  -3.486  0.00  0.00    +0.015 A 
ATOM      5  C   UNL     1      -2.461   0.231  -4.300  0.00  0.00    +0.008 A 
ATOM      6  C   UNL     1      -2.724  -1.054  -3.841  0.00  0.00    +0.015 A 
ATOM      7  C   UNL     1      -2.308  -1.433  -2.580  0.00  0.00    +0.006 A 
BRANCH   5   8
ATOM      8  S   UNL     1      -2.984   0.717  -5.911  0.00  0.00    -0.129 S 
ATOM      9  C   UNL     1      -3.801  -0.761  -6.572  0.00  0.00    +0.090 C 
ENDBRANCH   5   8
ENDBRANCH   1   2
BRANCH   1  11
ATOM     10  C   UNL     1      -0.748   1.189   0.657  0.00  0.00    +0.105 C 
ATOM     11  N   UNL     1      -0.154  -0.026   0.084  0.00  0.00    -0.296 NA
BRANCH  11  12
ATOM     12  C   UNL     1       0.731  -0.687   1.053  0.00  0.00    +0.127 C 
BRANCH  12  13
ATOM     13  C   UNL     1       2.042   0.052   1.122  0.00  0.00    +0.005 A 
ATOM     14  C   UNL     1       2.402   1.078   1.932  0.00  0.00    +0.027 A 
ATOM     15  C   UNL     1       3.674   1.608   1.818  0.00  0.00    +0.025 A 
ATOM     16  C   UNL     1       4.524   1.085   0.899  0.00  0.00    +0.060 A 
ATOM     17  S   UNL     1       3.527  -0.200   0.164  0.00  0.00    -0.099 S 
ATOM     18 BR   UNL     1       4.221   3.039   2.926  0.00  0.00    -0.050 Br
ENDBRANCH  12  13
ENDBRANCH  11  12
ENDBRANCH   1  11
BRANCH   1  19
ATOM     19  C   UNL     1      -2.388  -0.906   0.565  0.00  0.00    -0.063 C 
BRANCH  19  20
ATOM     20  N   UNL     1      -1.948  -1.289   1.913  0.00  0.00    +0.379 N 
ATOM     21  H   UNL     1      -1.432  -2.155   1.865  0.00  0.00    -0.090 HD
ATOM     22  H   UNL     1      -1.356  -0.565   2.292  0.00  0.00    -0.090 HD
ATOM     23  H   UNL     1      -2.754  -1.410   2.508  0.00  0.00    -0.090 HD
ENDBRANCH  19  20
ENDBRANCH   1  19
TORSDOF 7
