REMARK  Name = ZINC04937147
REMARK  14 active torsions:
REMARK  status: ('A' for Active; 'I' for Inactive)
REMARK    1  A    between atoms: C_1  and  C_2
REMARK    2  A    between atoms: C_4  and  C_26
REMARK    3  A    between atoms: C_7  and  C_24
REMARK    4  A    between atoms: N_11  and  C_12
REMARK    5  A    between atoms: C_12  and  C_13
REMARK    6  A    between atoms: C_13  and  C_14
REMARK    7  A    between atoms: C_14  and  N_15
REMARK    8  A    between atoms: N_15  and  C_16
REMARK    9  A    between atoms: C_16  and  N_18
REMARK   10  A    between atoms: N_18  and  C_19
REMARK   11  A    between atoms: C_19  and  C_20
REMARK   12  A    between atoms: C_20  and  C_21
REMARK   13  A    between atoms: C_21  and  O_22
REMARK   14  A    between atoms: O_22  and  C_23
REMARK                            x       y       z     vdW  Elec       q    Type
REMARK                         _______ _______ _______ _____ _____    ______ ____
ROOT
ATOM      1  C   UNL     1       2.466   1.028  -0.015  0.00  0.00    +0.044 C 
ATOM      2  C   UNL     1       1.156   1.774   0.001  0.00  0.00    -0.048 A 
ATOM      3  C   UNL     1       1.161   3.167   0.007  0.00  0.00    +0.007 A 
ATOM      4  C   UNL     1      -0.006   3.869   0.022  0.00  0.00    -0.041 A 
ATOM      5  C   UNL     1      -1.231   3.181   0.030  0.00  0.00    +0.003 A 
ATOM      6  C   UNL     1      -2.454   3.875   0.045  0.00  0.00    +0.032 A 
ATOM      7  C   UNL     1      -3.627   3.133   0.053  0.00  0.00    +0.090 A 
ATOM      8  C   UNL     1      -3.554   1.720   0.045  0.00  0.00    +0.114 A 
ATOM      9  C   UNL     1      -1.238   1.764   0.018  0.00  0.00    +0.048 A 
ATOM     10  C   UNL     1      -0.013   1.076   0.008  0.00  0.00    +0.029 A 
ATOM     11  N   UNL     1      -4.724   0.981   0.053  0.00  0.00    -0.329 N 
ATOM     12  C   UNL     1       0.017   5.376   0.029  0.00  0.00    +0.044 C 
ATOM     13  H   UNL     1      -5.582   1.432   0.063  0.00  0.00    +0.147 HD
ATOM     14  N   UNL     1      -2.397   1.015   0.030  0.00  0.00    -0.342 N 
ATOM     15  H   UNL     1      -2.383  -0.011   0.028  0.00  0.00    +0.167 HD
ENDROOT
BRANCH   7  16
ATOM     16  C   UNL     1      -4.898   3.792   0.068  0.00  0.00    +0.103 C 
ATOM     17  N   UNL     1      -5.907   4.314   0.081  0.00  0.00    -0.191 NA
ENDBRANCH   7  16
BRANCH  11  18
ATOM     18  C   UNL     1      -4.665  -0.483   0.045  0.00  0.00    +0.104 C 
BRANCH  18  19
ATOM     19  C   UNL     1      -6.087  -1.050   0.056  0.00  0.00    +0.037 C 
BRANCH  19  20
ATOM     20  C   UNL     1      -6.026  -2.578   0.047  0.00  0.00    +0.105 C 
BRANCH  20  21
ATOM     21  N   UNL     1      -7.386  -3.121   0.057  0.00  0.00    -0.327 N 
ATOM     22  H   UNL     1      -8.148  -2.521   0.068  0.00  0.00    +0.148 HD
BRANCH  21  23
ATOM     23  C   UNL     1      -7.580  -4.455   0.052  0.00  0.00    +0.130 C 
ATOM     24  S   UNL     1      -6.235  -5.515   0.034  0.00  0.00    -0.019 S 
BRANCH  23  25
ATOM     25  N   UNL     1      -8.832  -4.955   0.062  0.00  0.00    -0.327 N 
ATOM     26  H   UNL     1      -9.593  -4.354   0.072  0.00  0.00    +0.148 HD
BRANCH  25  27
ATOM     27  C   UNL     1      -9.042  -6.404   0.057  0.00  0.00    +0.105 C 
BRANCH  27  28
ATOM     28  C   UNL     1     -10.542  -6.702   0.070  0.00  0.00    +0.047 C 
BRANCH  28  29
ATOM     29  C   UNL     1     -10.762  -8.216   0.064  0.00  0.00    +0.161 C 
BRANCH  29  30
ATOM     30  O   UNL     1     -12.164  -8.494   0.076  0.00  0.00    -0.383 OA
ATOM     31  C   UNL     1     -12.480  -9.888   0.072  0.00  0.00    +0.193 C 
ENDBRANCH  29  30
ENDBRANCH  28  29
ENDBRANCH  27  28
ENDBRANCH  25  27
ENDBRANCH  23  25
ENDBRANCH  21  23
ENDBRANCH  20  21
ENDBRANCH  19  20
ENDBRANCH  18  19
ENDBRANCH  11  18
TORSDOF 11
