REMARK  Name = ZINC43252267
REMARK  8 active torsions:
REMARK  status: ('A' for Active; 'I' for Inactive)
REMARK    1  A    between atoms: C_1  and  C_2
REMARK    2  A    between atoms: C_2  and  C_3
REMARK    3  A    between atoms: C_3  and  C_5
REMARK    4  A    between atoms: C_3  and  N_21
REMARK    5  A    between atoms: C_5  and  C_7
REMARK    6  A    between atoms: C_5  and  N_13
REMARK    7  A    between atoms: C_16  and  C_19
REMARK    8  A    between atoms: C_19  and  O_20
REMARK                            x       y       z     vdW  Elec       q    Type
REMARK                         _______ _______ _______ _____ _____    ______ ____
ROOT
ATOM      1  C   UNL     1       0.872  -2.034   1.171  0.00  0.00    +0.079 C 
ENDROOT
BRANCH   1   2
ATOM      2  C   UNL     1       1.266  -2.808   2.402  0.00  0.00    +0.007 A 
ATOM      3  C   UNL     1       0.488  -3.236   3.426  0.00  0.00    +0.014 A 
ATOM      4  C   UNL     1       1.073  -3.938   4.465  0.00  0.00    +0.028 A 
ATOM      5  C   UNL     1       2.408  -4.177   4.426  0.00  0.00    +0.078 A 
ATOM      6  S   UNL     1       2.877  -3.406   2.886  0.00  0.00    -0.080 S 
ATOM      7 CL   UNL     1       3.400  -5.021   5.574  0.00  0.00    -0.076 Cl
ENDBRANCH   1   2
BRANCH   1   8
ATOM      8  N   UNL     1       1.418  -2.697  -0.021  0.00  0.00    -0.296 NA
ATOM      9  C   UNL     1       2.885  -2.621  -0.039  0.00  0.00    +0.085 C 
ATOM     10  C   UNL     1       3.410  -3.190  -1.359  0.00  0.00    +0.021 C 
ATOM     11  C   UNL     1       2.954  -4.646  -1.499  0.00  0.00    +0.017 C 
ATOM     12  C   UNL     1       1.425  -4.702  -1.427  0.00  0.00    +0.021 C 
ATOM     13  C   UNL     1       0.958  -4.089  -0.105  0.00  0.00    +0.085 C 
BRANCH  11  14
ATOM     14  C   UNL     1       3.424  -5.202  -2.844  0.00  0.00    +0.159 C 
BRANCH  14  15
ATOM     15  O   UNL     1       3.100  -6.591  -2.924  0.00  0.00    -0.395 OA
ATOM     16  H   UNL     1       3.370  -7.011  -3.753  0.00  0.00    +0.209 HD
ENDBRANCH  14  15
ENDBRANCH  11  14
ENDBRANCH   1   8
BRANCH   1  17
ATOM     17  C   UNL     1       1.428  -0.612   1.263  0.00  0.00    -0.053 C 
BRANCH  17  18
ATOM     18  N   UNL     1       0.882   0.052   2.454  0.00  0.00    +0.381 N 
ATOM     19  H   UNL     1      -0.124   0.088   2.387  0.00  0.00    -0.090 HD
ATOM     20  H   UNL     1       1.146  -0.467   3.279  0.00  0.00    -0.090 HD
ATOM     21  H   UNL     1       1.249   0.990   2.515  0.00  0.00    -0.090 HD
ENDBRANCH  17  18
BRANCH  17  23
ATOM     22  C   UNL     1       1.687   1.555   0.046  0.00  0.00    +0.002 C 
ATOM     23  C   UNL     1       1.028   0.175   0.013  0.00  0.00    -0.018 C 
ENDBRANCH  17  23
ENDBRANCH   1  17
TORSDOF 7
