REMARK  Name = ZINC13494505
REMARK  12 active torsions:
REMARK  status: ('A' for Active; 'I' for Inactive)
REMARK    1  A    between atoms: C_1  and  C_2
REMARK    2  A    between atoms: C_2  and  C_3
REMARK    3  A    between atoms: C_3  and  C_5
REMARK    4  A    between atoms: C_3  and  N_14
REMARK    5  A    between atoms: N_9  and  C_10
REMARK    6  A    between atoms: C_10  and  C_11
REMARK    7  A    between atoms: C_10  and  C_12
REMARK    8  A    between atoms: C_10  and  C_13
REMARK    9  A    between atoms: N_14  and  C_15
REMARK   10  A    between atoms: N_14  and  C_31
REMARK   11  A    between atoms: C_15  and  C_16
REMARK   12  A    between atoms: C_31  and  C_32
REMARK                            x       y       z     vdW  Elec       q    Type
REMARK                         _______ _______ _______ _____ _____    ______ ____
ROOT
ATOM      1  N   UNL     1      -2.152   0.054  -1.002  0.00  0.00    -0.286 NA
ENDROOT
BRANCH   1   2
ATOM      2  C   UNL     1      -1.870  -0.601   0.283  0.00  0.00    +0.127 C 
BRANCH   2   3
ATOM      3  C   UNL     1      -0.550  -0.108   0.818  0.00  0.00    +0.169 A 
ATOM      4  N   UNL     1      -0.151   1.138   0.890  0.00  0.00    -0.112 NA
ATOM      5  N   UNL     1       1.030   1.148   1.406  0.00  0.00    -0.023 NA
ATOM      6  N   UNL     1       1.394  -0.059   1.664  0.00  0.00    -0.043 NA
ATOM      7  N   UNL     1       0.445  -0.862   1.322  0.00  0.00    -0.222 N 
BRANCH   7   8
ATOM      8  C   UNL     1       0.450  -2.322   1.452  0.00  0.00    +0.059 C 
ATOM      9  C   UNL     1       0.423  -2.958   0.061  0.00  0.00    +0.036 C 
ATOM     10  C   UNL     1       1.715  -2.763   2.191  0.00  0.00    +0.036 C 
ATOM     11  C   UNL     1      -0.783  -2.768   2.241  0.00  0.00    +0.036 C 
ENDBRANCH   7   8
ENDBRANCH   2   3
BRANCH   2  13
ATOM     12  C   UNL     1      -4.306  -0.848   0.779  0.00  0.00    +0.006 C 
ATOM     13  C   UNL     1      -2.981  -0.268   1.280  0.00  0.00    +0.023 C 
ENDBRANCH   2  13
ENDBRANCH   1   2
BRANCH   1  14
ATOM     14  C   UNL     1      -2.013   1.512  -0.891  0.00  0.00    +0.125 C 
BRANCH  14  15
ATOM     15  C   UNL     1      -2.698   2.172  -2.060  0.00  0.00    +0.031 A 
ATOM     16  C   UNL     1      -3.988   2.578  -1.946  0.00  0.00    +0.020 A 
ATOM     17  C   UNL     1      -4.625   3.215  -3.098  0.00  0.00    +0.003 A 
ATOM     18  C   UNL     1      -5.954   3.652  -3.039  0.00  0.00    +0.059 A 
ATOM     19  C   UNL     1      -6.527   4.247  -4.140  0.00  0.00    +0.167 A 
ATOM     20  C   UNL     1      -5.786   4.418  -5.316  0.00  0.00    +0.168 A 
ATOM     21  C   UNL     1      -4.473   3.990  -5.384  0.00  0.00    +0.075 A 
ATOM     22  C   UNL     1      -3.881   3.386  -4.282  0.00  0.00    +0.053 A 
ATOM     23  N   UNL     1      -2.571   2.952  -4.331  0.00  0.00    -0.322 N 
ATOM     24  H   UNL     1      -2.059   3.071  -5.146  0.00  0.00    +0.169 HD
ATOM     25  C   UNL     1      -1.994   2.372  -3.265  0.00  0.00    +0.254 A 
ATOM     26  O   UNL     1      -0.835   2.004  -3.344  0.00  0.00    -0.268 OA
ATOM     27  O   UNL     1      -6.580   5.027  -6.244  0.00  0.00    -0.453 OA
ATOM     28  C   UNL     1      -7.928   4.856  -5.769  0.00  0.00    +0.466 C 
ATOM     29  O   UNL     1      -7.781   4.752  -4.341  0.00  0.00    -0.453 OA
ENDBRANCH  14  15
ENDBRANCH   1  14
BRANCH   1  30
ATOM     30  C   UNL     1      -1.289  -0.478  -2.065  0.00  0.00    +0.117 C 
BRANCH  30  31
ATOM     31  C   UNL     1      -1.792  -1.859  -2.487  0.00  0.00    +0.132 C 
ATOM     32  C   UNL     1      -0.849  -2.458  -3.552  0.00  0.00    +0.035 C 
ATOM     33  C   UNL     1      -1.844  -3.148  -4.525  0.00  0.00    +0.031 C 
ATOM     34  C   UNL     1      -3.051  -2.180  -4.445  0.00  0.00    +0.160 C 
ATOM     35  O   UNL     1      -3.093  -1.743  -3.076  0.00  0.00    -0.375 OA
ENDBRANCH  30  31
ENDBRANCH   1  30
TORSDOF 8
