REMARK  Name = ZINC52988374
REMARK  4 active torsions:
REMARK  status: ('A' for Active; 'I' for Inactive)
REMARK    1  A    between atoms: C_1  and  C_2
REMARK    2  A    between atoms: C_12  and  C_14
REMARK    3  A    between atoms: C_14  and  N_15
REMARK    4  A    between atoms: C_21  and  C_24
REMARK                            x       y       z     vdW  Elec       q    Type
REMARK                         _______ _______ _______ _____ _____    ______ ____
ROOT
ATOM      1  N   UNL     1       3.247   0.907   3.511  0.00  0.00    -0.215 N 
ATOM      2  C   UNL     1       4.451   1.325   3.069  0.00  0.00    +0.247 C 
ATOM      3  O   UNL     1       5.087   0.877   2.139  0.00  0.00    -0.273 OA
ATOM      4  C   UNL     1       4.839   2.468   3.978  0.00  0.00    +0.113 C 
ATOM      5  C   UNL     1       4.996   3.755   3.175  0.00  0.00    +0.035 C 
ATOM      6  C   UNL     1       6.149   3.599   2.180  0.00  0.00    +0.006 C 
ATOM      7  C   UNL     1       7.440   3.293   2.941  0.00  0.00    -0.014 C 
ATOM      8  C   UNL     1       7.276   1.989   3.725  0.00  0.00    +0.006 C 
ATOM      9  C   UNL     1       6.127   2.139   4.726  0.00  0.00    +0.035 C 
ATOM     10  C   UNL     1       8.595   3.147   1.948  0.00  0.00    +0.007 C 
ATOM     11  N   UNL     1       3.713   2.579   4.914  0.00  0.00    -0.285 N 
ATOM     12  C   UNL     1       2.829   1.628   4.559  0.00  0.00    +0.310 C 
ATOM     13  O   UNL     1       1.771   1.442   5.128  0.00  0.00    -0.252 OA
ATOM     14  H   UNL     1       3.623   3.214   5.641  0.00  0.00    +0.151 HD
ENDROOT
BRANCH   1  15
ATOM     15  C   UNL     1       2.488  -0.196   2.915  0.00  0.00    +0.213 C 
BRANCH  15  26
ATOM     16  C   UNL     1      -0.027   1.527   0.018  0.00  0.00    +0.033 C 
ATOM     17  C   UNL     1      -0.002  -0.003   0.006  0.00  0.00    +0.104 C 
ATOM     18  C   UNL     1      -1.422  -0.544   0.164  0.00  0.00    -0.017 A 
ATOM     19  C   UNL     1      -2.506  -0.072  -0.575  0.00  0.00    +0.013 A 
ATOM     20  C   UNL     1      -3.736  -0.602  -0.384  0.00  0.00    +0.046 A 
ATOM     21  S   UNL     1      -3.419  -1.824   0.880  0.00  0.00    -0.101 S 
ATOM     22  C   UNL     1      -1.678  -1.536   1.060  0.00  0.00    -0.004 A 
ATOM     23  C   UNL     1      -0.716  -2.214   1.980  0.00  0.00    +0.061 C 
ATOM     24  C   UNL     1       0.714  -1.919   1.500  0.00  0.00    +0.113 C 
ATOM     25  N   UNL     1       0.797  -0.497   1.135  0.00  0.00    -0.293 N 
ATOM     26  C   UNL     1       1.593   0.341   1.828  0.00  0.00    +0.234 C 
ATOM     27  O   UNL     1       1.589   1.528   1.576  0.00  0.00    -0.274 OA
ENDBRANCH  15  26
ENDBRANCH   1  15
TORSDOF 2
