REMARK  Name = ZINC01608071
REMARK  14 active torsions:
REMARK  status: ('A' for Active; 'I' for Inactive)
REMARK    1  A    between atoms: C_1  and  C_2
REMARK    2  A    between atoms: C_2  and  N_65
REMARK    3  A    between atoms: C_3  and  C_4
REMARK    4  A    between atoms: C_3  and  N_65
REMARK    5  A    between atoms: C_5  and  C_6
REMARK    6  A    between atoms: C_5  and  N_65
REMARK    7  A    between atoms: C_6  and  N_7
REMARK    8  A    between atoms: N_22  and  C_23
REMARK    9  A    between atoms: C_23  and  C_24
REMARK   10  A    between atoms: C_24  and  N_67
REMARK   11  A    between atoms: C_25  and  C_26
REMARK   12  A    between atoms: C_25  and  N_67
REMARK   13  A    between atoms: C_27  and  C_28
REMARK   14  A    between atoms: C_27  and  N_67
REMARK                            x       y       z     vdW  Elec       q    Type
REMARK                         _______ _______ _______ _____ _____    ______ ____
ROOT
ATOM      1  N   UNL     1       4.827   8.557   2.678  0.00  0.00    -0.329 N 
ATOM      2  C   UNL     1       3.563   8.843   2.177  0.00  0.00    +0.149 A 
ATOM      3  C   UNL     1       2.512   7.824   2.173  0.00  0.00    +0.028 A 
ATOM      4  C   UNL     1       2.707   6.541   2.656  0.00  0.00    +0.020 A 
ATOM      5  C   UNL     1       1.649   5.629   2.614  0.00  0.00    -0.017 A 
ATOM      6  C   UNL     1       1.806   4.312   3.095  0.00  0.00    +0.008 A 
ATOM      7  C   UNL     1       0.759   3.449   3.039  0.00  0.00    +0.001 A 
ATOM      8  C   UNL     1      -0.476   3.827   2.512  0.00  0.00    +0.001 A 
ATOM      9  C   UNL     1      -0.695   5.081   2.037  0.00  0.00    +0.008 A 
ATOM     10  C   UNL     1       0.350   6.028   2.064  0.00  0.00    -0.017 A 
ATOM     11  C   UNL     1       0.159   7.324   1.579  0.00  0.00    +0.020 A 
ATOM     12  C   UNL     1       1.210   8.225   1.622  0.00  0.00    +0.028 A 
ATOM     13  C   UNL     1       1.098   9.600   1.135  0.00  0.00    +0.149 A 
ATOM     14  N   UNL     1       2.153  10.384   1.217  0.00  0.00    -0.132 NA
ATOM     15  N   UNL     1       3.285  10.036   1.696  0.00  0.00    -0.132 NA
ATOM     16  N   UNL     1      -0.094  10.068   0.598  0.00  0.00    -0.329 N 
ATOM     17  H   UNL     1       5.020   7.674   3.031  0.00  0.00    +0.147 HD
ATOM     18  H   UNL     1      -0.864   9.481   0.543  0.00  0.00    +0.147 HD
ENDROOT
BRANCH   1  19
ATOM     19  C   UNL     1       5.867   9.588   2.675  0.00  0.00    +0.084 C 
BRANCH  19  20
ATOM     20  C   UNL     1       7.153   9.018   3.276  0.00  0.00    -0.060 C 
BRANCH  20  21
ATOM     21  N   UNL     1       8.168  10.091   3.326  0.00  0.00    +0.380 N 
ATOM     22  H   UNL     1       8.128  10.630   2.454  0.00  0.00    -0.082 HD
BRANCH  21  24
ATOM     23  C   UNL     1       8.814  12.212   4.360  0.00  0.00    -0.017 C 
ATOM     24  C   UNL     1       7.892  10.995   4.463  0.00  0.00    -0.082 C 
ENDBRANCH  21  24
BRANCH  21  25
ATOM     25  C   UNL     1       9.517   9.503   3.465  0.00  0.00    -0.082 C 
ATOM     26  C   UNL     1       9.954   8.950   2.107  0.00  0.00    -0.017 C 
ENDBRANCH  21  25
ENDBRANCH  20  21
ENDBRANCH  19  20
ENDBRANCH   1  19
BRANCH  16  27
ATOM     27  C   UNL     1      -0.188  11.448   0.115  0.00  0.00    +0.084 C 
BRANCH  27  28
ATOM     28  C   UNL     1      -1.597  11.705  -0.423  0.00  0.00    -0.060 C 
BRANCH  28  29
ATOM     29  N   UNL     1      -1.682  13.106  -0.886  0.00  0.00    +0.380 N 
ATOM     30  H   UNL     1      -1.353  13.726  -0.137  0.00  0.00    -0.082 HD
BRANCH  29  31
ATOM     31  C   UNL     1      -0.827  13.297  -2.077  0.00  0.00    -0.082 C 
ATOM     32  C   UNL     1      -1.262  12.359  -3.205  0.00  0.00    -0.017 C 
ENDBRANCH  29  31
BRANCH  29  33
ATOM     33  C   UNL     1      -3.083  13.447  -1.210  0.00  0.00    -0.082 C 
ATOM     34  C   UNL     1      -3.204  14.967  -1.333  0.00  0.00    -0.017 C 
ENDBRANCH  29  33
ENDBRANCH  28  29
ENDBRANCH  27  28
ENDBRANCH  16  27
TORSDOF 10
