REMARK  Name = ZINC40777786
REMARK  9 active torsions:
REMARK  status: ('A' for Active; 'I' for Inactive)
REMARK    1  A    between atoms: C_1  and  O_2
REMARK    2  A    between atoms: O_2  and  C_3
REMARK    3  A    between atoms: C_3  and  C_5
REMARK    4  A    between atoms: C_8  and  N_11
REMARK    5  A    between atoms: C_13  and  N_32
REMARK    6  A    between atoms: C_14  and  N_18
REMARK    7  A    between atoms: N_18  and  N_19
REMARK    8  A    between atoms: N_19  and  C_20
REMARK    9  A    between atoms: N_19  and  C_26
REMARK                            x       y       z     vdW  Elec       q    Type
REMARK                         _______ _______ _______ _____ _____    ______ ____
ROOT
ATOM      1  N   UNL     1       2.771  -4.863   3.135  0.00  0.00    -0.299 N 
ATOM      2  C   UNL     1       3.117  -6.002   3.854  0.00  0.00    +0.126 A 
ATOM      3  C   UNL     1       2.867  -7.273   3.334  0.00  0.00    +0.105 A 
ATOM      4  C   UNL     1       3.235  -8.382   4.098  0.00  0.00    +0.161 A 
ATOM      5  N   UNL     1       3.805  -8.187   5.284  0.00  0.00    -0.219 NA
ATOM      6  C   UNL     1       4.024  -6.970   5.739  0.00  0.00    +0.200 A 
ATOM      7  N   UNL     1       3.697  -5.897   5.048  0.00  0.00    -0.333 N 
ATOM      8  H   UNL     1       2.262  -4.945   2.313  0.00  0.00    +0.154 HD
ATOM      9  H   UNL     1       3.878  -5.018   5.415  0.00  0.00    +0.168 HD
ENDROOT
BRANCH   1  13
ATOM     10  C   UNL     1       3.914  -1.109   4.507  0.00  0.00    +0.059 A 
ATOM     11  C   UNL     1       4.790  -2.192   4.619  0.00  0.00    +0.017 A 
ATOM     12  C   UNL     1       4.410  -3.429   4.166  0.00  0.00    +0.024 A 
ATOM     13  C   UNL     1       3.153  -3.607   3.594  0.00  0.00    +0.032 A 
ATOM     14  C   UNL     1       2.278  -2.530   3.481  0.00  0.00    +0.024 A 
ATOM     15  C   UNL     1       2.650  -1.291   3.937  0.00  0.00    +0.017 A 
BRANCH  10  16
ATOM     16  C   UNL     1       4.319   0.223   4.993  0.00  0.00    +0.339 C 
ATOM     17  O   UNL     1       3.554   1.162   4.899  0.00  0.00    -0.245 OA
BRANCH  16  19
ATOM     18  C   UNL     1       5.863   1.714   5.993  0.00  0.00    +0.280 C 
ATOM     19  O   UNL     1       5.537   0.397   5.542  0.00  0.00    -0.464 OA
ENDBRANCH  16  19
ENDBRANCH  10  16
ENDBRANCH   1  13
BRANCH   3  20
ATOM     20  N   UNL     1       2.262  -7.431   2.077  0.00  0.00    -0.353 N 
ATOM     21  H   UNL     1       2.012  -6.651   1.557  0.00  0.00    +0.143 HD
ATOM     22  H   UNL     1       2.095  -8.320   1.728  0.00  0.00    +0.143 HD
ENDBRANCH   3  20
BRANCH   4  23
ATOM     23  N   UNL     1       3.008  -9.670   3.627  0.00  0.00    -0.242 N 
ATOM     24  H   UNL     1       2.592  -9.803   2.761  0.00  0.00    +0.172 HD
BRANCH  23  25
ATOM     25  N   UNL     1       3.382 -10.775   4.402  0.00  0.00    -0.221 N 
BRANCH  25  26
ATOM     26  C   UNL     1       2.622 -11.134   5.518  0.00  0.00    +0.053 A 
ATOM     27  C   UNL     1       1.248 -11.302   5.400  0.00  0.00    +0.025 A 
ATOM     28  C   UNL     1       0.500 -11.657   6.506  0.00  0.00    +0.002 A 
ATOM     29  C   UNL     1       1.117 -11.845   7.729  0.00  0.00    +0.000 A 
ATOM     30  C   UNL     1       2.484 -11.678   7.850  0.00  0.00    +0.002 A 
ATOM     31  C   UNL     1       3.239 -11.329   6.747  0.00  0.00    +0.025 A 
ENDBRANCH  25  26
BRANCH  25  32
ATOM     32  C   UNL     1       4.514 -11.519   4.059  0.00  0.00    +0.053 A 
ATOM     33  C   UNL     1       4.793 -12.707   4.722  0.00  0.00    +0.025 A 
ATOM     34  C   UNL     1       5.913 -13.440   4.381  0.00  0.00    +0.002 A 
ATOM     35  C   UNL     1       6.756 -12.991   3.381  0.00  0.00    +0.000 A 
ATOM     36  C   UNL     1       6.482 -11.808   2.720  0.00  0.00    +0.002 A 
ATOM     37  C   UNL     1       5.360 -11.074   3.051  0.00  0.00    +0.025 A 
ENDBRANCH  25  32
ENDBRANCH  23  25
ENDBRANCH   4  23
TORSDOF 8
