REMARK  Name = ZINC55137645
REMARK  3 active torsions:
REMARK  status: ('A' for Active; 'I' for Inactive)
REMARK    1  A    between atoms: C_1  and  C_2
REMARK    2  A    between atoms: C_7  and  C_12
REMARK    3  A    between atoms: C_9  and  N_11
REMARK                            x       y       z     vdW  Elec       q    Type
REMARK                         _______ _______ _______ _____ _____    ______ ____
ROOT
ATOM      1  C   UNL     1      -1.075   1.280   0.556  0.00  0.00    +0.006 C 
ATOM      2  C   UNL     1      -0.538  -0.126   0.282  0.00  0.00    -0.028 C 
ATOM      3  C   UNL     1       0.415  -0.084  -0.914  0.00  0.00    +0.002 C 
ATOM      4  C   UNL     1       0.953  -1.490  -1.188  0.00  0.00    +0.001 C 
ATOM      5  C   UNL     1       1.704  -1.997   0.044  0.00  0.00    +0.011 C 
ATOM      6  C   UNL     1       0.751  -2.040   1.240  0.00  0.00    +0.061 C 
ATOM      7  C   UNL     1       0.214  -0.634   1.514  0.00  0.00    -0.060 C 
ENDROOT
BRANCH   6   8
ATOM      8  C   UNL     1       1.492  -2.540   2.454  0.00  0.00    +0.217 C 
ATOM      9  O   UNL     1       2.037  -1.753   3.199  0.00  0.00    -0.275 OA
ATOM     10  N   UNL     1       1.548  -3.862   2.712  0.00  0.00    -0.294 N 
ATOM     11  C   UNL     1       1.015  -4.881   1.779  0.00  0.00    +0.136 C 
ATOM     12  C   UNL     1       0.136  -5.886   2.522  0.00  0.00    +0.179 C 
ATOM     13  O   UNL     1       0.743  -6.325   3.750  0.00  0.00    -0.373 OA
ATOM     14  C   UNL     1       1.012  -5.235   4.604  0.00  0.00    +0.139 C 
ATOM     15  C   UNL     1       2.143  -4.400   3.927  0.00  0.00    +0.105 C 
ATOM     16  C   UNL     1       2.542  -3.414   5.016  0.00  0.00    +0.025 C 
ATOM     17  C   UNL     1       2.279  -4.154   6.353  0.00  0.00    +0.004 C 
ATOM     18  C   UNL     1       1.618  -5.519   5.977  0.00  0.00    +0.033 C 
ENDBRANCH   6   8
BRANCH   7  19
ATOM     19  N   UNL     1      -0.701  -0.675   2.663  0.00  0.00    +0.381 N 
ATOM     20  H   UNL     1      -1.470  -1.295   2.459  0.00  0.00    -0.090 HD
ATOM     21  H   UNL     1      -0.205  -1.010   3.476  0.00  0.00    -0.090 HD
ATOM     22  H   UNL     1      -1.055   0.253   2.844  0.00  0.00    -0.090 HD
ENDBRANCH   7  19
TORSDOF 2
