REMARK  Name = ZINC38676730
REMARK  11 active torsions:
REMARK  status: ('A' for Active; 'I' for Inactive)
REMARK    1  A    between atoms: C_1  and  O_2
REMARK    2  A    between atoms: O_2  and  C_3
REMARK    3  A    between atoms: C_6  and  C_9
REMARK    4  A    between atoms: C_9  and  C_10
REMARK    5  A    between atoms: C_10  and  O_12
REMARK    6  A    between atoms: O_12  and  C_13
REMARK    7  A    between atoms: C_20  and  N_39
REMARK    8  A    between atoms: C_21  and  C_37
REMARK    9  A    between atoms: C_22  and  C_24
REMARK   10  A    between atoms: C_28  and  O_30
REMARK   11  A    between atoms: O_30  and  C_31
REMARK                            x       y       z     vdW  Elec       q    Type
REMARK                         _______ _______ _______ _____ _____    ______ ____
ROOT
ATOM      1  C   UNL     1       1.081  -3.309   7.347  0.00  0.00    +0.135 A 
ATOM      2  C   UNL     1      -0.268  -2.994   7.266  0.00  0.00    +0.047 A 
ATOM      3  C   UNL     1      -1.108  -3.281   8.323  0.00  0.00    +0.012 A 
ATOM      4  C   UNL     1      -0.611  -3.884   9.465  0.00  0.00    +0.008 A 
ATOM      5  C   UNL     1       0.735  -4.202   9.552  0.00  0.00    +0.138 A 
ATOM      6  C   UNL     1       1.581  -3.918   8.487  0.00  0.00    +0.093 A 
ATOM      7  O   UNL     1       1.241  -4.793  10.662  0.00  0.00    -0.441 OA
ATOM      8  C   UNL     1       0.419  -5.421  11.520  0.00  0.00    +0.199 C 
ATOM      9  C   UNL     1      -0.913  -5.180  11.544  0.00  0.00    +0.098 C 
ATOM     10  C   UNL     1      -1.544  -4.189  10.607  0.00  0.00    +0.098 C 
ENDROOT
BRANCH  10  11
ATOM     11  C   UNL     1      -1.848  -2.917  11.357  0.00  0.00    -0.031 A 
ATOM     12  C   UNL     1      -0.822  -2.196  11.938  0.00  0.00    +0.005 A 
ATOM     13  C   UNL     1      -1.097  -1.028  12.626  0.00  0.00    +0.004 A 
ATOM     14  C   UNL     1      -2.400  -0.580  12.734  0.00  0.00    +0.046 A 
ATOM     15  C   UNL     1      -3.431  -1.302  12.152  0.00  0.00    +0.129 A 
ATOM     16  C   UNL     1      -3.151  -2.470  11.457  0.00  0.00    +0.050 A 
BRANCH  15  17
ATOM     17  O   UNL     1      -4.713  -0.863  12.257  0.00  0.00    -0.456 OA
BRANCH  17  18
ATOM     18  C   UNL     1      -5.702  -1.664  11.782  0.00  0.00    +0.128 A 
ATOM     19  C   UNL     1      -5.983  -2.869  12.411  0.00  0.00    +0.046 A 
ATOM     20  C   UNL     1      -6.989  -3.682  11.926  0.00  0.00    +0.004 A 
ATOM     21  C   UNL     1      -7.717  -3.295  10.815  0.00  0.00    +0.000 A 
ATOM     22  C   UNL     1      -7.439  -2.095  10.187  0.00  0.00    +0.004 A 
ATOM     23  C   UNL     1      -6.438  -1.276  10.671  0.00  0.00    +0.046 A 
ENDBRANCH  17  18
ENDBRANCH  15  17
ENDBRANCH  10  11
BRANCH   8  24
ATOM     24  N   UNL     1       0.947  -6.336  12.397  0.00  0.00    -0.328 N 
ATOM     25  H   UNL     1       1.899  -6.520  12.392  0.00  0.00    +0.145 HD
ATOM     26  H   UNL     1       0.367  -6.798  13.022  0.00  0.00    +0.145 HD
ENDBRANCH   8  24
BRANCH   9  27
ATOM     27  C   UNL     1      -1.736  -5.883  12.481  0.00  0.00    +0.101 C 
ATOM     28  N   UNL     1      -2.389  -6.441  13.224  0.00  0.00    -0.191 NA
ENDBRANCH   9  27
BRANCH   1  29
ATOM     29  O   UNL     1       1.910  -3.026   6.308  0.00  0.00    -0.425 OA
BRANCH  29  30
ATOM     30  C   UNL     1       2.284  -1.749   6.129  0.00  0.00    +0.317 C 
ATOM     31  O   UNL     1       1.813  -0.879   6.823  0.00  0.00    -0.250 OA
BRANCH  30  32
ATOM     32  C   UNL     1       3.289  -1.401   5.061  0.00  0.00    +0.156 C 
BRANCH  32  36
ATOM     33  C   UNL     1       3.981   2.817   5.079  0.00  0.00    +0.120 A 
ATOM     34  C   UNL     1       4.760   1.981   5.867  0.00  0.00    +0.046 A 
ATOM     35  C   UNL     1       4.534   0.618   5.859  0.00  0.00    +0.008 A 
ATOM     36  C   UNL     1       3.533   0.087   5.068  0.00  0.00    -0.037 A 
ATOM     37  C   UNL     1       2.755   0.917   4.282  0.00  0.00    +0.008 A 
ATOM     38  C   UNL     1       2.973   2.281   4.290  0.00  0.00    +0.046 A 
BRANCH  33  40
ATOM     39  C   UNL     1       5.255   4.638   5.921  0.00  0.00    +0.277 C 
ATOM     40  O   UNL     1       4.201   4.157   5.085  0.00  0.00    -0.495 OA
ENDBRANCH  33  40
ENDBRANCH  32  36
ENDBRANCH  30  32
ENDBRANCH  29  30
ENDBRANCH   1  29
TORSDOF 10
