REMARK  Name = ZINC13135661
REMARK  9 active torsions:
REMARK  status: ('A' for Active; 'I' for Inactive)
REMARK    1  A    between atoms: C_1  and  C_2
REMARK    2  A    between atoms: N_10  and  C_19
REMARK    3  A    between atoms: N_13  and  C_14
REMARK    4  A    between atoms: C_14  and  C_15
REMARK    5  A    between atoms: C_15  and  N_16
REMARK    6  A    between atoms: N_16  and  C_17
REMARK    7  A    between atoms: N_16  and  C_18
REMARK    8  A    between atoms: C_30  and  C_33
REMARK    9  A    between atoms: C_30  and  C_34
REMARK                            x       y       z     vdW  Elec       q    Type
REMARK                         _______ _______ _______ _____ _____    ______ ____
ROOT
ATOM      1  C   UNL     1       0.852   1.423  -0.347  0.00  0.00    +0.066 C 
ATOM      2  C   UNL     1       0.620  -0.064  -0.261  0.00  0.00    +0.045 A 
ATOM      3  C   UNL     1      -0.119  -0.704  -1.250  0.00  0.00    +0.003 A 
ATOM      4  C   UNL     1      -0.330  -2.058  -1.176  0.00  0.00    -0.026 A 
ATOM      5  C   UNL     1       0.205  -2.785  -0.085  0.00  0.00    +0.037 A 
ATOM      6  C   UNL     1       0.087  -4.230   0.178  0.00  0.00    +0.096 A 
ATOM      7  C   UNL     1       0.714  -4.693   1.333  0.00  0.00    +0.105 A 
ATOM      8  C   UNL     1       0.673  -6.044   1.691  0.00  0.00    +0.274 A 
ATOM      9  O   UNL     1       1.224  -6.440   2.705  0.00  0.00    -0.266 OA
ATOM     10  N   UNL     1       0.007  -6.901   0.883  0.00  0.00    -0.248 N 
ATOM     11  C   UNL     1      -0.598  -6.421  -0.243  0.00  0.00    +0.203 A 
ATOM     12  N   UNL     1      -0.561  -5.159  -0.579  0.00  0.00    -0.214 NA
ATOM     13  N   UNL     1      -1.271  -7.300  -1.056  0.00  0.00    -0.316 N 
ATOM     14  S   UNL     1       1.444  -3.251   2.060  0.00  0.00    -0.062 S 
ATOM     15  C   UNL     1       0.936  -2.043   0.862  0.00  0.00    +0.112 A 
ATOM     16  N   UNL     1       1.123  -0.745   0.749  0.00  0.00    -0.244 NA
ATOM     17  C   UNL     1      -1.111  -2.801  -2.226  0.00  0.00    +0.070 C 
ATOM     18  C   UNL     1      -1.926  -1.808  -3.058  0.00  0.00    +0.068 C 
ATOM     19  O   UNL     1      -1.062  -0.740  -3.464  0.00  0.00    -0.369 OA
ATOM     20  C   UNL     1      -0.676   0.114  -2.386  0.00  0.00    +0.197 C 
ATOM     21  C   UNL     1      -2.487  -2.513  -4.294  0.00  0.00    +0.041 C 
ATOM     22  C   UNL     1      -3.073  -1.249  -2.214  0.00  0.00    +0.041 C 
ATOM     23  H   UNL     1      -1.311  -8.241  -0.825  0.00  0.00    +0.149 HD
ENDROOT
BRANCH  10  24
ATOM     24  C   UNL     1      -0.062  -8.265   1.198  0.00  0.00    +0.054 A 
ATOM     25  C   UNL     1       0.918  -9.135   0.739  0.00  0.00    +0.026 A 
ATOM     26  C   UNL     1       0.849 -10.478   1.051  0.00  0.00    +0.003 A 
ATOM     27  C   UNL     1      -0.195 -10.958   1.820  0.00  0.00    +0.020 A 
ATOM     28  C   UNL     1      -1.174 -10.094   2.279  0.00  0.00    +0.043 A 
ATOM     29  C   UNL     1      -1.106  -8.747   1.974  0.00  0.00    +0.046 A 
ATOM     30 CL   UNL     1      -2.483 -10.700   3.245  0.00  0.00    -0.083 Cl
ENDBRANCH  10  24
BRANCH  13  31
ATOM     31  C   UNL     1      -1.929  -6.816  -2.272  0.00  0.00    +0.086 C 
BRANCH  31  32
ATOM     32  C   UNL     1      -2.601  -7.988  -2.990  0.00  0.00    -0.061 C 
BRANCH  32  33
ATOM     33  N   UNL     1      -3.260  -7.503  -4.210  0.00  0.00    +0.377 N 
ATOM     34  C   UNL     1      -3.802  -8.644  -4.960  0.00  0.00    -0.097 C 
ATOM     35  C   UNL     1      -4.354  -6.592  -3.846  0.00  0.00    -0.097 C 
ATOM     36  H   UNL     1      -2.590  -7.012  -4.782  0.00  0.00    -0.083 HD
ENDBRANCH  32  33
ENDBRANCH  31  32
ENDBRANCH  13  31
TORSDOF 4
