REMARK  Name = ZINC18266707
REMARK  3 active torsions:
REMARK  status: ('A' for Active; 'I' for Inactive)
REMARK    1  A    between atoms: C_9  and  C_13
REMARK    2  A    between atoms: C_13  and  S_14
REMARK    3  A    between atoms: S_14  and  C_15
REMARK                            x       y       z     vdW  Elec       q    Type
REMARK                         _______ _______ _______ _____ _____    ______ ____
ROOT
ATOM      1  C   UNL     1       0.436   1.355  -0.426  0.00  0.00    +0.005 C 
ATOM      2  C   UNL     1       1.919   1.727  -0.510  0.00  0.00    +0.005 C 
ATOM      3  C   UNL     1       2.562   1.497   0.865  0.00  0.00    +0.043 C 
ATOM      4  C   UNL     1       2.150   0.145   1.361  0.00  0.00    -0.004 A 
ATOM      5  C   UNL     1       1.150  -0.632   0.887  0.00  0.00    -0.025 A 
ATOM      6  C   UNL     1       0.951  -1.913   1.545  0.00  0.00    +0.051 A 
ATOM      7  C   UNL     1      -0.029  -2.898   1.232  0.00  0.00    +0.128 A 
ATOM      8  N   UNL     1      -0.009  -3.997   1.984  0.00  0.00    -0.216 NA
ATOM      9  C   UNL     1       0.846  -4.201   2.966  0.00  0.00    +0.143 A 
ATOM     10  N   UNL     1       1.782  -3.325   3.311  0.00  0.00    -0.224 NA
ATOM     11  C   UNL     1       1.833  -2.206   2.616  0.00  0.00    +0.114 A 
ATOM     12  S   UNL     1       2.870  -0.782   2.694  0.00  0.00    -0.073 S 
ATOM     13  N   UNL     1      -0.945  -2.724   0.210  0.00  0.00    -0.343 N 
ATOM     14  C   UNL     1       0.289  -0.160  -0.282  0.00  0.00    +0.037 C 
ATOM     15  H   UNL     1      -0.796  -2.043  -0.465  0.00  0.00    +0.144 HD
ATOM     16  H   UNL     1      -1.737  -3.283   0.168  0.00  0.00    +0.144 HD
ENDROOT
BRANCH   9  17
ATOM     17  C   UNL     1       0.756  -5.493   3.737  0.00  0.00    +0.152 C 
BRANCH  17  18
ATOM     18  S   UNL     1       1.808  -6.742   2.948  0.00  0.00    -0.089 S 
BRANCH  18  19
ATOM     19  C   UNL     1       1.596  -8.174   3.953  0.00  0.00    +0.160 A 
ATOM     20  N   UNL     1       0.851  -8.337   5.029  0.00  0.00    -0.133 NA
ATOM     21  N   UNL     1       0.831  -9.555   5.669  0.00  0.00    -0.125 NA
ATOM     22  C   UNL     1       1.557 -10.553   5.205  0.00  0.00    +0.180 A 
ATOM     23  S   UNL     1       2.327  -9.795   3.782  0.00  0.00    -0.025 S 
ATOM     24  N   UNL     1       1.684 -11.849   5.689  0.00  0.00    -0.336 N 
ATOM     25  H   UNL     1       1.193 -12.122   6.480  0.00  0.00    +0.144 HD
ATOM     26  H   UNL     1       2.263 -12.482   5.235  0.00  0.00    +0.144 HD
ENDBRANCH  18  19
ENDBRANCH  17  18
ENDBRANCH   9  17
TORSDOF 3
