REMARK  Name = ZINC08714297
REMARK  5 active torsions:
REMARK  status: ('A' for Active; 'I' for Inactive)
REMARK    1  A    between atoms: C_1  and  C_2
REMARK    2  A    between atoms: C_4  and  C_17
REMARK    3  A    between atoms: N_5  and  S_7
REMARK    4  A    between atoms: S_7  and  N_10
REMARK    5  A    between atoms: C_13  and  C_16
REMARK                            x       y       z     vdW  Elec       q    Type
REMARK                         _______ _______ _______ _____ _____    ______ ____
ROOT
ATOM      1  S   UNL     1       1.154   5.191  -2.136  0.00  0.00    +0.139 S 
ATOM      2  O   UNL     1       0.030   5.860  -2.691  0.00  0.00    -0.134 OA
ATOM      3  O   UNL     1       2.199   5.883  -1.467  0.00  0.00    -0.134 OA
ENDROOT
BRANCH   1   8
ATOM      4  C   UNL     1       4.680   2.695  -5.033  0.00  0.00    +0.069 C 
ATOM      5  C   UNL     1       3.384   3.303  -4.562  0.00  0.00    +0.076 A 
ATOM      6  C   UNL     1       2.169   3.285  -5.257  0.00  0.00    +0.063 A 
ATOM      7  C   UNL     1       1.250   3.934  -4.505  0.00  0.00    +0.077 A 
ATOM      8  N   UNL     1       1.861   4.348  -3.374  0.00  0.00    -0.122 N 
ATOM      9  N   UNL     1       3.201   3.945  -3.437  0.00  0.00    -0.153 NA
ATOM     10  C   UNL     1      -0.197   4.154  -4.864  0.00  0.00    +0.068 C 
ATOM     11 BR   UNL     1       1.865   2.492  -6.947  0.00  0.00    -0.046 Br
ENDBRANCH   1   8
BRANCH   1  12
ATOM     12  N   UNL     1       0.560   4.078  -1.063  0.00  0.00    -0.160 NA
ATOM     13  C   UNL     1       1.393   3.586   0.043  0.00  0.00    +0.111 C 
ATOM     14  C   UNL     1       1.417   2.055  -0.000  0.00  0.00    +0.020 C 
ATOM     15  C   UNL     1      -0.019   1.526   0.010  0.00  0.00    -0.012 C 
ATOM     16  C   UNL     1      -0.760   2.032  -1.229  0.00  0.00    +0.020 C 
ATOM     17  C   UNL     1      -0.809   3.563  -1.199  0.00  0.00    +0.111 C 
ATOM     18  C   UNL     1       0.002  -0.004   0.002  0.00  0.00    +0.007 C 
ENDBRANCH   1  12
TORSDOF 2
