REMARK  Name = ZINC55374980
REMARK  7 active torsions:
REMARK  status: ('A' for Active; 'I' for Inactive)
REMARK    1  A    between atoms: C_1  and  C_2
REMARK    2  A    between atoms: C_2  and  C_4
REMARK    3  A    between atoms: C_2  and  N_13
REMARK    4  A    between atoms: N_13  and  C_14
REMARK    5  A    between atoms: C_14  and  C_16
REMARK    6  A    between atoms: C_14  and  C_17
REMARK    7  A    between atoms: N_19  and  C_20
REMARK                            x       y       z     vdW  Elec       q    Type
REMARK                         _______ _______ _______ _____ _____    ______ ____
ROOT
ATOM      1  N   UNL     1       0.718  -0.512   1.184  0.00  0.00    +0.391 N 
ATOM      2  H   UNL     1       0.291  -0.116   2.008  0.00  0.00    -0.084 HD
ATOM      3  H   UNL     1       0.664  -1.518   1.228  0.00  0.00    -0.084 HD
ENDROOT
BRANCH   1   5
ATOM      4  C   UNL     1      -0.017   1.494  -0.013  0.00  0.00    -0.009 C 
ATOM      5  C   UNL     1       0.009  -0.035  -0.011  0.00  0.00    -0.043 C 
BRANCH   5   6
ATOM      6  C   UNL     1      -1.403  -0.562  -0.001  0.00  0.00    -0.058 A 
ATOM      7  C   UNL     1      -2.116  -0.601   1.183  0.00  0.00    +0.006 A 
ATOM      8  C   UNL     1      -3.412  -1.083   1.197  0.00  0.00    +0.050 A 
ATOM      9  C   UNL     1      -3.999  -1.528   0.023  0.00  0.00    +0.166 A 
ATOM     10  C   UNL     1      -3.280  -1.489  -1.169  0.00  0.00    +0.166 A 
ATOM     11  C   UNL     1      -1.984  -0.999  -1.177  0.00  0.00    +0.051 A 
ATOM     12  O   UNL     1      -4.070  -1.977  -2.170  0.00  0.00    -0.453 OA
ATOM     13  C   UNL     1      -5.129  -2.693  -1.510  0.00  0.00    +0.466 C 
ATOM     14  O   UNL     1      -5.238  -2.041  -0.231  0.00  0.00    -0.453 OA
ENDBRANCH   5   6
ENDBRANCH   1   5
BRANCH   1  15
ATOM     15  C   UNL     1       2.126  -0.099   1.115  0.00  0.00    +0.014 C 
ATOM     16  C   UNL     1       2.805  -0.798  -0.064  0.00  0.00    -0.004 C 
BRANCH  15  17
ATOM     17  C   UNL     1       2.824  -0.480   2.396  0.00  0.00    +0.203 C 
ATOM     18  O   UNL     1       2.209  -1.040   3.278  0.00  0.00    -0.277 OA
ATOM     19  N   UNL     1       4.132  -0.198   2.560  0.00  0.00    -0.286 N 
ATOM     20  H   UNL     1       4.639   0.191   1.830  0.00  0.00    +0.155 HD
BRANCH  19  21
ATOM     21  C   UNL     1       4.757  -0.467   3.783  0.00  0.00    +0.053 A 
ATOM     22  C   UNL     1       4.379  -1.574   4.529  0.00  0.00    +0.044 A 
ATOM     23  C   UNL     1       4.999  -1.837   5.736  0.00  0.00    +0.043 A 
ATOM     24  C   UNL     1       5.996  -0.997   6.201  0.00  0.00    +0.021 A 
ATOM     25  C   UNL     1       6.375   0.107   5.460  0.00  0.00    +0.023 A 
ATOM     26  C   UNL     1       5.762   0.372   4.249  0.00  0.00    +0.062 A 
ATOM     27 CL   UNL     1       6.243   1.755   3.316  0.00  0.00    -0.082 Cl
ATOM     28 CL   UNL     1       4.527  -3.221   6.671  0.00  0.00    -0.083 Cl
ENDBRANCH  19  21
ENDBRANCH  15  17
ENDBRANCH   1  15
TORSDOF 5
