REMARK  Name = ZINC20976143
REMARK  13 active torsions:
REMARK  status: ('A' for Active; 'I' for Inactive)
REMARK    1  A    between atoms: C_1  and  C_2
REMARK    2  A    between atoms: C_5  and  O_8
REMARK    3  A    between atoms: O_8  and  C_9
REMARK    4  A    between atoms: C_9  and  C_10
REMARK    5  A    between atoms: N_12  and  C_13
REMARK    6  A    between atoms: C_13  and  N_15
REMARK    7  A    between atoms: N_15  and  C_16
REMARK    8  A    between atoms: C_18  and  C_35
REMARK    9  A    between atoms: C_19  and  O_34
REMARK   10  A    between atoms: C_20  and  C_22
REMARK   11  A    between atoms: C_26  and  C_31
REMARK   12  A    between atoms: C_31  and  C_32
REMARK   13  A    between atoms: C_31  and  C_33
REMARK                            x       y       z     vdW  Elec       q    Type
REMARK                         _______ _______ _______ _____ _____    ______ ____
ROOT
ATOM      1  C   UNL     1       2.400   1.795  -0.066  0.00  0.00    +0.034 A 
ATOM      2  C   UNL     1       2.504   0.411  -0.156  0.00  0.00    +0.030 A 
ATOM      3  C   UNL     1       3.744  -0.191  -0.226  0.00  0.00    -0.007 A 
ATOM      4  C   UNL     1       4.895   0.581  -0.207  0.00  0.00    +0.132 A 
ATOM      5  C   UNL     1       4.798   1.976  -0.117  0.00  0.00    +0.080 A 
ATOM      6  C   UNL     1       3.541   2.579  -0.052  0.00  0.00    +0.040 A 
ATOM      7  C   UNL     1       3.848  -1.691  -0.323  0.00  0.00    +0.047 C 
ENDROOT
BRANCH   5   8
ATOM      8  C   UNL     1       6.020   2.804  -0.097  0.00  0.00    +0.232 A 
ATOM      9  N   UNL     1       6.040   4.111  -0.020  0.00  0.00    -0.209 NA
ATOM     10  C   UNL     1       7.332   4.529  -0.022  0.00  0.00    +0.110 A 
ATOM     11  C   UNL     1       7.939   5.786   0.042  0.00  0.00    +0.035 A 
ATOM     12  C   UNL     1       9.312   5.883   0.012  0.00  0.00    -0.043 A 
ATOM     13  C   UNL     1      10.095   4.742  -0.081  0.00  0.00    +0.007 A 
ATOM     14  C   UNL     1       9.509   3.494  -0.144  0.00  0.00    +0.049 A 
ATOM     15  C   UNL     1       8.128   3.377  -0.116  0.00  0.00    +0.156 A 
ATOM     16  O   UNL     1       7.278   2.327  -0.160  0.00  0.00    -0.435 OA
BRANCH  12  17
ATOM     17  C   UNL     1       9.968   7.238   0.081  0.00  0.00    +0.013 C 
ATOM     18  C   UNL     1      10.872   7.305   1.313  0.00  0.00    +0.012 C 
ATOM     19  C   UNL     1      10.807   7.463  -1.179  0.00  0.00    +0.012 C 
ENDBRANCH  12  17
ENDBRANCH   5   8
BRANCH   1  20
ATOM     20  N   UNL     1       1.137   2.397   0.004  0.00  0.00    -0.297 N 
ATOM     21  H   UNL     1       0.318   2.034  -0.634  0.00  0.00    +0.154 HD
BRANCH  20  22
ATOM     22  C   UNL     1       0.926   3.423   0.853  0.00  0.00    +0.141 C 
ATOM     23  S   UNL     1       2.155   3.896   1.946  0.00  0.00    -0.018 S 
BRANCH  22  26
ATOM     24  C   UNL     1      -0.469   5.093   1.699  0.00  0.00    +0.256 C 
ATOM     25  O   UNL     1       0.402   5.428   2.473  0.00  0.00    -0.272 OA
ATOM     26  N   UNL     1      -0.256   4.071   0.846  0.00  0.00    -0.265 N 
ATOM     27  H   UNL     1      -1.046   3.767   0.144  0.00  0.00    +0.157 HD
BRANCH  24  28
ATOM     28  C   UNL     1      -1.790   5.818   1.690  0.00  0.00    +0.324 C 
BRANCH  28  29
ATOM     29  O   UNL     1      -1.772   6.852   2.676  0.00  0.00    -0.483 OA
BRANCH  29  34
ATOM     30  C   UNL     1      -6.427   9.981   3.188  0.00  0.00    +0.044 C 
ATOM     31  C   UNL     1      -5.181   9.144   3.051  0.00  0.00    -0.050 A 
ATOM     32  C   UNL     1      -4.089   9.395   3.861  0.00  0.00    +0.007 A 
ATOM     33  C   UNL     1      -2.946   8.629   3.737  0.00  0.00    +0.046 A 
ATOM     34  C   UNL     1      -2.895   7.607   2.800  0.00  0.00    +0.121 A 
ATOM     35  C   UNL     1      -3.990   7.362   1.984  0.00  0.00    +0.046 A 
ATOM     36  C   UNL     1      -5.133   8.126   2.116  0.00  0.00    +0.007 A 
ENDBRANCH  29  34
ENDBRANCH  28  29
ENDBRANCH  24  28
ENDBRANCH  22  26
ENDBRANCH  20  22
ENDBRANCH   1  20
BRANCH   4  37
ATOM     37  O   UNL     1       6.115  -0.013  -0.277  0.00  0.00    -0.506 OA
ATOM     38  H   UNL     1       7.027   0.601  -0.262  0.00  0.00    +0.292 HD
ENDBRANCH   4  37
TORSDOF 9
