REMARK  Name = ZINC39306936
REMARK  5 active torsions:
REMARK  status: ('A' for Active; 'I' for Inactive)
REMARK    1  A    between atoms: C_7  and  N_12
REMARK    2  A    between atoms: C_13  and  C_15
REMARK    3  A    between atoms: C_15  and  N_16
REMARK    4  A    between atoms: C_20  and  O_23
REMARK    5  A    between atoms: O_23  and  C_24
REMARK                            x       y       z     vdW  Elec       q    Type
REMARK                         _______ _______ _______ _____ _____    ______ ____
ROOT
ATOM      1  C   UNL     1      -1.104  -4.990  -0.220  0.00  0.00    +0.019 C 
ENDROOT
BRANCH   1   2
ATOM      2  N   UNL     1      -0.770  -6.416  -0.335  0.00  0.00    +0.388 N 
ATOM      3  C   UNL     1      -0.113  -6.865   0.898  0.00  0.00    -0.078 C 
ATOM      4  C   UNL     1       0.309  -8.328   0.752  0.00  0.00    -0.015 C 
ATOM      5  C   UNL     1      -0.930  -9.188   0.490  0.00  0.00    +0.041 C 
ATOM      6  C   UNL     1      -1.649  -8.665  -0.756  0.00  0.00    +0.157 C 
ATOM      7  C   UNL     1      -1.999  -7.189  -0.554  0.00  0.00    -0.033 C 
ATOM      8  H   UNL     1      -0.145  -6.552  -1.116  0.00  0.00    -0.081 HD
BRANCH   6   9
ATOM      9  O   UNL     1      -2.847  -9.415  -0.968  0.00  0.00    -0.491 OA
BRANCH   9  10
ATOM     10  C   UNL     1      -2.730 -10.585  -1.650  0.00  0.00    +0.121 A 
ATOM     11  C   UNL     1      -3.833 -11.410  -1.809  0.00  0.00    +0.047 A 
ATOM     12  C   UNL     1      -3.712 -12.598  -2.503  0.00  0.00    +0.023 A 
ATOM     13  C   UNL     1      -2.491 -12.966  -3.039  0.00  0.00    +0.041 A 
ATOM     14  C   UNL     1      -1.389 -12.145  -2.881  0.00  0.00    +0.023 A 
ATOM     15  C   UNL     1      -1.507 -10.952  -2.194  0.00  0.00    +0.047 A 
ATOM     16 CL   UNL     1      -2.341 -14.460  -3.911  0.00  0.00    -0.084 Cl
ENDBRANCH   9  10
ENDBRANCH   6   9
ENDBRANCH   1   2
BRANCH   1  18
ATOM     17  N   UNL     1       0.103  -2.843  -0.003  0.00  0.00    -0.287 N 
ATOM     18  C   UNL     1       0.165  -4.184  -0.118  0.00  0.00    +0.201 C 
ATOM     19  O   UNL     1       1.241  -4.742  -0.140  0.00  0.00    -0.278 OA
ATOM     20  H   UNL     1      -0.756  -2.403   0.096  0.00  0.00    +0.155 HD
BRANCH  17  27
ATOM     21  C   UNL     1       0.267   0.941   1.824  0.00  0.00    +0.001 A 
ATOM     22  C   UNL     1       1.448   1.680   1.789  0.00  0.00    +0.001 A 
ATOM     23  C   UNL     1       2.559   1.197   1.170  0.00  0.00    +0.009 A 
ATOM     24  C   UNL     1       2.518  -0.066   0.555  0.00  0.00    -0.002 A 
ATOM     25  C   UNL     1       1.318  -0.817   0.591  0.00  0.00    +0.004 A 
ATOM     26  C   UNL     1       0.192  -0.286   1.239  0.00  0.00    +0.010 A 
ATOM     27  C   UNL     1       1.277  -2.085  -0.027  0.00  0.00    +0.041 A 
ATOM     28  C   UNL     1       2.405  -2.570  -0.652  0.00  0.00    +0.025 A 
ATOM     29  C   UNL     1       3.579  -1.824  -0.682  0.00  0.00    +0.018 A 
ATOM     30  C   UNL     1       3.647  -0.597  -0.094  0.00  0.00    +0.026 A 
ATOM     31 BR   UNL     1       5.258   0.392  -0.151  0.00  0.00    -0.050 Br
ENDBRANCH  17  27
ENDBRANCH   1  18
TORSDOF 5
