REMARK  Name = ZINC35097048
REMARK  9 active torsions:
REMARK  status: ('A' for Active; 'I' for Inactive)
REMARK    1  A    between atoms: C_1  and  C_2
REMARK    2  A    between atoms: C_2  and  C_39
REMARK    3  A    between atoms: C_7  and  C_11
REMARK    4  A    between atoms: C_11  and  N_12
REMARK    5  A    between atoms: N_12  and  C_13
REMARK    6  A    between atoms: C_13  and  C_14
REMARK    7  A    between atoms: C_14  and  N_15
REMARK    8  A    between atoms: C_21  and  C_23
REMARK    9  A    between atoms: N_31  and  C_32
REMARK                            x       y       z     vdW  Elec       q    Type
REMARK                         _______ _______ _______ _____ _____    ______ ____
ROOT
ATOM      1  N   UNL     1       2.182   2.371   4.265  0.00  0.00    -0.283 N 
ATOM      2  C   UNL     1       2.697   3.616   4.300  0.00  0.00    +0.307 C 
ATOM      3  O   UNL     1       1.994   4.555   4.621  0.00  0.00    -0.252 OA
ATOM      4  N   UNL     1       3.990   3.820   3.980  0.00  0.00    -0.269 N 
ATOM      5  H   UNL     1       4.532   3.083   3.659  0.00  0.00    +0.156 HD
ENDROOT
BRANCH   4   6
ATOM      6  C   UNL     1       4.551   5.096   4.111  0.00  0.00    +0.035 A 
ATOM      7  C   UNL     1       5.876   5.237   4.501  0.00  0.00    +0.025 A 
ATOM      8  C   UNL     1       6.426   6.497   4.629  0.00  0.00    +0.022 A 
ATOM      9  C   UNL     1       5.659   7.619   4.369  0.00  0.00    +0.041 A 
ATOM     10  C   UNL     1       4.338   7.481   3.981  0.00  0.00    +0.022 A 
ATOM     11  C   UNL     1       3.784   6.223   3.845  0.00  0.00    +0.025 A 
ATOM     12 CL   UNL     1       6.354   9.201   4.532  0.00  0.00    -0.084 Cl
ENDBRANCH   4   6
BRANCH   1  13
ATOM     13  C   UNL     1       3.028   1.239   3.878  0.00  0.00    +0.140 C 
BRANCH  13  19
ATOM     14  C   UNL     1       1.192   2.447   0.661  0.00  0.00    +0.012 C 
ATOM     15  C   UNL     1       1.266   0.926   0.511  0.00  0.00    -0.025 C 
ATOM     16  C   UNL     1       2.539   0.430  -0.205  0.00  0.00    -0.000 C 
ATOM     17  C   UNL     1       3.727   1.355   0.092  0.00  0.00    +0.031 C 
ATOM     18  C   UNL     1       3.845   1.570   1.581  0.00  0.00    -0.025 C 
ATOM     19  C   UNL     1       2.952   1.041   2.386  0.00  0.00    -0.053 C 
ATOM     20  C   UNL     1       1.828   0.203   1.749  0.00  0.00    +0.022 C 
ATOM     21  C   UNL     1       2.454  -0.785   0.734  0.00  0.00    +0.012 C 
ATOM     22  C   UNL     1      -0.029   0.315  -0.028  0.00  0.00    +0.012 C 
ENDBRANCH  13  19
ENDBRANCH   1  13
BRANCH   1  23
ATOM     23  C   UNL     1       0.776   2.149   4.613  0.00  0.00    +0.091 C 
BRANCH  23  24
ATOM     24  C   UNL     1       0.659   1.878   6.114  0.00  0.00    -0.059 C 
BRANCH  24  25
ATOM     25  N   UNL     1      -0.750   1.656   6.463  0.00  0.00    +0.383 N 
ATOM     26  C   UNL     1      -1.513   2.887   6.219  0.00  0.00    -0.059 C 
ATOM     27  C   UNL     1      -3.001   2.623   6.473  0.00  0.00    +0.089 C 
ATOM     28  N   UNL     1      -3.152   2.074   7.830  0.00  0.00    -0.301 N 
ATOM     29  C   UNL     1      -2.303   0.936   8.215  0.00  0.00    +0.089 C 
ATOM     30  C   UNL     1      -0.848   1.279   7.879  0.00  0.00    -0.059 C 
ATOM     31  C   UNL     1      -4.043   2.598   8.695  0.00  0.00    +0.246 C 
ATOM     32  O   UNL     1      -4.208   2.084   9.783  0.00  0.00    -0.270 OA
ATOM     33  H   UNL     1      -1.124   0.913   5.892  0.00  0.00    -0.082 HD
BRANCH  31  34
ATOM     34  C   UNL     1      -4.818   3.800   8.319  0.00  0.00    +0.037 A 
ATOM     35  C   UNL     1      -5.402   3.890   7.054  0.00  0.00    +0.013 A 
ATOM     36  C   UNL     1      -6.125   5.014   6.710  0.00  0.00    +0.001 A 
ATOM     37  C   UNL     1      -6.271   6.050   7.616  0.00  0.00    +0.000 A 
ATOM     38  C   UNL     1      -5.695   5.966   8.871  0.00  0.00    +0.001 A 
ATOM     39  C   UNL     1      -4.975   4.846   9.230  0.00  0.00    +0.013 A 
ENDBRANCH  31  34
ENDBRANCH  24  25
ENDBRANCH  23  24
ENDBRANCH   1  23
TORSDOF 7
