REMARK  Name = ZINC63182731
REMARK  3 active torsions:
REMARK  status: ('A' for Active; 'I' for Inactive)
REMARK    1  A    between atoms: C_4  and  N_7
REMARK    2  A    between atoms: C_12  and  N_16
REMARK    3  A    between atoms: C_22  and  C_24
REMARK                            x       y       z     vdW  Elec       q    Type
REMARK                         _______ _______ _______ _____ _____    ______ ____
ROOT
ATOM      1  N   UNL     1       5.550  -2.235   2.253  0.00  0.00    -0.290 NA
ATOM      2  C   UNL     1       4.166  -1.749   2.328  0.00  0.00    +0.104 C 
ATOM      3  C   UNL     1       3.643  -1.923   3.757  0.00  0.00    +0.123 C 
ATOM      4  N   UNL     1       4.583  -1.270   4.681  0.00  0.00    -0.295 N 
ATOM      5  C   UNL     1       6.011  -1.605   4.574  0.00  0.00    +0.123 C 
ATOM      6  C   UNL     1       6.441  -1.443   3.112  0.00  0.00    +0.104 C 
ATOM      7  C   UNL     1       4.147  -0.387   5.602  0.00  0.00    +0.245 C 
ATOM      8  O   UNL     1       2.954  -0.188   5.737  0.00  0.00    -0.270 OA
ENDROOT
BRANCH   7   9
ATOM      9  C   UNL     1       5.110   0.334   6.441  0.00  0.00    +0.042 C 
ATOM     10  C   UNL     1       4.831   1.263   7.419  0.00  0.00    +0.008 A 
ATOM     11  C   UNL     1       3.618   1.804   7.915  0.00  0.00    +0.010 A 
ATOM     12  C   UNL     1       3.638   2.724   8.903  0.00  0.00    +0.001 A 
ATOM     13  C   UNL     1       4.832   3.186   9.480  0.00  0.00    +0.002 A 
ATOM     14  C   UNL     1       6.040   2.735   9.079  0.00  0.00    +0.026 A 
ATOM     15  C   UNL     1       6.110   1.730   8.007  0.00  0.00    +0.043 A 
ATOM     16  N   UNL     1       7.119   1.134   7.436  0.00  0.00    -0.380 N 
ATOM     17  C   UNL     1       6.618   0.207   6.417  0.00  0.00    +0.154 C 
ATOM     18  H   UNL     1       8.053   1.278   7.655  0.00  0.00    +0.160 HD
ENDBRANCH   7   9
BRANCH   1  23
ATOM     19  N   UNL     1       5.805  -4.989   0.437  0.00  0.00    -0.160 N 
ATOM     20  C   UNL     1       6.979  -4.531   0.916  0.00  0.00    +0.259 C 
ATOM     21  O   UNL     1       7.757  -5.290   1.454  0.00  0.00    -0.272 OA
ATOM     22  C   UNL     1       7.318  -3.068   0.777  0.00  0.00    +0.191 C 
ATOM     23  C   UNL     1       6.030  -2.246   0.865  0.00  0.00    +0.126 C 
ATOM     24  C   UNL     1       4.980  -2.856  -0.024  0.00  0.00    +0.124 C 
ATOM     25  N   UNL     1       4.912  -4.120  -0.197  0.00  0.00    -0.183 NA
ATOM     26 CL   UNL     1       8.112  -2.781  -0.817  0.00  0.00    -0.110 Cl
BRANCH  19  30
ATOM     27  C   UNL     1       4.840  -9.023   0.835  0.00  0.00    +0.000 A 
ATOM     28  C   UNL     1       4.694  -8.396  -0.389  0.00  0.00    +0.002 A 
ATOM     29  C   UNL     1       5.013  -7.060  -0.524  0.00  0.00    +0.025 A 
ATOM     30  C   UNL     1       5.480  -6.344   0.571  0.00  0.00    +0.060 A 
ATOM     31  C   UNL     1       5.625  -6.977   1.799  0.00  0.00    +0.025 A 
ATOM     32  C   UNL     1       5.304  -8.314   1.928  0.00  0.00    +0.002 A 
ENDBRANCH  19  30
ENDBRANCH   1  23
TORSDOF 3
