REMARK  Name = ZINC09817025
REMARK  7 active torsions:
REMARK  status: ('A' for Active; 'I' for Inactive)
REMARK    1  A    between atoms: C_1  and  N_56
REMARK    2  A    between atoms: N_4  and  N_7
REMARK    3  A    between atoms: C_10  and  S_14
REMARK    4  A    between atoms: S_14  and  C_15
REMARK    5  A    between atoms: C_15  and  C_16
REMARK    6  A    between atoms: N_18  and  C_19
REMARK    7  A    between atoms: C_21  and  C_26
REMARK                            x       y       z     vdW  Elec       q    Type
REMARK                         _______ _______ _______ _____ _____    ______ ____
ROOT
ATOM      1  N   UNL     1      -4.383  -0.829  -0.019  0.00  0.00    -0.216 N 
ATOM      2  C   UNL     1      -3.528  -1.893  -0.032  0.00  0.00    +0.050 A 
ATOM      3  C   UNL     1      -2.195  -1.667  -0.038  0.00  0.00    +0.006 A 
ATOM      4  C   UNL     1      -1.727  -0.335  -0.022  0.00  0.00    +0.108 A 
ATOM      5  N   UNL     1      -2.597   0.668  -0.010  0.00  0.00    -0.185 NA
ATOM      6  C   UNL     1      -3.907   0.429  -0.009  0.00  0.00    +0.367 A 
ATOM      7  O   UNL     1      -4.688   1.366   0.001  0.00  0.00    -0.243 OA
ATOM      8  C   UNL     1      -1.441  -2.978  -0.048  0.00  0.00    +0.040 C 
ATOM      9  C   UNL     1      -2.477  -4.041   0.379  0.00  0.00    +0.011 C 
ATOM     10  C   UNL     1      -3.807  -3.380  -0.044  0.00  0.00    +0.056 C 
ENDROOT
BRANCH   1  14
ATOM     11  C   UNL     1      -9.921  -0.491  -0.040  0.00  0.00    -0.096 C 
ATOM     12  C   UNL     1      -7.851  -0.787   1.182  0.00  0.00    -0.058 C 
ATOM     13  C   UNL     1      -6.357  -0.458   1.178  0.00  0.00    +0.106 C 
ATOM     14  N   UNL     1      -5.733  -1.043  -0.017  0.00  0.00    -0.271 N 
ATOM     15  C   UNL     1      -6.351  -0.516  -1.242  0.00  0.00    +0.106 C 
ATOM     16  C   UNL     1      -7.846  -0.845  -1.237  0.00  0.00    -0.058 C 
ATOM     17  N   UNL     1      -8.465  -0.233  -0.043  0.00  0.00    +0.380 N 
ATOM     18  H   UNL     1      -8.306   0.781  -0.067  0.00  0.00    -0.082 HD
ENDBRANCH   1  14
BRANCH   4  19
ATOM     19  S   UNL     1       0.003  -0.004  -0.023  0.00  0.00    -0.096 S 
BRANCH  19  20
ATOM     20  C   UNL     1      -0.022   1.805  -0.006  0.00  0.00    +0.171 C 
BRANCH  20  21
ATOM     21  C   UNL     1       1.392   2.327  -0.005  0.00  0.00    +0.227 C 
ATOM     22  O   UNL     1       2.325   1.552  -0.015  0.00  0.00    -0.275 OA
ATOM     23  N   UNL     1       1.620   3.656   0.006  0.00  0.00    -0.284 N 
ATOM     24  H   UNL     1       0.876   4.276  -0.052  0.00  0.00    +0.155 HD
BRANCH  23  25
ATOM     25  C   UNL     1       2.929   4.140   0.102  0.00  0.00    +0.052 A 
ATOM     26  C   UNL     1       3.972   3.451  -0.503  0.00  0.00    +0.037 A 
ATOM     27  C   UNL     1       5.263   3.934  -0.410  0.00  0.00    +0.057 A 
ATOM     28  C   UNL     1       5.519   5.098   0.292  0.00  0.00    +0.014 A 
ATOM     29  C   UNL     1       4.484   5.784   0.900  0.00  0.00    +0.022 A 
ATOM     30  C   UNL     1       3.189   5.309   0.807  0.00  0.00    +0.062 A 
ATOM     31 CL   UNL     1       1.890   6.171   1.571  0.00  0.00    -0.082 Cl
BRANCH  27  32
ATOM     32  C   UNL     1       6.394   3.189  -1.070  0.00  0.00    +0.417 C 
ATOM     33  F   UNL     1       7.597   3.864  -0.835  0.00  0.00    -0.166 F 
ATOM     34  F   UNL     1       6.473   1.897  -0.541  0.00  0.00    -0.166 F 
ATOM     35  F   UNL     1       6.163   3.116  -2.448  0.00  0.00    -0.166 F 
ENDBRANCH  27  32
ENDBRANCH  23  25
ENDBRANCH  20  21
ENDBRANCH  19  20
ENDBRANCH   4  19
TORSDOF 6
