REMARK  Name = ZINC45150385
REMARK  9 active torsions:
REMARK  status: ('A' for Active; 'I' for Inactive)
REMARK    1  A    between atoms: C_9  and  S_11
REMARK    2  A    between atoms: S_11  and  C_12
REMARK    3  A    between atoms: C_12  and  C_13
REMARK    4  A    between atoms: N_15  and  N_16
REMARK    5  A    between atoms: C_17  and  C_19
REMARK    6  A    between atoms: C_19  and  C_20
REMARK    7  A    between atoms: C_20  and  C_21
REMARK    8  A    between atoms: C_21  and  N_22
REMARK    9  A    between atoms: C_26  and  C_27
REMARK                            x       y       z     vdW  Elec       q    Type
REMARK                         _______ _______ _______ _____ _____    ______ ____
ROOT
ATOM      1  N   UNL     1       8.731  -5.076  -0.107  0.00  0.00    -0.234 N 
ATOM      2  C   UNL     1      10.066  -4.885  -0.119  0.00  0.00    +0.229 C 
ATOM      3  O   UNL     1      10.517  -3.760  -0.119  0.00  0.00    -0.274 OA
ATOM      4  H   UNL     1       8.370  -5.976  -0.108  0.00  0.00    +0.173 HD
ENDROOT
BRANCH   1   7
ATOM      5  C   UNL     1       6.532  -4.164  -0.082  0.00  0.00    +0.239 C 
ATOM      6  O   UNL     1       6.080  -5.289  -0.082  0.00  0.00    -0.273 OA
ATOM      7  N   UNL     1       7.867  -3.974  -0.094  0.00  0.00    -0.234 N 
ATOM      8  H   UNL     1       8.228  -3.073  -0.093  0.00  0.00    +0.173 HD
BRANCH   5   9
ATOM      9  C   UNL     1       5.602  -2.978  -0.067  0.00  0.00    +0.174 C 
BRANCH   9  10
ATOM     10  S   UNL     1       3.883  -3.559  -0.053  0.00  0.00    -0.078 S 
BRANCH  10  19
ATOM     11  C   UNL     1      -0.017   1.375   0.010  0.00  0.00    +0.002 A 
ATOM     12  C   UNL     1       1.170   2.094   0.002  0.00  0.00    +0.002 A 
ATOM     13  C   UNL     1       2.382   1.442  -0.013  0.00  0.00    +0.030 A 
ATOM     14  C   UNL     1       2.418   0.045  -0.021  0.00  0.00    +0.090 A 
ATOM     15  C   UNL     1       1.214  -0.678  -0.013  0.00  0.00    +0.067 A 
ATOM     16  C   UNL     1       0.002  -0.004   0.002  0.00  0.00    +0.028 A 
ATOM     17  N   UNL     1       1.568  -2.017  -0.024  0.00  0.00    -0.333 N 
ATOM     18  H   UNL     1       0.960  -2.773  -0.022  0.00  0.00    +0.168 HD
ATOM     19  C   UNL     1       2.933  -2.075  -0.037  0.00  0.00    +0.168 A 
ATOM     20  N   UNL     1       3.429  -0.862  -0.036  0.00  0.00    -0.222 NA
ENDBRANCH  10  19
ENDBRANCH   9  10
ENDBRANCH   5   9
ENDBRANCH   1   7
BRANCH   2  21
ATOM     21  C   UNL     1      10.996  -6.071  -0.134  0.00  0.00    +0.099 C 
BRANCH  21  22
ATOM     22  C   UNL     1      12.445  -5.581  -0.146  0.00  0.00    +0.029 C 
BRANCH  22  23
ATOM     23  C   UNL     1      13.390  -6.785  -0.161  0.00  0.00    +0.115 C 
BRANCH  23  24
ATOM     24  N   UNL     1      14.778  -6.316  -0.172  0.00  0.00    -0.255 N 
ATOM     25  C   UNL     1      15.382  -6.098  -1.327  0.00  0.00    +0.258 C 
ATOM     26  O   UNL     1      14.802  -6.281  -2.383  0.00  0.00    -0.269 OA
ATOM     27  C   UNL     1      16.735  -5.642  -1.301  0.00  0.00    +0.078 C 
ATOM     28  C   UNL     1      17.571  -5.347  -2.337  0.00  0.00    +0.035 C 
ATOM     29  S   UNL     1      17.033  -5.563   0.460  0.00  0.00    -0.061 S 
ATOM     30  C   UNL     1      15.420  -6.108   0.999  0.00  0.00    +0.121 C 
ATOM     31  S   UNL     1      14.836  -6.317   2.595  0.00  0.00    -0.027 S 
BRANCH  28  32
ATOM     32  C   UNL     1      18.889  -4.906  -2.078  0.00  0.00    +0.013 A 
ATOM     33  C   UNL     1      19.889  -4.551  -2.978  0.00  0.00    +0.015 A 
ATOM     34  C   UNL     1      21.081  -4.157  -2.419  0.00  0.00    +0.008 A 
ATOM     35  C   UNL     1      21.202  -4.140  -1.068  0.00  0.00    +0.046 A 
ATOM     36  S   UNL     1      19.701  -4.650  -0.511  0.00  0.00    -0.097 S 
ENDBRANCH  28  32
ENDBRANCH  23  24
ENDBRANCH  22  23
ENDBRANCH  21  22
ENDBRANCH   2  21
TORSDOF 9
