REMARK  Name = ZINC03619944
REMARK  10 active torsions:
REMARK  status: ('A' for Active; 'I' for Inactive)
REMARK    1  A    between atoms: C_1  and  C_2
REMARK    2  A    between atoms: C_2  and  O_3
REMARK    3  A    between atoms: O_3  and  C_4
REMARK    4  A    between atoms: C_7  and  N_10
REMARK    5  A    between atoms: C_20  and  C_21
REMARK    6  A    between atoms: C_20  and  O_31
REMARK    7  A    between atoms: N_23  and  C_24
REMARK    8  A    between atoms: C_24  and  C_25
REMARK    9  A    between atoms: C_25  and  C_26
REMARK   10  A    between atoms: C_26  and  N_62
REMARK                            x       y       z     vdW  Elec       q    Type
REMARK                         _______ _______ _______ _____ _____    ______ ____
ROOT
ATOM      1  N   UNL     1      -2.442   6.182   0.059  0.00  0.00    -0.214 N 
ATOM      2  C   UNL     1      -1.267   6.703  -0.338  0.00  0.00    +0.314 C 
ATOM      3  O   UNL     1      -1.236   7.869  -0.680  0.00  0.00    -0.252 OA
ATOM      4  N   UNL     1      -0.130   5.997  -0.373  0.00  0.00    -0.269 N 
ATOM      5  C   UNL     1      -0.058   4.654  -0.001  0.00  0.00    +0.043 A 
ATOM      6  C   UNL     1       1.147   3.966  -0.056  0.00  0.00    +0.025 A 
ATOM      7  C   UNL     1       1.198   2.637   0.316  0.00  0.00    +0.017 A 
ATOM      8  C   UNL     1       0.054   1.987   0.744  0.00  0.00    +0.018 A 
ATOM      9  C   UNL     1      -1.152   2.667   0.795  0.00  0.00    +0.025 A 
ATOM     10  C   UNL     1      -1.203   3.992   0.429  0.00  0.00    +0.034 A 
ATOM     11  C   UNL     1      -2.497   4.771   0.477  0.00  0.00    +0.247 C 
ATOM     12 BR   UNL     1       0.135   0.167   1.251  0.00  0.00    -0.050 Br
ATOM     13  H   UNL     1       0.681   6.439  -0.671  0.00  0.00    +0.156 HD
ENDROOT
BRANCH   1  17
ATOM     14  C   UNL     1      -5.886   8.533   0.103  0.00  0.00    +0.121 A 
ATOM     15  C   UNL     1      -5.017   8.556   1.185  0.00  0.00    +0.047 A 
ATOM     16  C   UNL     1      -3.877   7.777   1.171  0.00  0.00    +0.027 A 
ATOM     17  C   UNL     1      -3.599   6.972   0.074  0.00  0.00    +0.042 A 
ATOM     18  C   UNL     1      -4.466   6.955  -1.010  0.00  0.00    +0.027 A 
ATOM     19  C   UNL     1      -5.609   7.729  -0.993  0.00  0.00    +0.047 A 
BRANCH  14  20
ATOM     20  O   UNL     1      -7.009   9.300   0.118  0.00  0.00    -0.492 OA
BRANCH  20  22
ATOM     21  C   UNL     1      -9.062  10.151  -0.831  0.00  0.00    +0.048 C 
ATOM     22  C   UNL     1      -7.859   9.227  -1.029  0.00  0.00    +0.225 C 
ENDBRANCH  20  22
ENDBRANCH  14  20
ENDBRANCH   1  17
BRANCH  11  23
ATOM     23  C   UNL     1      -3.016   4.725   1.891  0.00  0.00    +0.269 C 
ATOM     24  O   UNL     1      -4.059   4.157   2.137  0.00  0.00    -0.270 OA
ATOM     25  N   UNL     1      -2.320   5.314   2.884  0.00  0.00    -0.311 N 
ATOM     26  H   UNL     1      -1.485   5.768   2.687  0.00  0.00    +0.149 HD
BRANCH  25  27
ATOM     27  C   UNL     1      -2.823   5.270   4.258  0.00  0.00    +0.102 C 
BRANCH  27  28
ATOM     28  C   UNL     1      -1.852   6.008   5.182  0.00  0.00    +0.000 C 
BRANCH  28  29
ATOM     29  C   UNL     1      -2.378   5.961   6.618  0.00  0.00    -0.077 C 
BRANCH  29  34
ATOM     30  C   UNL     1      -1.163   8.037   6.995  0.00  0.00    -0.079 C 
ATOM     31  C   UNL     1      -0.640   8.781   8.250  0.00  0.00    -0.020 C 
ATOM     32  C   UNL     1      -1.518   8.205   9.384  0.00  0.00    -0.020 C 
ATOM     33  C   UNL     1      -2.030   6.854   8.850  0.00  0.00    -0.079 C 
ATOM     34  N   UNL     1      -1.439   6.691   7.522  0.00  0.00    +0.380 N 
ATOM     35  H   UNL     1      -0.563   6.160   7.595  0.00  0.00    -0.082 HD
ENDBRANCH  29  34
ENDBRANCH  28  29
ENDBRANCH  27  28
ENDBRANCH  25  27
ENDBRANCH  11  23
BRANCH  11  36
ATOM     36  O   UNL     1      -3.445   4.101  -0.357  0.00  0.00    -0.360 OA
ATOM     37  H   UNL     1      -3.633   3.192  -0.087  0.00  0.00    +0.213 HD
ENDBRANCH  11  36
TORSDOF 9
