REMARK  Name = ZINC62298919
REMARK  4 active torsions:
REMARK  status: ('A' for Active; 'I' for Inactive)
REMARK    1  A    between atoms: C_1  and  N_2
REMARK    2  A    between atoms: C_3  and  C_9
REMARK    3  A    between atoms: C_4  and  C_7
REMARK    4  A    between atoms: C_7  and  N_8
REMARK                            x       y       z     vdW  Elec       q    Type
REMARK                         _______ _______ _______ _____ _____    ______ ____
ROOT
ATOM      1  C   UNL     1      -0.018   1.461   0.010  0.00  0.00    +0.175 C 
ATOM      2  N   UNL     1       0.002  -0.004   0.002  0.00  0.00    -0.247 N 
ATOM      3  C   UNL     1       0.008  -0.801  -1.108  0.00  0.00    +0.091 A 
ATOM      4  C   UNL     1       0.027  -2.086  -0.642  0.00  0.00    +0.073 A 
ATOM      5  N   UNL     1       0.032  -2.003   0.690  0.00  0.00    -0.136 NA
ATOM      6  N   UNL     1       0.023  -0.766   1.039  0.00  0.00    -0.065 NA
ENDROOT
BRANCH   3   7
ATOM      7  C   UNL     1      -0.005  -0.363  -2.522  0.00  0.00    +0.016 A 
ATOM      8  C   UNL     1       1.195  -0.146  -3.199  0.00  0.00    +0.011 A 
ATOM      9  C   UNL     1       1.177   0.262  -4.517  0.00  0.00    +0.001 A 
ATOM     10  C   UNL     1      -0.029   0.455  -5.168  0.00  0.00    +0.001 A 
ATOM     11  C   UNL     1      -1.222   0.240  -4.503  0.00  0.00    +0.016 A 
ATOM     12  C   UNL     1      -1.218  -0.172  -3.185  0.00  0.00    +0.027 A 
ATOM     13 BR   UNL     1      -2.851  -0.472  -2.280  0.00  0.00    -0.050 Br
ENDBRANCH   3   7
BRANCH   4  14
ATOM     14  C   UNL     1       0.040  -3.346  -1.469  0.00  0.00    -0.026 C 
BRANCH  14  15
ATOM     15  N   UNL     1       1.429  -3.736  -1.744  0.00  0.00    +0.382 N 
ATOM     16  H   UNL     1       1.893  -2.997  -2.251  0.00  0.00    -0.090 HD
ATOM     17  H   UNL     1       1.912  -3.901  -0.873  0.00  0.00    -0.090 HD
ATOM     18  H   UNL     1       1.438  -4.580  -2.297  0.00  0.00    -0.090 HD
ENDBRANCH  14  15
ENDBRANCH   4  14
TORSDOF 3
