REMARK  Name = ZINC56611789
REMARK  10 active torsions:
REMARK  status: ('A' for Active; 'I' for Inactive)
REMARK    1  A    between atoms: C_1  and  C_2
REMARK    2  A    between atoms: C_3  and  C_26
REMARK    3  A    between atoms: C_7  and  N_8
REMARK    4  A    between atoms: N_11  and  C_12
REMARK    5  A    between atoms: C_12  and  C_14
REMARK    6  A    between atoms: C_12  and  C_15
REMARK    7  A    between atoms: C_15  and  N_16
REMARK    8  A    between atoms: C_18  and  C_25
REMARK    9  A    between atoms: C_21  and  C_24
REMARK   10  A    between atoms: N_28  and  C_29
REMARK                            x       y       z     vdW  Elec       q    Type
REMARK                         _______ _______ _______ _____ _____    ______ ____
ROOT
ATOM      1  N   UNL     1      -0.278  -0.138   2.841  0.00  0.00    -0.269 N 
ATOM      2  C   UNL     1       0.068  -0.659   4.034  0.00  0.00    +0.304 C 
ATOM      3  O   UNL     1       0.206  -1.861   4.156  0.00  0.00    -0.253 OA
ATOM      4  N   UNL     1       0.262   0.152   5.093  0.00  0.00    -0.298 N 
ATOM      5  H   UNL     1      -0.458   0.812   2.760  0.00  0.00    +0.156 HD
ATOM      6  H   UNL     1       0.153   1.111   4.996  0.00  0.00    +0.150 HD
ENDROOT
BRANCH   1  13
ATOM      7  C   UNL     1      -1.915   0.723   0.681  0.00  0.00    +0.046 C 
ATOM      8  C   UNL     1      -1.166  -0.585   0.643  0.00  0.00    -0.017 A 
ATOM      9  C   UNL     1      -1.259  -1.411  -0.477  0.00  0.00    +0.041 A 
ATOM     10  C   UNL     1      -0.562  -2.621  -0.505  0.00  0.00    +0.013 A 
ATOM     11  C   UNL     1       0.214  -2.995   0.573  0.00  0.00    +0.003 A 
ATOM     12  C   UNL     1       0.306  -2.175   1.682  0.00  0.00    +0.023 A 
ATOM     13  C   UNL     1      -0.379  -0.967   1.718  0.00  0.00    +0.038 A 
BRANCH   9  14
ATOM     14  C   UNL     1      -2.092  -1.008  -1.630  0.00  0.00    +0.244 C 
ATOM     15  O   UNL     1      -2.611   0.090  -1.650  0.00  0.00    -0.270 OA
ATOM     16  N   UNL     1      -2.275  -1.859  -2.659  0.00  0.00    -0.314 N 
ATOM     17  C   UNL     1      -3.101  -1.460  -3.802  0.00  0.00    +0.128 C 
ATOM     18  H   UNL     1      -1.860  -2.736  -2.643  0.00  0.00    +0.149 HD
ENDBRANCH   9  14
ENDBRANCH   1  13
BRANCH   4  19
ATOM     19  C   UNL     1       0.639  -0.415   6.391  0.00  0.00    +0.055 C 
ATOM     20  C   UNL     1       2.162  -0.529   6.474  0.00  0.00    +0.026 C 
BRANCH  19  21
ATOM     21  C   UNL     1       0.134   0.496   7.511  0.00  0.00    -0.057 C 
BRANCH  21  22
ATOM     22  N   UNL     1      -1.314   0.696   7.364  0.00  0.00    +0.381 N 
ATOM     23  C   UNL     1      -1.776   1.670   8.361  0.00  0.00    -0.076 C 
ATOM     24  C   UNL     1      -3.268   1.942   8.160  0.00  0.00    -0.031 C 
ATOM     25  C   UNL     1      -4.047   0.634   8.323  0.00  0.00    +0.003 C 
ATOM     26  C   UNL     1      -3.507  -0.398   7.329  0.00  0.00    -0.031 C 
ATOM     27  C   UNL     1      -2.006  -0.584   7.561  0.00  0.00    -0.076 C 
ATOM     28  C   UNL     1      -4.226  -1.732   7.537  0.00  0.00    +0.005 C 
ATOM     29  C   UNL     1      -3.500   2.504   6.756  0.00  0.00    +0.005 C 
ATOM     30  H   UNL     1      -1.512   1.045   6.439  0.00  0.00    -0.082 HD
ENDBRANCH  21  22
ENDBRANCH  19  21
ENDBRANCH   4  19
TORSDOF 5
