REMARK  Name = ZINC64959835
REMARK  3 active torsions:
REMARK  status: ('A' for Active; 'I' for Inactive)
REMARK    1  A    between atoms: C_1  and  C_2
REMARK    2  A    between atoms: C_9  and  C_15
REMARK    3  A    between atoms: N_17  and  C_18
REMARK                            x       y       z     vdW  Elec       q    Type
REMARK                         _______ _______ _______ _____ _____    ______ ____
ROOT
ATOM      1  C   UNL     1      -0.012   1.517   0.040  0.00  0.00    +0.044 C 
ATOM      2  C   UNL     1       0.002   0.010   0.029  0.00  0.00    -0.049 A 
ATOM      3  C   UNL     1      -0.006  -0.670  -1.175  0.00  0.00    +0.005 A 
ATOM      4  C   UNL     1       0.016  -2.053  -1.185  0.00  0.00    +0.030 A 
ATOM      5  C   UNL     1       0.039  -2.751   0.004  0.00  0.00    +0.126 A 
ATOM      6  C   UNL     1       0.034  -2.079   1.219  0.00  0.00    +0.056 A 
ATOM      7  C   UNL     1       0.029  -0.684   1.220  0.00  0.00    +0.028 A 
ATOM      8  N   UNL     1       0.015  -2.751   2.438  0.00  0.00    -0.319 N 
ATOM      9  C   UNL     1       0.461  -4.132   2.600  0.00  0.00    +0.247 C 
ATOM     10  N   UNL     1      -0.193  -4.965   1.571  0.00  0.00    -0.161 NA
ATOM     11  S   UNL     1       0.084  -4.518  -0.013  0.00  0.00    +0.062 S 
ATOM     12  O   UNL     1      -1.037  -4.955  -0.770  0.00  0.00    -0.153 OA
ATOM     13  O   UNL     1       1.418  -4.896  -0.324  0.00  0.00    -0.153 OA
ATOM     14  H   UNL     1      -0.312  -2.278   3.219  0.00  0.00    +0.148 HD
ATOM     15  H   UNL     1      -0.748  -5.726   1.801  0.00  0.00    +0.151 HD
ENDROOT
BRANCH   9  16
ATOM     16  C   UNL     1       1.958  -4.202   2.435  0.00  0.00    +0.254 C 
ATOM     17  O   UNL     1       2.558  -3.270   1.944  0.00  0.00    -0.272 OA
ATOM     18  N   UNL     1       2.629  -5.300   2.835  0.00  0.00    -0.280 N 
ATOM     19  H   UNL     1       2.159  -6.019   3.287  0.00  0.00    +0.155 HD
BRANCH  18  20
ATOM     20  C   UNL     1       4.006  -5.405   2.598  0.00  0.00    +0.069 A 
ATOM     21  C   UNL     1       4.808  -4.273   2.647  0.00  0.00    +0.029 A 
ATOM     22  C   UNL     1       6.165  -4.377   2.413  0.00  0.00    +0.040 A 
ATOM     23  C   UNL     1       6.728  -5.610   2.129  0.00  0.00    +0.126 A 
ATOM     24  C   UNL     1       5.931  -6.742   2.078  0.00  0.00    +0.078 A 
ATOM     25  C   UNL     1       4.573  -6.643   2.318  0.00  0.00    +0.147 A 
ATOM     26  F   UNL     1       3.796  -7.748   2.274  0.00  0.00    -0.203 F 
ATOM     27  F   UNL     1       8.056  -5.709   1.900  0.00  0.00    -0.205 F 
ENDBRANCH  18  20
ENDBRANCH   9  16
TORSDOF 2
