REMARK  Name = ZINC63633456
REMARK  5 active torsions:
REMARK  status: ('A' for Active; 'I' for Inactive)
REMARK    1  A    between atoms: C_1  and  C_2
REMARK    2  A    between atoms: C_8  and  C_28
REMARK    3  A    between atoms: N_16  and  C_17
REMARK    4  A    between atoms: C_17  and  C_18
REMARK    5  A    between atoms: C_18  and  C_19
REMARK                            x       y       z     vdW  Elec       q    Type
REMARK                         _______ _______ _______ _____ _____    ______ ____
ROOT
ATOM      1  C   UNL     1       0.022   1.484  -0.230  0.00  0.00    +0.024 C 
ATOM      2  C   UNL     1       0.035  -0.044  -0.172  0.00  0.00    +0.062 C 
ATOM      3  C   UNL     1      -1.404  -0.573  -0.148  0.00  0.00    +0.114 C 
ATOM      4  C   UNL     1      -1.355  -2.065   0.048  0.00  0.00    +0.221 C 
ATOM      5  O   UNL     1      -2.284  -2.745  -0.336  0.00  0.00    -0.275 OA
ATOM      6  N   UNL     1      -0.308  -2.659   0.637  0.00  0.00    -0.244 N 
ATOM      7  C   UNL     1      -0.314  -4.124   0.803  0.00  0.00    +0.230 C 
ATOM      8  N   UNL     1       0.193  -4.468   2.129  0.00  0.00    -0.228 NA
ATOM      9  C   UNL     1       0.832  -3.640   2.887  0.00  0.00    +0.180 C 
ATOM     10  N   UNL     1       1.067  -2.334   2.531  0.00  0.00    -0.286 N 
ATOM     11  C   UNL     1       0.863  -1.933   1.129  0.00  0.00    +0.239 C 
ATOM     12  N   UNL     1       0.712  -0.486   1.052  0.00  0.00    -0.280 NA
ATOM     13  N   UNL     1       1.297  -4.084   4.102  0.00  0.00    -0.317 N 
ATOM     14  H   UNL     1       1.362  -1.687   3.192  0.00  0.00    +0.152 HD
ATOM     15  H   UNL     1       1.780  -3.479   4.688  0.00  0.00    +0.149 HD
ATOM     16  H   UNL     1       1.601  -0.022   1.161  0.00  0.00    +0.125 HD
ENDROOT
BRANCH   7  17
ATOM     17  C   UNL     1      -1.721  -4.640   0.655  0.00  0.00    -0.005 A 
ATOM     18  C   UNL     1      -2.057  -5.431  -0.428  0.00  0.00    +0.007 A 
ATOM     19  C   UNL     1      -3.348  -5.905  -0.564  0.00  0.00    +0.000 A 
ATOM     20  C   UNL     1      -4.304  -5.589   0.383  0.00  0.00    +0.000 A 
ATOM     21  C   UNL     1      -3.968  -4.799   1.467  0.00  0.00    +0.000 A 
ATOM     22  C   UNL     1      -2.676  -4.329   1.605  0.00  0.00    +0.007 A 
ENDBRANCH   7  17
BRANCH  13  23
ATOM     23  C   UNL     1       1.065  -5.471   4.513  0.00  0.00    +0.108 C 
BRANCH  23  24
ATOM     24  C   UNL     1       1.680  -5.704   5.894  0.00  0.00    +0.052 C 
BRANCH  24  25
ATOM     25  C   UNL     1       1.440  -7.131   6.317  0.00  0.00    -0.040 C 
ATOM     26  C   UNL     1       2.286  -8.175   6.168  0.00  0.00    -0.001 A 
ATOM     27  C   UNL     1       3.630  -8.292   5.590  0.00  0.00    +0.010 A 
ATOM     28  C   UNL     1       4.239  -9.500   5.584  0.00  0.00    +0.001 A 
ATOM     29  C   UNL     1       3.620 -10.640   6.113  0.00  0.00    +0.002 A 
ATOM     30  C   UNL     1       2.386 -10.612   6.661  0.00  0.00    +0.026 A 
ATOM     31  C   UNL     1       1.654  -9.394   6.721  0.00  0.00    +0.043 A 
ATOM     32  N   UNL     1       0.464  -9.114   7.194  0.00  0.00    -0.380 N 
ATOM     33  C   UNL     1       0.208  -7.683   6.998  0.00  0.00    +0.144 C 
ATOM     34  H   UNL     1      -0.145  -9.747   7.606  0.00  0.00    +0.160 HD
ENDBRANCH  24  25
ENDBRANCH  23  24
ENDBRANCH  13  23
TORSDOF 4
