REMARK  Name = ZINC04083587
REMARK  9 active torsions:
REMARK  status: ('A' for Active; 'I' for Inactive)
REMARK    1  A    between atoms: C_1  and  C_2
REMARK    2  A    between atoms: C_5  and  N_8
REMARK    3  A    between atoms: C_9  and  C_11
REMARK    4  A    between atoms: C_11  and  C_13
REMARK    5  A    between atoms: C_11  and  N_17
REMARK    6  A    between atoms: C_13  and  C_15
REMARK    7  A    between atoms: C_13  and  C_16
REMARK    8  A    between atoms: C_18  and  C_20
REMARK    9  A    between atoms: C_26  and  C_28
REMARK                            x       y       z     vdW  Elec       q    Type
REMARK                         _______ _______ _______ _____ _____    ______ ____
ROOT
ATOM      1  N   UNL     1       1.189   1.970   0.659  0.00  0.00    -0.304 N 
ATOM      2  C   UNL     1       2.071   1.325   1.448  0.00  0.00    +0.217 C 
ATOM      3  O   UNL     1       1.745   0.302   2.011  0.00  0.00    -0.275 OA
ATOM      4  H   UNL     1       1.449   2.789   0.209  0.00  0.00    +0.149 HD
ENDROOT
BRANCH   2   5
ATOM      5  C   UNL     1       3.462   1.875   1.629  0.00  0.00    +0.078 C 
ATOM      6  C   UNL     1       4.163   1.947   0.271  0.00  0.00    +0.032 C 
ATOM      7  C   UNL     1       5.564   2.539   0.454  0.00  0.00    +0.108 C 
ATOM      8  N   UNL     1       6.283   1.748   1.462  0.00  0.00    -0.303 N 
ATOM      9  C   UNL     1       5.657   1.540   2.775  0.00  0.00    +0.108 C 
ATOM     10  C   UNL     1       4.254   0.960   2.565  0.00  0.00    +0.032 C 
ATOM     11  C   UNL     1       7.494   1.224   1.189  0.00  0.00    +0.202 C 
ATOM     12  O   UNL     1       8.078   0.574   2.030  0.00  0.00    -0.277 OA
BRANCH  11  13
ATOM     13  C   UNL     1       8.124   1.447  -0.163  0.00  0.00    +0.016 C 
ATOM     14  C   UNL     1       7.526   0.474  -1.202  0.00  0.00    -0.009 C 
ATOM     15  C   UNL     1       8.709   0.079  -2.109  0.00  0.00    -0.020 C 
ATOM     16  C   UNL     1       9.923   0.847  -1.541  0.00  0.00    -0.082 C 
ATOM     17  N   UNL     1       9.548   1.110  -0.151  0.00  0.00    +0.387 N 
ATOM     18  H   UNL     1       9.711   0.276   0.424  0.00  0.00    -0.085 HD
ATOM     19  H   UNL     1      10.095   1.895   0.221  0.00  0.00    -0.085 HD
ENDBRANCH  11  13
ENDBRANCH   2   5
BRANCH   1  20
ATOM     20  C   UNL     1      -0.164   1.436   0.483  0.00  0.00    +0.162 C 
BRANCH  20  22
ATOM     21  N   UNL     1      -1.717   1.228  -1.430  0.00  0.00    -0.284 N 
ATOM     22  C   UNL     1      -0.727   1.916  -0.830  0.00  0.00    +0.238 C 
ATOM     23  O   UNL     1      -0.288   2.922  -1.346  0.00  0.00    -0.273 OA
ATOM     24  H   UNL     1      -2.011   0.380  -1.062  0.00  0.00    +0.155 HD
BRANCH  21  29
ATOM     25  C   UNL     1      -4.172   3.290  -6.111  0.00  0.00    +0.044 C 
ATOM     26  C   UNL     1      -3.520   2.742  -4.868  0.00  0.00    -0.050 A 
ATOM     27  C   UNL     1      -4.268   2.015  -3.959  0.00  0.00    +0.005 A 
ATOM     28  C   UNL     1      -3.673   1.512  -2.819  0.00  0.00    +0.023 A 
ATOM     29  C   UNL     1      -2.323   1.736  -2.585  0.00  0.00    +0.033 A 
ATOM     30  C   UNL     1      -1.576   2.471  -3.496  0.00  0.00    +0.023 A 
ATOM     31  C   UNL     1      -2.175   2.967  -4.638  0.00  0.00    +0.005 A 
ENDBRANCH  21  29
ENDBRANCH  20  22
BRANCH  20  32
ATOM     32  C   UNL     1      -1.056   1.919   1.628  0.00  0.00    +0.012 C 
ATOM     33  C   UNL     1      -0.582   1.296   2.942  0.00  0.00    +0.009 C 
ATOM     34  C   UNL     1      -0.976   3.444   1.728  0.00  0.00    +0.009 C 
ENDBRANCH  20  32
ENDBRANCH   1  20
TORSDOF 6
