REMARK  Name = ZINC49150508
REMARK  7 active torsions:
REMARK  status: ('A' for Active; 'I' for Inactive)
REMARK    1  A    between atoms: C_1  and  C_2
REMARK    2  A    between atoms: C_2  and  C_4
REMARK    3  A    between atoms: C_2  and  N_10
REMARK    4  A    between atoms: C_4  and  N_5
REMARK    5  A    between atoms: N_10  and  S_11
REMARK    6  A    between atoms: S_11  and  C_14
REMARK    7  A    between atoms: C_17  and  N_21
REMARK                            x       y       z     vdW  Elec       q    Type
REMARK                         _______ _______ _______ _____ _____    ______ ____
ROOT
ATOM      1  S   UNL     1      -1.796  -0.560  -1.536  0.00  0.00    +0.060 S 
ATOM      2  O   UNL     1      -0.985  -1.493  -2.236  0.00  0.00    -0.153 OA
ATOM      3  O   UNL     1      -3.169  -0.801  -1.259  0.00  0.00    -0.153 OA
ENDROOT
BRANCH   1   4
ATOM      4  C   UNL     1      -1.724   0.950  -2.442  0.00  0.00    +0.119 A 
ATOM      5  C   UNL     1      -0.995   1.016  -3.616  0.00  0.00    +0.031 A 
ATOM      6  C   UNL     1      -0.936   2.197  -4.328  0.00  0.00    +0.025 A 
ATOM      7  C   UNL     1      -1.609   3.321  -3.865  0.00  0.00    +0.026 A 
ATOM      8  C   UNL     1      -2.340   3.252  -2.686  0.00  0.00    +0.040 A 
ATOM      9  C   UNL     1      -2.400   2.065  -1.980  0.00  0.00    +0.046 A 
ATOM     10 BR   UNL     1      -3.401   1.967  -0.379  0.00  0.00    -0.048 Br
BRANCH   7  11
ATOM     11  N   UNL     1      -1.550   4.518  -4.583  0.00  0.00    -0.358 N 
ATOM     12  H   UNL     1      -1.039   4.565  -5.406  0.00  0.00    +0.142 HD
ATOM     13  H   UNL     1      -2.020   5.302  -4.258  0.00  0.00    +0.142 HD
ENDBRANCH   7  11
ENDBRANCH   1   4
BRANCH   1  14
ATOM     14  N   UNL     1      -1.059  -0.292  -0.078  0.00  0.00    -0.189 NA
ATOM     15  H   UNL     1      -1.574  -0.343   0.743  0.00  0.00    +0.148 HD
BRANCH  14  17
ATOM     16  C   UNL     1       0.557   1.540   0.044  0.00  0.00    +0.024 C 
ATOM     17  C   UNL     1       0.371   0.023  -0.027  0.00  0.00    +0.057 C 
BRANCH  17  18
ATOM     18  C   UNL     1       0.992  -0.625   1.212  0.00  0.00    -0.059 C 
BRANCH  18  19
ATOM     19  N   UNL     1       0.742  -2.072   1.185  0.00  0.00    +0.381 N 
ATOM     20  C   UNL     1       1.528  -2.707   0.095  0.00  0.00    -0.079 C 
ATOM     21  C   UNL     1       1.615  -4.189   0.537  0.00  0.00    -0.020 C 
ATOM     22  C   UNL     1       1.775  -4.083   2.071  0.00  0.00    -0.020 C 
ATOM     23  C   UNL     1       1.217  -2.696   2.439  0.00  0.00    -0.079 C 
ATOM     24  H   UNL     1      -0.242  -2.254   1.057  0.00  0.00    -0.082 HD
ENDBRANCH  18  19
ENDBRANCH  17  18
ENDBRANCH  14  17
ENDBRANCH   1  14
TORSDOF 6
