REMARK  Name = ZINC65435196
REMARK  7 active torsions:
REMARK  status: ('A' for Active; 'I' for Inactive)
REMARK    1  A    between atoms: C_1  and  C_2
REMARK    2  A    between atoms: C_5  and  C_27
REMARK    3  A    between atoms: N_8  and  C_10
REMARK    4  A    between atoms: C_10  and  C_11
REMARK    5  A    between atoms: C_11  and  N_12
REMARK    6  A    between atoms: N_15  and  C_16
REMARK    7  A    between atoms: C_16  and  C_17
REMARK                            x       y       z     vdW  Elec       q    Type
REMARK                         _______ _______ _______ _____ _____    ______ ____
ROOT
ATOM      1  N   UNL     1       2.927  -0.202   4.830  0.00  0.00    -0.301 N 
ATOM      2  C   UNL     1       4.167   0.278   5.047  0.00  0.00    +0.300 C 
ATOM      3  O   UNL     1       4.662   1.061   4.260  0.00  0.00    -0.253 OA
ATOM      4  N   UNL     1       4.859  -0.111   6.136  0.00  0.00    -0.292 N 
ATOM      5  H   UNL     1       2.532  -0.827   5.457  0.00  0.00    +0.150 HD
ATOM      6  H   UNL     1       4.465  -0.737   6.763  0.00  0.00    +0.151 HD
ENDROOT
BRANCH   1   7
ATOM      7  C   UNL     1       2.174   0.221   3.646  0.00  0.00    +0.087 C 
BRANCH   7   8
ATOM      8  C   UNL     1       0.807  -0.464   3.639  0.00  0.00    -0.060 C 
BRANCH   8  14
ATOM      9  C   UNL     1      -0.019   1.526   0.010  0.00  0.00    +0.005 C 
ATOM     10  C   UNL     1       0.002  -0.004   0.002  0.00  0.00    -0.031 C 
ATOM     11  C   UNL     1      -1.434  -0.535   0.015  0.00  0.00    +0.003 C 
ATOM     12  C   UNL     1      -2.117  -0.099   1.315  0.00  0.00    -0.031 C 
ATOM     13  C   UNL     1      -1.302  -0.604   2.507  0.00  0.00    -0.076 C 
ATOM     14  N   UNL     1       0.052  -0.040   2.452  0.00  0.00    +0.381 N 
ATOM     15  C   UNL     1       0.740  -0.512   1.242  0.00  0.00    -0.076 C 
ATOM     16  C   UNL     1      -3.528  -0.689   1.373  0.00  0.00    +0.005 C 
ATOM     17  H   UNL     1      -0.004   0.967   2.434  0.00  0.00    -0.082 HD
ENDBRANCH   8  14
ENDBRANCH   7   8
ENDBRANCH   1   7
BRANCH   4  18
ATOM     18  C   UNL     1       6.208   0.410   6.371  0.00  0.00    +0.182 C 
BRANCH  18  19
ATOM     19  C   UNL     1       6.758  -0.177   7.646  0.00  0.00    +0.151 A 
ATOM     20  N   UNL     1       6.630   0.321   8.848  0.00  0.00    -0.133 NA
ATOM     21  N   UNL     1       7.218  -0.446   9.699  0.00  0.00    -0.134 NA
ATOM     22  C   UNL     1       7.741  -1.465   9.080  0.00  0.00    +0.133 A 
ATOM     23  N   UNL     1       7.470  -1.320   7.762  0.00  0.00    -0.314 N 
ATOM     24  C   UNL     1       7.885  -2.217   6.683  0.00  0.00    +0.125 C 
ATOM     25  C   UNL     1       8.037  -3.638   7.234  0.00  0.00    +0.022 C 
ATOM     26  C   UNL     1       9.462  -3.842   7.745  0.00  0.00    +0.002 C 
ATOM     27  C   UNL     1       9.767  -2.870   8.880  0.00  0.00    +0.008 C 
ATOM     28  C   UNL     1       8.501  -2.612   9.694  0.00  0.00    +0.076 C 
ENDBRANCH  18  19
ENDBRANCH   4  18
TORSDOF 5
