REMARK  Name = ZINC22926982
REMARK  9 active torsions:
REMARK  status: ('A' for Active; 'I' for Inactive)
REMARK    1  A    between atoms: C_1  and  N_2
REMARK    2  A    between atoms: N_5  and  C_8
REMARK    3  A    between atoms: C_8  and  C_9
REMARK    4  A    between atoms: C_18  and  C_20
REMARK    5  A    between atoms: C_20  and  N_21
REMARK    6  A    between atoms: N_21  and  C_22
REMARK    7  A    between atoms: C_22  and  N_24
REMARK    8  A    between atoms: N_24  and  C_25
REMARK    9  A    between atoms: C_25  and  C_26
REMARK                            x       y       z     vdW  Elec       q    Type
REMARK                         _______ _______ _______ _____ _____    ______ ____
ROOT
ATOM      1  C   UNL     1      -0.086  -4.485   2.544  0.00  0.00    -0.011 C 
ATOM      2  C   UNL     1      -1.034  -4.052   3.664  0.00  0.00    -0.073 C 
ATOM      3  N   UNL     1      -1.540  -5.228   4.375  0.00  0.00    +0.383 N 
ATOM      4  C   UNL     1      -0.439  -5.969   4.995  0.00  0.00    -0.078 C 
ATOM      5  C   UNL     1       0.529  -6.466   3.920  0.00  0.00    -0.015 C 
ATOM      6  C   UNL     1       0.019  -6.016   2.544  0.00  0.00    -0.012 C 
ATOM      7  C   UNL     1      -1.386  -6.597   2.339  0.00  0.00    -0.010 C 
ATOM      8  C   UNL     1      -2.298  -6.093   3.468  0.00  0.00    -0.051 C 
ATOM      9  H   UNL     1      -2.159  -4.916   5.109  0.00  0.00    -0.081 HD
ENDROOT
BRANCH   1  10
ATOM     10  C   UNL     1      -0.632  -4.009   1.196  0.00  0.00    +0.086 C 
BRANCH  10  15
ATOM     11  C   UNL     1      -0.018   1.465   0.010  0.00  0.00    -0.096 C 
ATOM     12  N   UNL     1       0.002  -0.004   0.002  0.00  0.00    +0.379 N 
ATOM     13  C   UNL     1      -1.376  -0.512   0.011  0.00  0.00    -0.064 C 
ATOM     14  C   UNL     1      -1.356  -2.042  -0.017  0.00  0.00    +0.066 C 
ATOM     15  N   UNL     1      -0.624  -2.541   1.156  0.00  0.00    -0.306 NA
ATOM     16  C   UNL     1       0.750  -2.020   1.175  0.00  0.00    +0.066 C 
ATOM     17  C   UNL     1       0.713  -0.490   1.192  0.00  0.00    -0.064 C 
ATOM     18  H   UNL     1       0.475  -0.329  -0.828  0.00  0.00    -0.082 HD
ENDBRANCH  10  15
ENDBRANCH   1  10
BRANCH   8  19
ATOM     19  C   UNL     1      -3.463  -5.304   2.868  0.00  0.00    +0.088 C 
BRANCH  19  20
ATOM     20  N   UNL     1      -4.274  -4.734   3.947  0.00  0.00    -0.328 N 
ATOM     21  H   UNL     1      -4.028  -4.890   4.872  0.00  0.00    +0.148 HD
BRANCH  20  22
ATOM     22  C   UNL     1      -5.361  -3.993   3.653  0.00  0.00    +0.131 C 
ATOM     23  S   UNL     1      -5.794  -3.718   2.020  0.00  0.00    -0.019 S 
BRANCH  22  24
ATOM     24  N   UNL     1      -6.107  -3.469   4.646  0.00  0.00    -0.319 N 
ATOM     25  H   UNL     1      -5.862  -3.625   5.571  0.00  0.00    +0.148 HD
BRANCH  24  26
ATOM     26  C   UNL     1      -7.289  -2.664   4.327  0.00  0.00    +0.177 C 
BRANCH  26  27
ATOM     27  C   UNL     1      -7.941  -2.201   5.604  0.00  0.00    +0.122 A 
ATOM     28  C   UNL     1      -7.668  -1.056   6.257  0.00  0.00    +0.046 A 
ATOM     29  C   UNL     1      -8.504  -1.025   7.396  0.00  0.00    +0.041 A 
ATOM     30  C   UNL     1      -9.238  -2.152   7.372  0.00  0.00    +0.195 A 
ATOM     31  O   UNL     1      -8.896  -2.858   6.282  0.00  0.00    -0.466 OA
ENDBRANCH  26  27
ENDBRANCH  24  26
ENDBRANCH  22  24
ENDBRANCH  20  22
ENDBRANCH  19  20
ENDBRANCH   8  19
TORSDOF 8
