REMARK  Name = ZINC44714471
REMARK  10 active torsions:
REMARK  status: ('A' for Active; 'I' for Inactive)
REMARK    1  A    between atoms: C_1  and  C_2
REMARK    2  A    between atoms: C_2  and  C_3
REMARK    3  A    between atoms: C_3  and  C_5
REMARK    4  A    between atoms: C_3  and  C_6
REMARK    5  A    between atoms: C_10  and  C_19
REMARK    6  A    between atoms: N_21  and  C_22
REMARK    7  A    between atoms: C_22  and  C_23
REMARK    8  A    between atoms: C_23  and  C_24
REMARK    9  A    between atoms: C_25  and  C_36
REMARK   10  A    between atoms: C_31  and  C_34
REMARK                            x       y       z     vdW  Elec       q    Type
REMARK                         _______ _______ _______ _____ _____    ______ ____
ROOT
ATOM      1  C   UNL     1       3.544  -3.147  -5.152  0.00  0.00    +0.218 C 
ATOM      2  O   UNL     1       2.591  -3.304  -5.886  0.00  0.00    -0.275 OA
ATOM      3  N   UNL     1       4.794  -3.179  -5.654  0.00  0.00    -0.315 N 
ATOM      4  H   UNL     1       5.556  -3.053  -5.067  0.00  0.00    +0.149 HD
ENDROOT
BRANCH   1   9
ATOM      5  C   UNL     1       0.814  -2.158  -1.185  0.00  0.00    +0.218 C 
ATOM      6  O   UNL     1       0.434  -2.793  -0.224  0.00  0.00    -0.275 OA
ATOM      7  N   UNL     1       1.452  -2.782  -2.195  0.00  0.00    -0.300 N 
ATOM      8  C   UNL     1       1.991  -2.181  -3.438  0.00  0.00    +0.121 C 
ATOM      9  C   UNL     1       3.329  -2.915  -3.678  0.00  0.00    +0.100 C 
ATOM     10  C   UNL     1       3.179  -4.256  -2.940  0.00  0.00    -0.004 C 
ATOM     11  C   UNL     1       1.779  -4.224  -2.311  0.00  0.00    +0.115 C 
ATOM     12  C   UNL     1       4.238  -4.379  -1.848  0.00  0.00    -0.010 C 
ATOM     13  C   UNL     1       4.105  -5.744  -1.166  0.00  0.00    -0.082 C 
ATOM     14  N   UNL     1       4.274  -6.809  -2.162  0.00  0.00    +0.379 N 
ATOM     15  C   UNL     1       3.197  -6.739  -3.157  0.00  0.00    -0.082 C 
ATOM     16  C   UNL     1       3.291  -5.417  -3.923  0.00  0.00    -0.010 C 
ATOM     17  H   UNL     1       5.164  -6.698  -2.624  0.00  0.00    -0.086 HD
ATOM     18  H   UNL     1       4.247  -7.706  -1.701  0.00  0.00    -0.086 HD
BRANCH   5  19
ATOM     19  C   UNL     1       0.572  -0.672  -1.251  0.00  0.00    +0.072 C 
ATOM     20  C   UNL     1      -0.277  -0.347  -2.481  0.00  0.00    +0.017 C 
BRANCH  19  22
ATOM     21  C   UNL     1      -0.300   1.304   0.004  0.00  0.00    +0.004 C 
ATOM     22  C   UNL     1      -0.165  -0.220   0.011  0.00  0.00    +0.009 C 
ENDBRANCH  19  22
ENDBRANCH   5  19
ENDBRANCH   1   9
BRANCH   3  23
ATOM     23  C   UNL     1       5.003  -3.404  -7.086  0.00  0.00    +0.109 C 
BRANCH  23  24
ATOM     24  C   UNL     1       6.502  -3.394  -7.391  0.00  0.00    +0.056 C 
BRANCH  24  25
ATOM     25  C   UNL     1       6.717  -3.625  -8.865  0.00  0.00    -0.018 A 
ATOM     26  C   UNL     1       6.867  -4.811  -9.474  0.00  0.00    +0.017 A 
ATOM     27  N   UNL     1       7.040  -4.628 -10.819  0.00  0.00    -0.358 N 
ATOM     28  H   UNL     1       7.168  -5.339 -11.466  0.00  0.00    +0.166 HD
ATOM     29  C   UNL     1       7.005  -3.286 -11.118  0.00  0.00    +0.047 A 
ATOM     30  C   UNL     1       6.795  -2.597  -9.907  0.00  0.00    +0.004 A 
ATOM     31  C   UNL     1       6.710  -1.207  -9.902  0.00  0.00    +0.029 A 
ATOM     32  C   UNL     1       6.831  -0.511 -11.101  0.00  0.00    +0.052 A 
ATOM     33  C   UNL     1       7.036  -1.209 -12.300  0.00  0.00    +0.021 A 
ATOM     34  C   UNL     1       7.126  -2.570 -12.306  0.00  0.00    +0.027 A 
ATOM     35  C   UNL     1       6.848  -6.149  -8.779  0.00  0.00    +0.063 C 
BRANCH  32  36
ATOM     36  C   UNL     1       6.745   0.918 -11.111  0.00  0.00    +0.099 C 
ATOM     37  N   UNL     1       6.677   2.052 -11.119  0.00  0.00    -0.191 NA
ENDBRANCH  32  36
ENDBRANCH  24  25
ENDBRANCH  23  24
ENDBRANCH   3  23
TORSDOF 7
