REMARK  Name = ZINC66284792
REMARK  5 active torsions:
REMARK  status: ('A' for Active; 'I' for Inactive)
REMARK    1  A    between atoms: C_1  and  C_2
REMARK    2  A    between atoms: N_4  and  C_5
REMARK    3  A    between atoms: C_7  and  N_13
REMARK    4  A    between atoms: C_14  and  C_16
REMARK    5  A    between atoms: C_16  and  N_17
REMARK                            x       y       z     vdW  Elec       q    Type
REMARK                         _______ _______ _______ _____ _____    ______ ____
ROOT
ATOM      1  N   UNL     1       1.113  -4.992  -0.090  0.00  0.00    -0.282 N 
ATOM      2  C   UNL     1       2.284  -4.356   0.115  0.00  0.00    +0.235 C 
ATOM      3  O   UNL     1       2.312  -3.146   0.188  0.00  0.00    -0.274 OA
ATOM      4  H   UNL     1       1.099  -5.954  -0.213  0.00  0.00    +0.155 HD
ENDROOT
BRANCH   1   7
ATOM      5  C   UNL     1      -1.287  -2.264  -0.690  0.00  0.00    +0.071 A 
ATOM      6  C   UNL     1      -0.101  -2.983  -0.656  0.00  0.00    +0.052 A 
ATOM      7  C   UNL     1      -0.083  -4.264  -0.124  0.00  0.00    +0.071 A 
ATOM      8  C   UNL     1      -1.254  -4.824   0.374  0.00  0.00    +0.147 A 
ATOM      9  C   UNL     1      -2.436  -4.106   0.339  0.00  0.00    +0.080 A 
ATOM     10  C   UNL     1      -2.454  -2.826  -0.186  0.00  0.00    +0.147 A 
ATOM     11  F   UNL     1      -3.608  -2.124  -0.214  0.00  0.00    -0.203 F 
ATOM     12  F   UNL     1      -1.238  -6.072   0.892  0.00  0.00    -0.203 F 
BRANCH   5  16
ATOM     13  C   UNL     1      -0.605   0.701  -2.911  0.00  0.00    +0.109 C 
ATOM     14  C   UNL     1      -0.512  -0.660  -2.270  0.00  0.00    +0.214 C 
ATOM     15  O   UNL     1       0.280  -1.476  -2.692  0.00  0.00    -0.276 OA
ATOM     16  N   UNL     1      -1.307  -0.969  -1.227  0.00  0.00    -0.283 N 
ATOM     17  H   UNL     1      -1.893  -0.296  -0.847  0.00  0.00    +0.155 HD
ENDBRANCH   5  16
ENDBRANCH   1   7
BRANCH   2  18
ATOM     18  C   UNL     1       3.558  -5.149   0.253  0.00  0.00    +0.214 C 
BRANCH  18  19
ATOM     19  N   UNL     1       4.682  -4.234   0.466  0.00  0.00    -0.215 N 
ATOM     20  C   UNL     1       5.420  -3.692  -0.527  0.00  0.00    +0.247 C 
ATOM     21  O   UNL     1       5.285  -3.863  -1.720  0.00  0.00    -0.273 OA
ATOM     22  C   UNL     1       6.445  -2.830   0.164  0.00  0.00    +0.113 C 
ATOM     23  C   UNL     1       6.315  -1.364  -0.269  0.00  0.00    +0.035 C 
ATOM     24  C   UNL     1       7.777  -0.846  -0.281  0.00  0.00    +0.003 C 
ATOM     25  C   UNL     1       8.571  -2.066  -0.812  0.00  0.00    +0.003 C 
ATOM     26  C   UNL     1       7.868  -3.284  -0.171  0.00  0.00    +0.035 C 
ATOM     27  N   UNL     1       6.156  -2.989   1.591  0.00  0.00    -0.285 N 
ATOM     28  C   UNL     1       5.102  -3.826   1.671  0.00  0.00    +0.310 C 
ATOM     29  O   UNL     1       4.593  -4.173   2.718  0.00  0.00    -0.252 OA
ATOM     30  H   UNL     1       6.626  -2.572   2.330  0.00  0.00    +0.151 HD
ENDBRANCH  18  19
ENDBRANCH   2  18
TORSDOF 4
