REMARK  Name = ZINC65260157
REMARK  8 active torsions:
REMARK  status: ('A' for Active; 'I' for Inactive)
REMARK    1  A    between atoms: C_1  and  C_2
REMARK    2  A    between atoms: C_2  and  C_3
REMARK    3  A    between atoms: C_2  and  C_4
REMARK    4  A    between atoms: C_2  and  N_5
REMARK    5  A    between atoms: N_19  and  S_21
REMARK    6  A    between atoms: S_21  and  N_24
REMARK    7  A    between atoms: N_24  and  C_25
REMARK    8  A    between atoms: N_24  and  C_26
REMARK                            x       y       z     vdW  Elec       q    Type
REMARK                         _______ _______ _______ _____ _____    ______ ____
ROOT
ATOM      1  N   UNL     1       0.719  -0.442  -1.210  0.00  0.00    -0.370 N 
ATOM      2  C   UNL     1       1.967  -0.143  -1.376  0.00  0.00    +0.098 C 
ATOM      3  N   UNL     1       2.699   0.495  -0.391  0.00  0.00    -0.301 N 
ATOM      4  C   UNL     1       3.636   1.460  -0.797  0.00  0.00    +0.053 A 
ATOM      5  C   UNL     1       4.209   2.304   0.141  0.00  0.00    +0.025 A 
ATOM      6  C   UNL     1       5.137   3.249  -0.256  0.00  0.00    +0.002 A 
ATOM      7  C   UNL     1       5.496   3.355  -1.587  0.00  0.00    +0.002 A 
ATOM      8  C   UNL     1       4.926   2.519  -2.530  0.00  0.00    +0.025 A 
ATOM      9  C   UNL     1       3.991   1.572  -2.140  0.00  0.00    +0.049 A 
ATOM     10  N   UNL     1       3.399   0.741  -3.102  0.00  0.00    -0.329 N 
ATOM     11  C   UNL     1       2.703  -0.478  -2.656  0.00  0.00    +0.100 C 
ATOM     12  C   UNL     1       1.705  -0.927  -3.721  0.00  0.00    +0.036 C 
ATOM     13  C   UNL     1       2.447  -1.231  -5.025  0.00  0.00    +0.020 C 
ATOM     14  C   UNL     1       3.450  -2.364  -4.783  0.00  0.00    +0.111 C 
ATOM     15  N   UNL     1       4.328  -1.990  -3.666  0.00  0.00    -0.164 NA
ATOM     16  C   UNL     1       3.716  -1.591  -2.390  0.00  0.00    +0.143 C 
ATOM     17  H   UNL     1       0.207  -0.812  -1.947  0.00  0.00    +0.161 HD
ATOM     18  H   UNL     1       3.449   0.964  -4.045  0.00  0.00    +0.147 HD
ATOM     19  H   UNL     1       2.570   0.284   0.547  0.00  0.00    +0.153 HD
ENDROOT
BRANCH   1  21
ATOM     20  C   UNL     1       0.261   1.238   0.506  0.00  0.00    +0.033 C 
ATOM     21  C   UNL     1       0.080  -0.223   0.089  0.00  0.00    +0.031 C 
ATOM     22  C   UNL     1       0.723  -1.135   1.135  0.00  0.00    +0.033 C 
ATOM     23  C   UNL     1      -1.413  -0.541  -0.017  0.00  0.00    +0.033 C 
ENDBRANCH   1  21
BRANCH  15  24
ATOM     24  S   UNL     1       5.974  -2.017  -3.841  0.00  0.00    +0.099 S 
ATOM     25  O   UNL     1       6.519  -2.168  -2.537  0.00  0.00    -0.141 OA
ATOM     26  O   UNL     1       6.256  -2.928  -4.894  0.00  0.00    -0.141 OA
BRANCH  24  27
ATOM     27  N   UNL     1       6.435  -0.519  -4.376  0.00  0.00    -0.172 NA
ATOM     28  C   UNL     1       6.772   0.531  -3.412  0.00  0.00    +0.132 C 
ATOM     29  C   UNL     1       6.504  -0.243  -5.813  0.00  0.00    +0.132 C 
ENDBRANCH  24  27
ENDBRANCH  15  24
TORSDOF 3
