REMARK  Name = ZINC33148385
REMARK  11 active torsions:
REMARK  status: ('A' for Active; 'I' for Inactive)
REMARK    1  A    between atoms: C_1  and  C_2
REMARK    2  A    between atoms: C_2  and  C_3
REMARK    3  A    between atoms: C_9  and  C_10
REMARK    4  A    between atoms: N_12  and  C_19
REMARK    5  A    between atoms: C_19  and  C_20
REMARK    6  A    between atoms: C_20  and  O_21
REMARK    7  A    between atoms: O_21  and  C_22
REMARK    8  A    between atoms: C_25  and  C_28
REMARK    9  A    between atoms: C_28  and  C_29
REMARK   10  A    between atoms: C_28  and  C_30
REMARK   11  A    between atoms: C_28  and  C_31
REMARK                            x       y       z     vdW  Elec       q    Type
REMARK                         _______ _______ _______ _____ _____    ______ ____
ROOT
ATOM      1  C   UNL     1       2.834  -0.730  -7.987  0.00  0.00    +0.001 A 
ATOM      2  C   UNL     1       2.942  -2.104  -8.089  0.00  0.00    +0.095 A 
ATOM      3  N   UNL     1       3.110  -2.449  -9.380  0.00  0.00    -0.343 N 
ATOM      4  C   UNL     1       3.120  -1.329 -10.188  0.00  0.00    +0.050 A 
ATOM      5  C   UNL     1       2.944  -0.206  -9.363  0.00  0.00    +0.007 A 
ATOM      6  C   UNL     1       2.910   1.069  -9.917  0.00  0.00    +0.010 A 
ATOM      7  C   UNL     1       3.046   1.226 -11.280  0.00  0.00    +0.001 A 
ATOM      8  C   UNL     1       3.217   0.118 -12.097  0.00  0.00    +0.002 A 
ATOM      9  C   UNL     1       3.261  -1.150 -11.560  0.00  0.00    +0.026 A 
ENDROOT
BRANCH   1  16
ATOM     10  C   UNL     1       2.479  -1.282  -1.035  0.00  0.00    +0.100 C 
ATOM     11  N   UNL     1       2.317  -0.445  -2.019  0.00  0.00    -0.169 NA
ATOM     12  N   UNL     1       2.956  -0.628  -3.227  0.00  0.00    -0.152 N 
ATOM     13  C   UNL     1       2.922   0.260  -4.322  0.00  0.00    +0.152 C 
ATOM     14  N   UNL     1       2.644   1.533  -4.207  0.00  0.00    -0.283 NA
ATOM     15  C   UNL     1       3.234  -0.393  -5.622  0.00  0.00    +0.081 C 
ATOM     16  C   UNL     1       2.649   0.022  -6.805  0.00  0.00    +0.026 C 
ATOM     17  C   UNL     1       4.205  -1.511  -5.583  0.00  0.00    +0.273 C 
ATOM     18  O   UNL     1       4.862  -1.806  -6.569  0.00  0.00    -0.268 OA
ATOM     19  N   UNL     1       4.341  -2.194  -4.428  0.00  0.00    -0.152 NA
ATOM     20  C   UNL     1       3.717  -1.770  -3.358  0.00  0.00    +0.181 C 
ATOM     21  S   UNL     1       3.604  -2.481  -1.737  0.00  0.00    -0.038 S 
ATOM     22  H   UNL     1       2.448   1.909  -3.334  0.00  0.00    +0.188 HD
BRANCH  10  24
ATOM     23  C   UNL     1       0.972  -0.019   0.476  0.00  0.00    +0.011 C 
ATOM     24  C   UNL     1       1.876  -1.246   0.346  0.00  0.00    +0.061 C 
ENDBRANCH  10  24
ENDBRANCH   1  16
BRANCH   3  25
ATOM     25  C   UNL     1       3.261  -3.824  -9.862  0.00  0.00    +0.163 C 
BRANCH  25  26
ATOM     26  C   UNL     1       4.748  -4.160  -9.989  0.00  0.00    +0.250 C 
BRANCH  26  27
ATOM     27  O   UNL     1       4.895  -5.501 -10.459  0.00  0.00    -0.490 OA
BRANCH  27  28
ATOM     28  C   UNL     1       6.163  -5.960 -10.628  0.00  0.00    +0.121 A 
ATOM     29  C   UNL     1       7.244  -5.138 -10.341  0.00  0.00    +0.046 A 
ATOM     30  C   UNL     1       8.531  -5.607 -10.513  0.00  0.00    +0.008 A 
ATOM     31  C   UNL     1       8.744  -6.895 -10.971  0.00  0.00    -0.042 A 
ATOM     32  C   UNL     1       7.669  -7.715 -11.257  0.00  0.00    +0.008 A 
ATOM     33  C   UNL     1       6.379  -7.253 -11.081  0.00  0.00    +0.046 A 
BRANCH  31  34
ATOM     34  C   UNL     1      10.150  -7.404 -11.158  0.00  0.00    -0.013 C 
ATOM     35  C   UNL     1      10.891  -7.359  -9.820  0.00  0.00    +0.015 C 
ATOM     36  C   UNL     1      10.107  -8.845 -11.669  0.00  0.00    +0.015 C 
ATOM     37  C   UNL     1      10.880  -6.524 -12.174  0.00  0.00    +0.015 C 
ENDBRANCH  31  34
ENDBRANCH  27  28
ENDBRANCH  26  27
ENDBRANCH  25  26
ENDBRANCH   3  25
TORSDOF 7
