REMARK  Name = ZINC40716216
REMARK  5 active torsions:
REMARK  status: ('A' for Active; 'I' for Inactive)
REMARK    1  A    between atoms: C_1  and  C_2
REMARK    2  A    between atoms: C_4  and  C_20
REMARK    3  A    between atoms: C_7  and  C_8
REMARK    4  A    between atoms: N_11  and  C_12
REMARK    5  A    between atoms: N_17  and  C_19
REMARK                            x       y       z     vdW  Elec       q    Type
REMARK                         _______ _______ _______ _____ _____    ______ ____
ROOT
ATOM      1  C   UNL     1      -0.005   1.502   0.060  0.00  0.00    +0.045 C 
ATOM      2  C   UNL     1       0.008  -0.005   0.026  0.00  0.00    -0.031 A 
ATOM      3  C   UNL     1      -0.100  -0.687  -1.172  0.00  0.00    +0.025 A 
ATOM      4  C   UNL     1      -0.084  -2.071  -1.172  0.00  0.00    +0.015 A 
ATOM      5  N   UNL     1       0.033  -2.755  -0.051  0.00  0.00    -0.347 N 
ATOM      6  C   UNL     1       0.139  -2.154   1.124  0.00  0.00    +0.111 A 
ATOM      7  C   UNL     1       0.137  -0.749   1.207  0.00  0.00    +0.104 A 
ATOM      8  N   UNL     1       0.259  -2.909   2.274  0.00  0.00    -0.329 N 
ATOM      9  C   UNL     1      -0.201  -2.811  -2.480  0.00  0.00    +0.063 C 
ATOM     10  H   UNL     1       0.260  -2.475   3.142  0.00  0.00    +0.148 HD
ATOM     11  H   UNL     1       0.040  -3.724  -0.087  0.00  0.00    +0.167 HD
ENDROOT
BRANCH   8  12
ATOM     12  C   UNL     1       0.385  -4.366   2.184  0.00  0.00    +0.055 C 
ATOM     13  C   UNL     1      -1.008  -4.995   2.094  0.00  0.00    +0.018 C 
ATOM     14  C   UNL     1      -0.869  -6.520   2.079  0.00  0.00    -0.017 C 
ATOM     15  C   UNL     1      -0.109  -6.970   3.329  0.00  0.00    -0.079 C 
ATOM     16  N   UNL     1       1.224  -6.355   3.343  0.00  0.00    +0.379 N 
ATOM     17  C   UNL     1       1.100  -4.895   3.429  0.00  0.00    -0.057 C 
ATOM     18  C   UNL     1       1.978  -6.851   4.502  0.00  0.00    -0.096 C 
ATOM     19  H   UNL     1       1.715  -6.600   2.496  0.00  0.00    -0.082 HD
ENDBRANCH   8  12
BRANCH   7  20
ATOM     20  C   UNL     1       0.261  -0.074   2.507  0.00  0.00    +0.390 C 
ATOM     21  O   UNL     1      -0.733   0.113   3.196  0.00  0.00    -0.240 OA
ATOM     22  O   UNL     1       1.357   0.299   2.901  0.00  0.00    -0.240 OA
ENDBRANCH   7  20
TORSDOF 2
