REMARK  Name = ZINC65383105
REMARK  6 active torsions:
REMARK  status: ('A' for Active; 'I' for Inactive)
REMARK    1  A    between atoms: N_5  and  C_9
REMARK    2  A    between atoms: C_9  and  C_10
REMARK    3  A    between atoms: C_10  and  N_11
REMARK    4  A    between atoms: N_11  and  C_12
REMARK    5  A    between atoms: C_12  and  C_13
REMARK    6  A    between atoms: C_13  and  O_24
REMARK                            x       y       z     vdW  Elec       q    Type
REMARK                         _______ _______ _______ _____ _____    ______ ____
ROOT
ATOM      1  C   UNL     1      -5.699  -2.104  -2.809  0.00  0.00    -0.049 C 
ENDROOT
BRANCH   1   2
ATOM      2  C   UNL     1      -6.994  -2.918  -2.806  0.00  0.00    +0.039 C 
ATOM      3  C   UNL     1      -6.795  -4.190  -1.980  0.00  0.00    +0.029 C 
ATOM      4  C   UNL     1      -5.711  -5.043  -2.648  0.00  0.00    -0.016 C 
ATOM      5  C   UNL     1      -6.142  -5.356  -4.081  0.00  0.00    -0.078 C 
ATOM      6  N   UNL     1      -6.309  -4.109  -4.843  0.00  0.00    +0.383 N 
ATOM      7  C   UNL     1      -7.366  -3.288  -4.246  0.00  0.00    -0.038 C 
ATOM      8  C   UNL     1      -7.537  -1.990  -5.043  0.00  0.00    -0.013 C 
ATOM      9  C   UNL     1      -7.889  -2.317  -6.495  0.00  0.00    -0.003 C 
ATOM     10  C   UNL     1      -6.785  -3.204  -7.080  0.00  0.00    -0.019 C 
ATOM     11  C   UNL     1      -6.662  -4.465  -6.226  0.00  0.00    -0.078 C 
ATOM     12  H   UNL     1      -5.441  -3.594  -4.840  0.00  0.00    -0.081 HD
BRANCH   2  13
ATOM     13  O   UNL     1      -8.044  -2.138  -2.230  0.00  0.00    -0.392 OA
ATOM     14  H   UNL     1      -7.876  -1.866  -1.317  0.00  0.00    +0.210 HD
ENDBRANCH   2  13
ENDBRANCH   1   2
BRANCH   1  15
ATOM     15  N   UNL     1      -5.277  -1.851  -1.424  0.00  0.00    +0.382 N 
ATOM     16  H   UNL     1      -5.121  -2.730  -0.954  0.00  0.00    -0.086 HD
ATOM     17  H   UNL     1      -5.997  -1.335  -0.942  0.00  0.00    -0.086 HD
BRANCH  15  18
ATOM     18  C   UNL     1      -4.033  -1.070  -1.427  0.00  0.00    -0.059 C 
BRANCH  18  19
ATOM     19  C   UNL     1      -3.594  -0.807   0.015  0.00  0.00    +0.128 C 
BRANCH  19  24
ATOM     20  C   UNL     1      -0.017   1.403   0.010  0.00  0.00    +0.079 A 
ATOM     21  C   UNL     1      -1.207   2.062   0.019  0.00  0.00    +0.077 A 
ATOM     22  C   UNL     1      -2.406   1.320   0.021  0.00  0.00    +0.267 A 
ATOM     23  O   UNL     1      -3.484   1.893   0.029  0.00  0.00    -0.266 OA
ATOM     24  N   UNL     1      -2.353  -0.027   0.013  0.00  0.00    -0.228 N 
ATOM     25  N   UNL     1      -1.117  -0.684   0.004  0.00  0.00    -0.126 NA
ATOM     26  C   UNL     1       0.002  -0.004   0.002  0.00  0.00    +0.287 A 
ATOM     27  O   UNL     1       1.190  -0.662  -0.013  0.00  0.00    -0.264 OA
ENDBRANCH  19  24
ENDBRANCH  18  19
ENDBRANCH  15  18
ENDBRANCH   1  15
TORSDOF 6
