REMARK  Name = ZINC22195512
REMARK  6 active torsions:
REMARK  status: ('A' for Active; 'I' for Inactive)
REMARK    1  A    between atoms: C_1  and  N_2
REMARK    2  A    between atoms: C_3  and  N_13
REMARK    3  A    between atoms: C_4  and  C_11
REMARK    4  A    between atoms: N_7  and  C_10
REMARK    5  A    between atoms: C_19  and  N_23
REMARK    6  A    between atoms: C_20  and  C_21
REMARK                            x       y       z     vdW  Elec       q    Type
REMARK                         _______ _______ _______ _____ _____    ______ ____
ROOT
ATOM      1  N   UNL     1       0.002  -0.004   0.002  0.00  0.00    -0.310 N 
ATOM      2  C   UNL     1       0.015   1.461   0.119  0.00  0.00    +0.111 C 
ATOM      3  C   UNL     1       1.456   1.978   0.104  0.00  0.00    +0.056 C 
ATOM      4  C   UNL     1       2.161   1.383  -1.110  0.00  0.00    -0.015 A 
ATOM      5  C   UNL     1       1.639   0.303  -1.736  0.00  0.00    +0.013 A 
ATOM      6  S   UNL     1       2.759  -0.033  -3.063  0.00  0.00    -0.076 S 
ATOM      7  C   UNL     1       3.905   1.238  -2.792  0.00  0.00    +0.081 A 
ATOM      8  C   UNL     1       3.394   1.894  -1.679  0.00  0.00    +0.083 A 
ATOM      9  C   UNL     1       0.386  -0.422  -1.360  0.00  0.00    +0.149 C 
ENDROOT
BRANCH   1  12
ATOM     10  C   UNL     1      -0.141  -1.797   2.131  0.00  0.00    +0.155 C 
ATOM     11  N   UNL     1      -1.335  -1.395   1.383  0.00  0.00    -0.284 N 
ATOM     12  C   UNL     1      -1.217  -0.511   0.344  0.00  0.00    +0.128 A 
ATOM     13  C   UNL     1      -2.365  -0.132  -0.358  0.00  0.00    +0.154 A 
ATOM     14  C   UNL     1      -3.613  -0.689   0.031  0.00  0.00    +0.276 A 
ATOM     15  O   UNL     1      -4.634  -0.386  -0.559  0.00  0.00    -0.266 OA
ATOM     16  N   UNL     1      -3.655  -1.554   1.064  0.00  0.00    -0.263 N 
ATOM     17  C   UNL     1      -2.535  -1.896   1.723  0.00  0.00    +0.333 A 
ATOM     18  O   UNL     1      -2.608  -2.679   2.650  0.00  0.00    -0.246 OA
ATOM     19  C   UNL     1      -4.939  -2.128   1.474  0.00  0.00    +0.157 C 
BRANCH  13  20
ATOM     20  C   UNL     1      -2.285   0.794  -1.448  0.00  0.00    +0.108 C 
ATOM     21  N   UNL     1      -2.222   1.529  -2.312  0.00  0.00    -0.191 NA
ENDBRANCH  13  20
ENDBRANCH   1  12
BRANCH   7  22
ATOM     22  N   UNL     1       5.053   1.529  -3.509  0.00  0.00    -0.352 N 
ATOM     23  H   UNL     1       5.687   2.377  -3.212  0.00  0.00    +0.143 HD
ATOM     24  H   UNL     1       5.330   0.911  -4.376  0.00  0.00    +0.143 HD
ENDBRANCH   7  22
BRANCH   8  25
ATOM     25  C   UNL     1       4.057   3.032  -1.117  0.00  0.00    +0.102 C 
ATOM     26  N   UNL     1       4.583   3.935  -0.671  0.00  0.00    -0.191 NA
ENDBRANCH   8  25
TORSDOF 4
