REMARK  Name = ZINC43376333
REMARK  5 active torsions:
REMARK  status: ('A' for Active; 'I' for Inactive)
REMARK    1  A    between atoms: C_1  and  C_2
REMARK    2  A    between atoms: C_2  and  C_4
REMARK    3  A    between atoms: C_2  and  N_17
REMARK    4  A    between atoms: C_4  and  C_6
REMARK    5  A    between atoms: C_4  and  N_10
REMARK                            x       y       z     vdW  Elec       q    Type
REMARK                         _______ _______ _______ _____ _____    ______ ____
ROOT
ATOM      1  C   UNL     1      -1.261  -0.835  -0.151  0.00  0.00    +0.147 C 
ENDROOT
BRANCH   1   2
ATOM      2  N   UNL     1      -1.950  -0.205  -1.285  0.00  0.00    -0.283 NA
ATOM      3  C   UNL     1      -3.291  -0.783  -1.474  0.00  0.00    +0.104 C 
ATOM      4  C   UNL     1      -4.074   0.101  -2.447  0.00  0.00    +0.119 C 
ATOM      5  N   UNL     1      -3.278   0.353  -3.645  0.00  0.00    -0.313 N 
ATOM      6  C   UNL     1      -1.954   0.175  -3.689  0.00  0.00    +0.227 C 
ATOM      7  O   UNL     1      -1.366   0.438  -4.717  0.00  0.00    -0.274 OA
ATOM      8  C   UNL     1      -1.163  -0.337  -2.518  0.00  0.00    +0.181 C 
ATOM      9  H   UNL     1      -3.731   0.663  -4.445  0.00  0.00    +0.149 HD
ENDBRANCH   1   2
BRANCH   1  10
ATOM     10  C   UNL     1      -1.929  -0.402   1.156  0.00  0.00    +0.404 C 
ATOM     11  F   UNL     1      -1.931   0.995   1.238  0.00  0.00    -0.169 F 
ATOM     12  F   UNL     1      -3.246  -0.873   1.185  0.00  0.00    -0.169 F 
ATOM     13  F   UNL     1      -1.220  -0.931   2.240  0.00  0.00    -0.169 F 
ENDBRANCH   1  10
BRANCH   1  15
ATOM     14  C   UNL     1       0.288   1.121  -0.017  0.00  0.00    -0.012 C 
ATOM     15  C   UNL     1       0.206  -0.402  -0.142  0.00  0.00    -0.052 C 
BRANCH  15  16
ATOM     16  N   UNL     1       0.893  -1.024   0.998  0.00  0.00    +0.381 N 
ATOM     17  H   UNL     1       0.610  -0.567   1.852  0.00  0.00    -0.090 HD
ATOM     18  H   UNL     1       0.651  -2.002   1.044  0.00  0.00    -0.090 HD
ATOM     19  H   UNL     1       1.891  -0.930   0.881  0.00  0.00    -0.090 HD
ENDBRANCH  15  16
ENDBRANCH   1  15
TORSDOF 4
