REMARK  Name = ZINC13490256
REMARK  9 active torsions:
REMARK  status: ('A' for Active; 'I' for Inactive)
REMARK    1  A    between atoms: C_5  and  C_7
REMARK    2  A    between atoms: C_7  and  C_9
REMARK    3  A    between atoms: C_7  and  C_23
REMARK    4  A    between atoms: C_9  and  C_10
REMARK    5  A    between atoms: C_10  and  N_11
REMARK    6  A    between atoms: C_12  and  C_13
REMARK    7  A    between atoms: C_13  and  C_14
REMARK    8  A    between atoms: C_14  and  C_15
REMARK    9  A    between atoms: C_15  and  C_16
REMARK                            x       y       z     vdW  Elec       q    Type
REMARK                         _______ _______ _______ _____ _____    ______ ____
ROOT
ATOM      1  C   UNL     1       2.140  -2.230  -2.357  0.00  0.00    +0.114 C 
ENDROOT
BRANCH   1   2
ATOM      2  N   UNL     1       1.891  -2.705  -3.720  0.00  0.00    -0.377 N 
ATOM      3  C   UNL     1       2.741  -2.449  -4.660  0.00  0.00    +0.065 C 
ATOM      4  N   UNL     1       2.508  -2.894  -5.934  0.00  0.00    -0.348 N 
ATOM      5  H   UNL     1       1.705  -3.401  -6.132  0.00  0.00    +0.143 HD
ATOM      6  H   UNL     1       3.146  -2.701  -6.640  0.00  0.00    +0.143 HD
ATOM      7  H   UNL     1       1.088  -3.212  -3.917  0.00  0.00    +0.160 HD
BRANCH   3   8
ATOM      8  C   UNL     1       3.989  -1.661  -4.353  0.00  0.00    +0.069 C 
BRANCH   8   9
ATOM      9  C   UNL     1       3.711  -0.169  -4.549  0.00  0.00    +0.014 C 
BRANCH   9  10
ATOM     10  C   UNL     1       4.978   0.630  -4.237  0.00  0.00    +0.057 C 
BRANCH  10  11
ATOM     11  C   UNL     1       4.704   2.100  -4.430  0.00  0.00    +0.059 A 
ATOM     12  C   UNL     1       4.903   3.068  -3.516  0.00  0.00    +0.107 A 
ATOM     13  N   UNL     1       4.527   4.248  -4.100  0.00  0.00    -0.351 N 
ATOM     14  C   UNL     1       4.112   3.959  -5.352  0.00  0.00    +0.196 A 
ATOM     15  N   UNL     1       4.225   2.673  -5.544  0.00  0.00    -0.241 NA
ATOM     16  H   UNL     1       4.555   5.127  -3.692  0.00  0.00    +0.166 HD
ENDBRANCH  10  11
ENDBRANCH   9  10
ENDBRANCH   8   9
ENDBRANCH   3   8
ENDBRANCH   1   2
BRANCH   1  17
ATOM     17  C   UNL     1       0.990  -2.664  -1.446  0.00  0.00    +0.035 C 
BRANCH  17  18
ATOM     18  C   UNL     1       1.250  -2.168  -0.023  0.00  0.00    +0.069 C 
BRANCH  18  19
ATOM     19  C   UNL     1       0.182  -2.699   0.898  0.00  0.00    -0.038 A 
ATOM     20  C   UNL     1      -1.152  -2.484   0.605  0.00  0.00    +0.006 A 
ATOM     21  C   UNL     1      -2.132  -2.971   1.449  0.00  0.00    +0.020 A 
ATOM     22  C   UNL     1      -1.778  -3.674   2.587  0.00  0.00    +0.041 A 
ATOM     23  C   UNL     1      -0.443  -3.889   2.880  0.00  0.00    +0.020 A 
ATOM     24  C   UNL     1       0.536  -3.406   2.032  0.00  0.00    +0.006 A 
ATOM     25 CL   UNL     1      -3.008  -4.285   3.648  0.00  0.00    -0.084 Cl
ENDBRANCH  18  19
BRANCH  18  30
ATOM     26  C   UNL     1       0.324   1.404  -0.793  0.00  0.00    +0.003 A 
ATOM     27  C   UNL     1       1.208   2.058   0.052  0.00  0.00    +0.020 A 
ATOM     28  C   UNL     1       2.067   1.312   0.836  0.00  0.00    +0.111 A 
ATOM     29  N   UNL     1       2.052  -0.006   0.787  0.00  0.00    -0.259 NA
ATOM     30  C   UNL     1       1.226  -0.661  -0.004  0.00  0.00    +0.049 A 
ATOM     31  C   UNL     1       0.338   0.018  -0.817  0.00  0.00    +0.024 A 
ENDBRANCH  18  30
ENDBRANCH  17  18
ENDBRANCH   1  17
TORSDOF 9
