REMARK  Name = ZINC09836186
REMARK  9 active torsions:
REMARK  status: ('A' for Active; 'I' for Inactive)
REMARK    1  A    between atoms: C_1  and  C_2
REMARK    2  A    between atoms: C_2  and  N_59
REMARK    3  A    between atoms: C_6  and  C_8
REMARK    4  A    between atoms: C_8  and  N_9
REMARK    5  A    between atoms: C_10  and  C_12
REMARK    6  A    between atoms: C_12  and  O_32
REMARK    7  A    between atoms: N_22  and  C_23
REMARK    8  A    between atoms: C_27  and  O_29
REMARK    9  A    between atoms: O_29  and  C_30
REMARK                            x       y       z     vdW  Elec       q    Type
REMARK                         _______ _______ _______ _____ _____    ______ ____
ROOT
ATOM      1  C   UNL     1      -1.236  -2.162  -0.024  0.00  0.00    +0.247 C 
ATOM      2  C   UNL     1      -2.738  -2.334  -0.039  0.00  0.00    +0.034 A 
ATOM      3  C   UNL     1      -3.314  -3.571  -0.216  0.00  0.00    +0.025 A 
ATOM      4  C   UNL     1      -4.694  -3.690  -0.229  0.00  0.00    +0.018 A 
ATOM      5  C   UNL     1      -5.487  -2.567  -0.066  0.00  0.00    +0.017 A 
ATOM      6  C   UNL     1      -4.910  -1.325   0.110  0.00  0.00    +0.025 A 
ATOM      7  C   UNL     1      -3.527  -1.201   0.124  0.00  0.00    +0.043 A 
ATOM      8  N   UNL     1      -2.925   0.045   0.301  0.00  0.00    -0.269 N 
ATOM      9  C   UNL     1      -1.597   0.217   0.323  0.00  0.00    +0.314 C 
ATOM     10  O   UNL     1      -1.161   1.340   0.482  0.00  0.00    -0.252 OA
ATOM     11  N   UNL     1      -0.724  -0.796   0.176  0.00  0.00    -0.214 N 
ATOM     12 BR   UNL     1      -5.495  -5.386  -0.470  0.00  0.00    -0.050 Br
ATOM     13  H   UNL     1      -3.495   0.823   0.414  0.00  0.00    +0.156 HD
ENDROOT
BRANCH  11  14
ATOM     14  C   UNL     1       0.654  -0.553   0.206  0.00  0.00    +0.045 A 
ATOM     15  C   UNL     1       1.353  -0.662   1.402  0.00  0.00    +0.024 A 
ATOM     16  C   UNL     1       2.713  -0.423   1.432  0.00  0.00    +0.005 A 
ATOM     17  C   UNL     1       3.382  -0.076   0.274  0.00  0.00    +0.046 A 
ATOM     18  C   UNL     1       2.688   0.034  -0.924  0.00  0.00    +0.122 A 
ATOM     19  C   UNL     1       1.323  -0.205  -0.958  0.00  0.00    +0.069 A 
BRANCH  18  20
ATOM     20  O   UNL     1       3.348   0.376  -2.062  0.00  0.00    -0.495 OA
ATOM     21  C   UNL     1       4.753   0.608  -1.953  0.00  0.00    +0.277 C 
ENDBRANCH  18  20
ENDBRANCH  11  14
BRANCH   1  23
ATOM     22  N   UNL     1      -0.889  -1.974  -2.466  0.00  0.00    -0.313 N 
ATOM     23  C   UNL     1      -0.693  -2.676  -1.332  0.00  0.00    +0.269 C 
ATOM     24  O   UNL     1      -0.078  -3.721  -1.365  0.00  0.00    -0.270 OA
ATOM     25  H   UNL     1      -1.381  -1.139  -2.440  0.00  0.00    +0.149 HD
BRANCH  22  26
ATOM     26  C   UNL     1      -0.360  -2.474  -3.737  0.00  0.00    +0.089 C 
BRANCH  26  30
ATOM     27  C   UNL     1      -2.661  -1.609  -6.423  0.00  0.00    -0.078 C 
ATOM     28  C   UNL     1      -1.534  -2.445  -7.081  0.00  0.00    -0.020 C 
ATOM     29  C   UNL     1      -0.298  -2.095  -6.221  0.00  0.00    -0.016 C 
ATOM     30  C   UNL     1      -0.868  -1.594  -4.882  0.00  0.00    -0.051 C 
ATOM     31  N   UNL     1      -2.323  -1.698  -4.994  0.00  0.00    +0.382 N 
ATOM     32  H   UNL     1      -2.636  -2.601  -4.619  0.00  0.00    -0.081 HD
BRANCH  31  34
ATOM     33  C   UNL     1      -4.479  -0.565  -4.566  0.00  0.00    -0.017 C 
ATOM     34  C   UNL     1      -2.986  -0.596  -4.233  0.00  0.00    -0.082 C 
ENDBRANCH  31  34
ENDBRANCH  26  30
ENDBRANCH  22  26
ENDBRANCH   1  23
BRANCH   1  35
ATOM     35  O   UNL     1      -0.713  -2.986   1.020  0.00  0.00    -0.360 OA
ATOM     36  H   UNL     1      -0.997  -3.909   0.972  0.00  0.00    +0.213 HD
ENDBRANCH   1  35
TORSDOF 7
