REMARK  Name = ZINC37918440
REMARK  8 active torsions:
REMARK  status: ('A' for Active; 'I' for Inactive)
REMARK    1  A    between atoms: C_1  and  C_2
REMARK    2  A    between atoms: C_6  and  C_21
REMARK    3  A    between atoms: C_7  and  N_8
REMARK    4  A    between atoms: N_8  and  S_9
REMARK    5  A    between atoms: S_9  and  C_12
REMARK    6  A    between atoms: C_12  and  C_13
REMARK    7  A    between atoms: C_17  and  C_19
REMARK    8  A    between atoms: C_19  and  N_20
REMARK                            x       y       z     vdW  Elec       q    Type
REMARK                         _______ _______ _______ _____ _____    ______ ____
ROOT
ATOM      1  S   UNL     1      -0.032  -0.862   3.828  0.00  0.00    +0.047 S 
ATOM      2  O   UNL     1      -0.281   0.125   4.819  0.00  0.00    -0.155 OA
ATOM      3  O   UNL     1      -0.907  -1.970   3.672  0.00  0.00    -0.155 OA
ENDROOT
BRANCH   1   4
ATOM      4  N   UNL     1      -0.120  -0.048   2.388  0.00  0.00    -0.220 N 
ATOM      5  H   UNL     1      -0.282   0.908   2.381  0.00  0.00    +0.173 HD
BRANCH   4  12
ATOM      6  C   UNL     1       2.248   0.409   0.880  0.00  0.00    +0.046 C 
ATOM      7  C   UNL     1       1.178  -0.546   0.416  0.00  0.00    -0.028 A 
ATOM      8  C   UNL     1       1.333  -1.234  -0.771  0.00  0.00    +0.005 A 
ATOM      9  C   UNL     1       0.352  -2.110  -1.198  0.00  0.00    +0.001 A 
ATOM     10  C   UNL     1      -0.787  -2.300  -0.438  0.00  0.00    +0.005 A 
ATOM     11  C   UNL     1      -0.949  -1.615   0.750  0.00  0.00    -0.028 A 
ATOM     12  C   UNL     1       0.037  -0.738   1.185  0.00  0.00    +0.053 A 
ATOM     13  C   UNL     1      -2.191  -1.823   1.578  0.00  0.00    +0.046 C 
ENDBRANCH   4  12
ENDBRANCH   1   4
BRANCH   1  14
ATOM     14  C   UNL     1       1.687  -1.434   3.934  0.00  0.00    +0.223 C 
BRANCH  14  15
ATOM     15  C   UNL     1       1.916  -2.090   5.272  0.00  0.00    -0.025 A 
ATOM     16  C   UNL     1       2.339  -1.333   6.349  0.00  0.00    +0.005 A 
ATOM     17  C   UNL     1       2.549  -1.934   7.575  0.00  0.00    +0.001 A 
ATOM     18  C   UNL     1       2.336  -3.292   7.726  0.00  0.00    +0.002 A 
ATOM     19  C   UNL     1       1.913  -4.048   6.649  0.00  0.00    -0.065 A 
ATOM     20  C   UNL     1       1.698  -3.446   5.423  0.00  0.00    +0.007 A 
BRANCH  19  21
ATOM     21  C   UNL     1       1.681  -5.528   6.812  0.00  0.00    -0.051 C 
BRANCH  21  22
ATOM     22  N   UNL     1       0.287  -5.765   7.212  0.00  0.00    +0.381 N 
ATOM     23  H   UNL     1       0.105  -5.297   8.087  0.00  0.00    -0.090 HD
ATOM     24  H   UNL     1      -0.332  -5.404   6.502  0.00  0.00    -0.090 HD
ATOM     25  H   UNL     1       0.132  -6.756   7.322  0.00  0.00    -0.090 HD
ENDBRANCH  21  22
ENDBRANCH  19  21
ENDBRANCH  14  15
ENDBRANCH   1  14
TORSDOF 6
