REMARK  Name = ZINC56606966
REMARK  9 active torsions:
REMARK  status: ('A' for Active; 'I' for Inactive)
REMARK    1  A    between atoms: C_1  and  C_2
REMARK    2  A    between atoms: C_5  and  C_29
REMARK    3  A    between atoms: N_8  and  C_10
REMARK    4  A    between atoms: C_10  and  C_11
REMARK    5  A    between atoms: C_11  and  C_13
REMARK    6  A    between atoms: C_11  and  N_14
REMARK    7  A    between atoms: N_17  and  C_18
REMARK    8  A    between atoms: C_22  and  N_24
REMARK    9  A    between atoms: C_25  and  C_27
REMARK                            x       y       z     vdW  Elec       q    Type
REMARK                         _______ _______ _______ _____ _____    ______ ____
ROOT
ATOM      1  N   UNL     1       3.513  -2.535   0.942  0.00  0.00    -0.298 N 
ATOM      2  C   UNL     1       4.538  -1.884   0.356  0.00  0.00    +0.304 C 
ATOM      3  O   UNL     1       5.032  -0.915   0.899  0.00  0.00    -0.253 OA
ATOM      4  N   UNL     1       5.014  -2.307  -0.832  0.00  0.00    -0.269 N 
ATOM      5  H   UNL     1       3.119  -3.308   0.508  0.00  0.00    +0.150 HD
ATOM      6  H   UNL     1       4.665  -3.118  -1.234  0.00  0.00    +0.156 HD
ENDROOT
BRANCH   4   7
ATOM      7  C   UNL     1       6.014  -1.575  -1.486  0.00  0.00    +0.037 A 
ATOM      8  C   UNL     1       7.001  -0.934  -0.748  0.00  0.00    +0.026 A 
ATOM      9  C   UNL     1       7.987  -0.212  -1.392  0.00  0.00    +0.042 A 
ATOM     10  C   UNL     1       7.995  -0.125  -2.772  0.00  0.00    +0.145 A 
ATOM     11  C   UNL     1       7.009  -0.765  -3.515  0.00  0.00    +0.071 A 
ATOM     12  C   UNL     1       6.021  -1.496  -2.871  0.00  0.00    +0.049 A 
ATOM     13  F   UNL     1       8.961   0.582  -3.399  0.00  0.00    -0.204 F 
BRANCH  11  14
ATOM     14  N   UNL     1       7.016  -0.676  -4.913  0.00  0.00    -0.283 N 
ATOM     15  C   UNL     1       5.852  -0.639  -5.592  0.00  0.00    +0.214 C 
ATOM     16  O   UNL     1       4.801  -0.765  -5.000  0.00  0.00    -0.276 OA
ATOM     17  C   UNL     1       5.857  -0.442  -7.086  0.00  0.00    +0.109 C 
ATOM     18  H   UNL     1       7.858  -0.642  -5.393  0.00  0.00    +0.155 HD
ENDBRANCH  11  14
ENDBRANCH   4   7
BRANCH   1  19
ATOM     19  C   UNL     1       2.995  -2.076   2.233  0.00  0.00    +0.055 C 
ATOM     20  C   UNL     1       3.833  -2.679   3.362  0.00  0.00    +0.026 C 
BRANCH  19  21
ATOM     21  C   UNL     1       1.539  -2.519   2.385  0.00  0.00    -0.057 C 
BRANCH  21  27
ATOM     22  C   UNL     1      -0.043   1.465   0.020  0.00  0.00    +0.005 C 
ATOM     23  C   UNL     1      -0.013  -0.065   0.007  0.00  0.00    -0.031 C 
ATOM     24  C   UNL     1      -1.446  -0.605   0.021  0.00  0.00    +0.003 C 
ATOM     25  C   UNL     1      -1.403  -2.135   0.087  0.00  0.00    -0.031 C 
ATOM     26  C   UNL     1      -0.609  -2.565   1.322  0.00  0.00    -0.076 C 
ATOM     27  N   UNL     1       0.759  -2.039   1.236  0.00  0.00    +0.381 N 
ATOM     28  C   UNL     1       0.731  -0.572   1.244  0.00  0.00    -0.076 C 
ATOM     29  C   UNL     1      -2.829  -2.682   0.179  0.00  0.00    +0.005 C 
ATOM     30  H   UNL     1       1.189  -2.361   0.382  0.00  0.00    -0.082 HD
ENDBRANCH  21  27
ENDBRANCH  19  21
ENDBRANCH   1  19
TORSDOF 5
