REMARK  Name = ZINC63376106
REMARK  7 active torsions:
REMARK  status: ('A' for Active; 'I' for Inactive)
REMARK    1  A    between atoms: C_1  and  O_2
REMARK    2  A    between atoms: O_2  and  C_3
REMARK    3  A    between atoms: C_6  and  C_9
REMARK    4  A    between atoms: N_27  and  C_30
REMARK    5  A    between atoms: C_35  and  C_36
REMARK    6  A    between atoms: N_38  and  C_39
REMARK    7  A    between atoms: C_39  and  C_40
REMARK                            x       y       z     vdW  Elec       q    Type
REMARK                         _______ _______ _______ _____ _____    ______ ____
ROOT
ATOM      1  C   UNL     1       2.587  -2.550   4.310  0.00  0.00    +0.135 C 
ATOM      2  C   UNL     1       1.557  -2.954   5.376  0.00  0.00    +0.131 C 
ATOM      3  C   UNL     1       2.242  -3.947   6.304  0.00  0.00    -0.034 C 
ATOM      4  C   UNL     1       2.149  -3.438   7.529  0.00  0.00    -0.001 A 
ATOM      5  C   UNL     1       2.565  -3.963   8.840  0.00  0.00    +0.010 A 
ATOM      6  C   UNL     1       2.322  -3.161   9.910  0.00  0.00    +0.001 A 
ATOM      7  C   UNL     1       1.713  -1.906   9.809  0.00  0.00    +0.002 A 
ATOM      8  C   UNL     1       1.296  -1.348   8.645  0.00  0.00    +0.026 A 
ATOM      9  C   UNL     1       1.494  -2.098   7.449  0.00  0.00    +0.043 A 
ATOM     10  N   UNL     1       1.167  -1.810   6.203  0.00  0.00    -0.375 N 
ATOM     11  C   UNL     1       2.928  -5.202   5.816  0.00  0.00    +0.065 C 
ATOM     12  C   UNL     1       3.917  -4.762   4.722  0.00  0.00    +0.169 C 
ATOM     13  N   UNL     1       3.232  -3.786   3.849  0.00  0.00    -0.264 N 
ATOM     14  C   UNL     1       3.303  -4.267   2.601  0.00  0.00    +0.317 C 
ATOM     15  O   UNL     1       2.939  -3.654   1.617  0.00  0.00    -0.252 OA
ATOM     16  N   UNL     1       3.823  -5.501   2.564  0.00  0.00    -0.192 N 
ATOM     17  C   UNL     1       4.221  -5.926   3.804  0.00  0.00    +0.248 C 
ATOM     18  O   UNL     1       4.708  -6.992   4.112  0.00  0.00    -0.273 OA
ATOM     19  H   UNL     1       0.751  -0.994   5.883  0.00  0.00    +0.160 HD
ENDROOT
BRANCH   1  23
ATOM     20  C   UNL     1       0.625  -0.618   1.042  0.00  0.00    +0.120 A 
ATOM     21  C   UNL     1       0.246  -1.897   1.422  0.00  0.00    +0.046 A 
ATOM     22  C   UNL     1       0.882  -2.520   2.479  0.00  0.00    +0.009 A 
ATOM     23  C   UNL     1       1.895  -1.869   3.158  0.00  0.00    -0.024 A 
ATOM     24  C   UNL     1       2.275  -0.594   2.781  0.00  0.00    +0.009 A 
ATOM     25  C   UNL     1       1.646   0.031   1.721  0.00  0.00    +0.046 A 
BRANCH  20  27
ATOM     26  C   UNL     1      -1.041  -0.732  -0.650  0.00  0.00    +0.277 C 
ATOM     27  O   UNL     1       0.001  -0.004   0.003  0.00  0.00    -0.495 OA
ENDBRANCH  20  27
ENDBRANCH   1  23
BRANCH  16  28
ATOM     28  C   UNL     1       3.952  -6.264   1.401  0.00  0.00    +0.058 A 
ATOM     29  C   UNL     1       5.110  -6.184   0.639  0.00  0.00    +0.025 A 
ATOM     30  C   UNL     1       5.235  -6.939  -0.510  0.00  0.00    +0.002 A 
ATOM     31  C   UNL     1       4.210  -7.779  -0.912  0.00  0.00    +0.001 A 
ATOM     32  C   UNL     1       3.054  -7.871  -0.168  0.00  0.00    +0.015 A 
ATOM     33  C   UNL     1       2.915  -7.117   1.000  0.00  0.00    +0.059 A 
BRANCH  33  34
ATOM     34  C   UNL     1       1.681  -7.215   1.804  0.00  0.00    +0.246 C 
ATOM     35  O   UNL     1       1.562  -6.554   2.817  0.00  0.00    -0.270 OA
ATOM     36  N   UNL     1       0.687  -8.037   1.415  0.00  0.00    -0.308 N 
ATOM     37  H   UNL     1       0.782  -8.565   0.606  0.00  0.00    +0.149 HD
BRANCH  36  38
ATOM     38  C   UNL     1      -0.538  -8.134   2.213  0.00  0.00    +0.131 C 
BRANCH  38  39
ATOM     39  C   UNL     1      -1.483  -9.114   1.566  0.00  0.00    -0.016 C 
ATOM     40  C   UNL     1      -1.949 -10.126   2.255  0.00  0.00    +0.005 C 
ENDBRANCH  38  39
ENDBRANCH  36  38
ENDBRANCH  33  34
ENDBRANCH  16  28
TORSDOF 6
