REMARK  Name = ZINC56184448
REMARK  12 active torsions:
REMARK  status: ('A' for Active; 'I' for Inactive)
REMARK    1  A    between atoms: C_1  and  C_2
REMARK    2  A    between atoms: C_6  and  N_8
REMARK    3  A    between atoms: C_9  and  C_11
REMARK    4  A    between atoms: C_11  and  C_13
REMARK    5  A    between atoms: C_11  and  N_14
REMARK    6  A    between atoms: N_14  and  C_15
REMARK    7  A    between atoms: C_15  and  C_17
REMARK    8  A    between atoms: C_15  and  C_18
REMARK    9  A    between atoms: C_21  and  O_24
REMARK   10  A    between atoms: O_24  and  C_25
REMARK   11  A    between atoms: C_25  and  C_26
REMARK   12  A    between atoms: N_28  and  C_29
REMARK                            x       y       z     vdW  Elec       q    Type
REMARK                         _______ _______ _______ _____ _____    ______ ____
ROOT
ATOM      1  C   UNL     1       0.326  -6.803   4.766  0.00  0.00    -0.043 C 
ATOM      2  C   UNL     1      -0.937  -6.577   5.600  0.00  0.00    -0.009 C 
ENDROOT
BRANCH   1   3
ATOM      3  C   UNL     1       0.484  -8.275   4.485  0.00  0.00    -0.061 A 
ATOM      4  C   UNL     1      -0.245  -8.866   3.469  0.00  0.00    +0.005 A 
ATOM      5  C   UNL     1      -0.101 -10.215   3.209  0.00  0.00    +0.046 A 
ATOM      6  C   UNL     1       0.775 -10.977   3.968  0.00  0.00    +0.121 A 
ATOM      7  C   UNL     1       1.506 -10.382   4.986  0.00  0.00    +0.046 A 
ATOM      8  C   UNL     1       1.363  -9.031   5.238  0.00  0.00    +0.005 A 
BRANCH   6   9
ATOM      9  O   UNL     1       0.918 -12.305   3.714  0.00  0.00    -0.483 OA
BRANCH   9  10
ATOM     10  C   UNL     1       1.838 -13.027   4.535  0.00  0.00    +0.324 C 
BRANCH  10  11
ATOM     11  C   UNL     1       1.862 -14.473   4.111  0.00  0.00    +0.251 C 
ATOM     12  O   UNL     1       1.161 -14.848   3.195  0.00  0.00    -0.272 OA
ATOM     13  N   UNL     1       2.664 -15.349   4.748  0.00  0.00    -0.310 N 
ATOM     14  H   UNL     1       3.225 -15.049   5.480  0.00  0.00    +0.149 HD
BRANCH  13  15
ATOM     15  C   UNL     1       2.688 -16.754   4.335  0.00  0.00    +0.073 C 
ATOM     16  C   UNL     1       2.676 -17.815   5.438  0.00  0.00    +0.024 C 
ATOM     17  C   UNL     1       3.954 -17.558   4.637  0.00  0.00    +0.024 C 
ENDBRANCH  13  15
ENDBRANCH  10  11
ENDBRANCH   9  10
ENDBRANCH   6   9
ENDBRANCH   1   3
BRANCH   1  18
ATOM     18  N   UNL     1       0.213  -6.071   3.498  0.00  0.00    +0.391 N 
ATOM     19  H   UNL     1       0.020  -5.099   3.686  0.00  0.00    -0.084 HD
ATOM     20  H   UNL     1      -0.538  -6.463   2.949  0.00  0.00    -0.084 HD
BRANCH  18  21
ATOM     21  C   UNL     1       1.474  -6.184   2.753  0.00  0.00    +0.014 C 
ATOM     22  C   UNL     1       2.583  -5.456   3.514  0.00  0.00    -0.004 C 
BRANCH  21  24
ATOM     23  N   UNL     1       2.344  -5.553   0.525  0.00  0.00    -0.287 N 
ATOM     24  C   UNL     1       1.309  -5.564   1.389  0.00  0.00    +0.203 C 
ATOM     25  O   UNL     1       0.246  -5.076   1.069  0.00  0.00    -0.277 OA
ATOM     26  H   UNL     1       3.170  -6.008   0.751  0.00  0.00    +0.155 HD
BRANCH  23  32
ATOM     27  C   UNL     1       3.479  -5.224  -4.247  0.00  0.00    +0.044 C 
ATOM     28  C   UNL     1       2.767  -4.701  -3.027  0.00  0.00    -0.049 A 
ATOM     29  C   UNL     1       1.995  -3.557  -3.115  0.00  0.00    +0.003 A 
ATOM     30  C   UNL     1       1.339  -3.074  -1.998  0.00  0.00    +0.002 A 
ATOM     31  C   UNL     1       1.452  -3.733  -0.789  0.00  0.00    +0.023 A 
ATOM     32  C   UNL     1       2.226  -4.882  -0.697  0.00  0.00    +0.034 A 
ATOM     33  C   UNL     1       2.880  -5.368  -1.823  0.00  0.00    +0.026 A 
ENDBRANCH  23  32
ENDBRANCH  21  24
ENDBRANCH  18  21
ENDBRANCH   1  18
TORSDOF 9
