REMARK  Name = ZINC63572766
REMARK  6 active torsions:
REMARK  status: ('A' for Active; 'I' for Inactive)
REMARK    1  A    between atoms: C_1  and  C_2
REMARK    2  A    between atoms: C_5  and  C_8
REMARK    3  A    between atoms: N_26  and  C_27
REMARK    4  A    between atoms: C_32  and  C_33
REMARK    5  A    between atoms: C_33  and  O_35
REMARK    6  A    between atoms: O_35  and  C_36
REMARK                            x       y       z     vdW  Elec       q    Type
REMARK                         _______ _______ _______ _____ _____    ______ ____
ROOT
ATOM      1  C   UNL     1       0.084  -4.295   0.008  0.00  0.00    +0.134 C 
ATOM      2  C   UNL     1       1.520  -4.817   0.121  0.00  0.00    +0.131 C 
ATOM      3  C   UNL     1       1.970  -4.546   1.551  0.00  0.00    -0.035 C 
ATOM      4  C   UNL     1       3.082  -3.825   1.464  0.00  0.00    +0.001 A 
ATOM      5  C   UNL     1       4.006  -3.322   2.494  0.00  0.00    +0.030 A 
ATOM      6  C   UNL     1       5.062  -2.591   2.046  0.00  0.00    +0.042 A 
ATOM      7  C   UNL     1       5.288  -2.315   0.693  0.00  0.00    +0.022 A 
ATOM      8  C   UNL     1       4.493  -2.742  -0.320  0.00  0.00    +0.027 A 
ATOM      9  C   UNL     1       3.352  -3.523   0.025  0.00  0.00    +0.043 A 
ATOM     10  N   UNL     1       2.438  -4.080  -0.750  0.00  0.00    -0.375 N 
ATOM     11 CL   UNL     1       6.187  -1.969   3.212  0.00  0.00    -0.084 Cl
ATOM     12  C   UNL     1       1.173  -4.995   2.751  0.00  0.00    +0.052 C 
ATOM     13  C   UNL     1      -0.273  -4.515   2.526  0.00  0.00    +0.114 C 
ATOM     14  N   UNL     1      -0.680  -4.822   1.150  0.00  0.00    -0.276 N 
ATOM     15  C   UNL     1      -1.762  -5.594   0.929  0.00  0.00    +0.307 C 
ATOM     16  O   UNL     1      -2.046  -5.934  -0.204  0.00  0.00    -0.252 OA
ATOM     17  N   UNL     1      -2.530  -5.990   1.963  0.00  0.00    -0.269 N 
ATOM     18  H   UNL     1      -2.353  -5.654   2.856  0.00  0.00    +0.156 HD
ATOM     19  H   UNL     1       2.374  -4.015  -1.715  0.00  0.00    +0.160 HD
ENDROOT
BRANCH   1  24
ATOM     20  C   UNL     1       0.089   1.482   0.155  0.00  0.00    +0.044 C 
ATOM     21  C   UNL     1       0.087  -0.024   0.117  0.00  0.00    -0.050 A 
ATOM     22  C   UNL     1       0.569  -0.744   1.195  0.00  0.00    +0.004 A 
ATOM     23  C   UNL     1       0.567  -2.126   1.160  0.00  0.00    +0.006 A 
ATOM     24  C   UNL     1       0.084  -2.788   0.047  0.00  0.00    -0.025 A 
ATOM     25  C   UNL     1      -0.398  -2.069  -1.030  0.00  0.00    +0.006 A 
ATOM     26  C   UNL     1      -0.400  -0.687  -0.994  0.00  0.00    +0.004 A 
ENDBRANCH   1  24
BRANCH  17  27
ATOM     27  C   UNL     1      -3.579  -6.881   1.751  0.00  0.00    +0.049 A 
ATOM     28  C   UNL     1      -3.542  -7.759   0.676  0.00  0.00    +0.024 A 
ATOM     29  C   UNL     1      -4.582  -8.641   0.467  0.00  0.00    +0.002 A 
ATOM     30  C   UNL     1      -5.670  -8.659   1.326  0.00  0.00    +0.001 A 
ATOM     31  C   UNL     1      -5.725  -7.796   2.398  0.00  0.00    +0.017 A 
ATOM     32  C   UNL     1      -4.676  -6.900   2.626  0.00  0.00    +0.080 A 
BRANCH  32  33
ATOM     33  C   UNL     1      -4.725  -5.978   3.774  0.00  0.00    +0.341 C 
ATOM     34  O   UNL     1      -3.866  -5.130   3.909  0.00  0.00    -0.245 OA
BRANCH  33  35
ATOM     35  O   UNL     1      -5.723  -6.076   4.675  0.00  0.00    -0.464 OA
ATOM     36  C   UNL     1      -5.708  -5.149   5.763  0.00  0.00    +0.280 C 
ENDBRANCH  33  35
ENDBRANCH  32  33
ENDBRANCH  17  27
TORSDOF 4
