REMARK  Name = ZINC25532725
REMARK  13 active torsions:
REMARK  status: ('A' for Active; 'I' for Inactive)
REMARK    1  A    between atoms: C_1  and  C_2
REMARK    2  A    between atoms: C_2  and  C_3
REMARK    3  A    between atoms: C_3  and  C_4
REMARK    4  A    between atoms: C_4  and  N_5
REMARK    5  A    between atoms: C_6  and  N_36
REMARK    6  A    between atoms: C_7  and  N_14
REMARK    7  A    between atoms: N_14  and  C_15
REMARK    8  A    between atoms: C_20  and  C_22
REMARK    9  A    between atoms: C_22  and  N_23
REMARK   10  A    between atoms: N_23  and  C_24
REMARK   11  A    between atoms: N_23  and  C_25
REMARK   12  A    between atoms: C_25  and  C_26
REMARK   13  A    between atoms: C_31  and  C_32
REMARK                            x       y       z     vdW  Elec       q    Type
REMARK                         _______ _______ _______ _____ _____    ______ ____
ROOT
ATOM      1  N   UNL     1       0.344  -3.132  -6.280  0.00  0.00    -0.260 N 
ATOM      2  C   UNL     1      -0.919  -2.900  -6.693  0.00  0.00    +0.234 C 
ATOM      3  O   UNL     1      -1.732  -2.430  -5.924  0.00  0.00    -0.274 OA
ENDROOT
BRANCH   1   6
ATOM      4  N   UNL     1       1.238  -1.041  -3.394  0.00  0.00    -0.280 N 
ATOM      5  C   UNL     1       0.841  -1.397  -4.662  0.00  0.00    +0.127 A 
ATOM      6  C   UNL     1       0.749  -2.734  -4.988  0.00  0.00    +0.140 A 
ATOM      7  C   UNL     1       1.064  -3.696  -4.010  0.00  0.00    +0.277 A 
ATOM      8  O   UNL     1       0.991  -4.885  -4.271  0.00  0.00    -0.266 OA
ATOM      9  N   UNL     1       1.448  -3.294  -2.782  0.00  0.00    -0.273 N 
ATOM     10  H   UNL     1       1.666  -3.955  -2.107  0.00  0.00    +0.173 HD
ATOM     11  C   UNL     1       1.537  -1.985  -2.484  0.00  0.00    +0.331 A 
ATOM     12  O   UNL     1       1.891  -1.650  -1.370  0.00  0.00    -0.246 OA
BRANCH   5  13
ATOM     13  N   UNL     1       0.540  -0.432  -5.593  0.00  0.00    -0.343 N 
ATOM     14  H   UNL     1       0.530   0.504  -5.336  0.00  0.00    +0.144 HD
ATOM     15  H   UNL     1       0.337  -0.686  -6.507  0.00  0.00    +0.144 HD
ENDBRANCH   5  13
BRANCH   4  16
ATOM     16  C   UNL     1       1.340   0.376  -3.034  0.00  0.00    +0.128 C 
BRANCH  16  17
ATOM     17  C   UNL     1       2.749   0.881  -3.348  0.00  0.00    +0.021 C 
BRANCH  17  19
ATOM     18  C   UNL     1       4.266   2.866  -3.286  0.00  0.00    +0.004 C 
ATOM     19  C   UNL     1       2.857   2.360  -2.972  0.00  0.00    -0.002 C 
ENDBRANCH  17  19
ENDBRANCH  16  17
ENDBRANCH   4  16
ENDBRANCH   1   6
BRANCH   1  20
ATOM     20  C   UNL     1       1.297  -3.795  -7.174  0.00  0.00    +0.082 C 
ATOM     21  C   UNL     1       2.632  -4.036  -6.439  0.00  0.00    +0.023 C 
ATOM     22  C   UNL     1       3.711  -3.797  -7.524  0.00  0.00    +0.002 C 
ATOM     23  C   UNL     1       3.130  -2.607  -8.328  0.00  0.00    +0.002 C 
ATOM     24  C   UNL     1       1.613  -2.887  -8.375  0.00  0.00    +0.023 C 
ENDBRANCH   1  20
BRANCH   2  25
ATOM     25  C   UNL     1      -1.322  -3.226  -8.108  0.00  0.00    +0.181 C 
BRANCH  25  26
ATOM     26  N   UNL     1      -2.699  -2.772  -8.342  0.00  0.00    -0.293 NA
ATOM     27  C   UNL     1      -2.788  -1.307  -8.283  0.00  0.00    +0.105 C 
BRANCH  26  28
ATOM     28  C   UNL     1      -3.209  -3.279  -9.623  0.00  0.00    +0.120 C 
BRANCH  28  29
ATOM     29  C   UNL     1      -4.668  -2.926  -9.758  0.00  0.00    -0.022 A 
ATOM     30  C   UNL     1      -5.059  -1.912 -10.612  0.00  0.00    +0.005 A 
ATOM     31  C   UNL     1      -6.397  -1.589 -10.735  0.00  0.00    +0.000 A 
ATOM     32  C   UNL     1      -7.345  -2.280 -10.004  0.00  0.00    +0.001 A 
ATOM     33  C   UNL     1      -6.955  -3.295  -9.150  0.00  0.00    +0.013 A 
ATOM     34  C   UNL     1      -5.617  -3.621  -9.031  0.00  0.00    +0.059 A 
BRANCH  34  35
ATOM     35  C   UNL     1      -5.192  -4.731  -8.104  0.00  0.00    +0.418 C 
ATOM     36  F   UNL     1      -6.326  -5.350  -7.567  0.00  0.00    -0.166 F 
ATOM     37  F   UNL     1      -4.440  -5.671  -8.816  0.00  0.00    -0.166 F 
ATOM     38  F   UNL     1      -4.416  -4.201  -7.068  0.00  0.00    -0.166 F 
ENDBRANCH  34  35
ENDBRANCH  28  29
ENDBRANCH  26  28
ENDBRANCH  25  26
ENDBRANCH   2  25
TORSDOF 11
