REMARK  Name = ZINC02750573
REMARK  8 active torsions:
REMARK  status: ('A' for Active; 'I' for Inactive)
REMARK    1  A    between atoms: C_1  and  C_2
REMARK    2  A    between atoms: C_2  and  N_46
REMARK    3  A    between atoms: C_8  and  N_13
REMARK    4  A    between atoms: C_9  and  C_10
REMARK    5  A    between atoms: N_13  and  C_14
REMARK    6  A    between atoms: C_14  and  N_16
REMARK    7  A    between atoms: C_17  and  C_19
REMARK    8  A    between atoms: N_23  and  C_24
REMARK                            x       y       z     vdW  Elec       q    Type
REMARK                         _______ _______ _______ _____ _____    ______ ____
ROOT
ATOM      1  C   UNL     1       2.491  -6.718   0.405  0.00  0.00    -0.074 C 
ATOM      2  C   UNL     1       3.124  -5.396  -0.040  0.00  0.00    +0.018 C 
ATOM      3  C   UNL     1       2.042  -4.323  -0.026  0.00  0.00    -0.027 A 
ATOM      4  C   UNL     1       0.737  -4.675  -0.012  0.00  0.00    -0.021 A 
ATOM      5  S   UNL     1      -0.145  -3.142   0.001  0.00  0.00    -0.079 S 
ATOM      6  C   UNL     1       1.198  -2.047  -0.013  0.00  0.00    +0.084 A 
ATOM      7  C   UNL     1       2.299  -2.895  -0.033  0.00  0.00    +0.068 A 
ATOM      8  C   UNL     1       0.193  -6.070  -0.010  0.00  0.00    -0.035 C 
ATOM      9  N   UNL     1       1.290  -6.984  -0.413  0.00  0.00    +0.383 N 
ATOM     10  H   UNL     1       1.515  -6.822  -1.401  0.00  0.00    -0.081 HD
ENDROOT
BRANCH   7  11
ATOM     11  C   UNL     1       3.666  -2.367  -0.057  0.00  0.00    +0.244 C 
ATOM     12  O   UNL     1       4.253  -2.150   0.987  0.00  0.00    -0.270 OA
ATOM     13  N   UNL     1       4.274  -2.122  -1.235  0.00  0.00    -0.325 N 
ATOM     14  H   UNL     1       3.806  -2.295  -2.067  0.00  0.00    +0.145 HD
ATOM     15  H   UNL     1       5.178  -1.773  -1.250  0.00  0.00    +0.145 HD
ENDBRANCH   7  11
BRANCH   9  17
ATOM     16  C   UNL     1       0.621  -8.700   1.236  0.00  0.00    -0.017 C 
ATOM     17  C   UNL     1       0.864  -8.390  -0.242  0.00  0.00    -0.082 C 
ENDBRANCH   9  17
BRANCH   6  18
ATOM     18  N   UNL     1       1.179  -0.661  -0.010  0.00  0.00    -0.291 N 
ATOM     19  H   UNL     1       2.013  -0.165  -0.019  0.00  0.00    +0.154 HD
BRANCH  18  20
ATOM     20  C   UNL     1       0.003  -0.004   0.006  0.00  0.00    +0.141 C 
ATOM     21  S   UNL     1      -1.468  -0.880   0.022  0.00  0.00    -0.018 S 
BRANCH  20  22
ATOM     22  N   UNL     1      -0.016   1.344   0.009  0.00  0.00    -0.262 N 
ATOM     23  C   UNL     1      -1.192   2.002   0.018  0.00  0.00    +0.269 C 
ATOM     24  O   UNL     1      -2.235   1.383  -0.071  0.00  0.00    -0.268 OA
ATOM     25  H   UNL     1       0.818   1.840  -0.001  0.00  0.00    +0.157 HD
BRANCH  23  26
ATOM     26  C   UNL     1      -1.214   3.466   0.138  0.00  0.00    +0.142 A 
ATOM     27  C   UNL     1      -1.371   4.382  -0.890  0.00  0.00    +0.091 A 
ATOM     28  C   UNL     1      -1.327   5.637  -0.276  0.00  0.00    +0.155 A 
ATOM     29  N   UNL     1      -1.148   5.451   1.006  0.00  0.00    -0.178 NA
ATOM     30  N   UNL     1      -1.077   4.199   1.284  0.00  0.00    -0.261 N 
ATOM     31  C   UNL     1      -0.880   3.641   2.624  0.00  0.00    +0.173 C 
ATOM     32 CL   UNL     1      -1.583   4.044  -2.580  0.00  0.00    -0.080 Cl
ENDBRANCH  23  26
ENDBRANCH  20  22
ENDBRANCH  18  20
ENDBRANCH   6  18
TORSDOF 6
