REMARK  Name = ZINC28510110
REMARK  6 active torsions:
REMARK  status: ('A' for Active; 'I' for Inactive)
REMARK    1  A    between atoms: C_1  and  C_2
REMARK    2  A    between atoms: C_2  and  C_4
REMARK    3  A    between atoms: C_2  and  N_22
REMARK    4  A    between atoms: C_4  and  C_5
REMARK    5  A    between atoms: N_10  and  C_11
REMARK    6  A    between atoms: C_14  and  N_17
REMARK                            x       y       z     vdW  Elec       q    Type
REMARK                         _______ _______ _______ _____ _____    ______ ____
ROOT
ATOM      1  C   UNL     1      -2.233  -6.691  -1.264  0.00  0.00    +0.049 A 
ATOM      2  C   UNL     1      -3.101  -5.845  -1.870  0.00  0.00    +0.071 A 
ATOM      3  S   UNL     1      -2.340  -4.270  -1.504  0.00  0.00    -0.060 S 
ATOM      4  C   UNL     1      -0.977  -4.877  -0.616  0.00  0.00    +0.163 A 
ATOM      5  N   UNL     1      -1.184  -6.180  -0.647  0.00  0.00    -0.230 NA
ATOM      6  N   UNL     1       0.059  -4.173  -0.021  0.00  0.00    -0.294 N 
ATOM      7  H   UNL     1       0.905  -4.715   0.427  0.00  0.00    +0.154 HD
ENDROOT
BRANCH   6   8
ATOM      8  C   UNL     1       0.027  -2.774   0.009  0.00  0.00    +0.033 A 
ATOM      9  C   UNL     1      -1.185  -2.109   0.142  0.00  0.00    +0.025 A 
ATOM     10  C   UNL     1      -1.216  -0.729   0.171  0.00  0.00    +0.025 A 
ATOM     11  C   UNL     1      -0.035  -0.006   0.068  0.00  0.00    +0.030 A 
ATOM     12  C   UNL     1       1.177  -0.670  -0.071  0.00  0.00    +0.025 A 
ATOM     13  C   UNL     1       1.208  -2.050  -0.095  0.00  0.00    +0.025 A 
BRANCH  11  14
ATOM     14  N   UNL     1      -0.066   1.393   0.097  0.00  0.00    -0.330 N 
ATOM     15  C   UNL     1       0.678   1.918   1.271  0.00  0.00    +0.105 C 
ATOM     16  C   UNL     1       0.988   3.382   0.870  0.00  0.00    +0.020 C 
ATOM     17  C   UNL     1       1.286   3.269  -0.643  0.00  0.00    +0.020 C 
ATOM     18  C   UNL     1       0.603   1.964  -1.092  0.00  0.00    +0.105 C 
ENDBRANCH  11  14
ENDBRANCH   6   8
BRANCH   1  19
ATOM     19  C   UNL     1      -2.459  -8.180  -1.295  0.00  0.00    +0.039 C 
BRANCH  19  21
ATOM     20  C   UNL     1      -1.400 -10.390  -1.781  0.00  0.00    -0.014 C 
ATOM     21  C   UNL     1      -1.220  -8.873  -1.865  0.00  0.00    -0.072 C 
BRANCH  21  22
ATOM     22  N   UNL     1      -1.041  -8.478  -3.269  0.00  0.00    +0.380 N 
ATOM     23  H   UNL     1      -0.911  -7.388  -3.329  0.00  0.00    -0.090 HD
ATOM     24  H   UNL     1      -1.927  -8.775  -3.849  0.00  0.00    -0.090 HD
ATOM     25  H   UNL     1      -0.150  -8.976  -3.679  0.00  0.00    -0.090 HD
ENDBRANCH  21  22
ENDBRANCH  19  21
ENDBRANCH   1  19
TORSDOF 5
