REMARK  Name = ZINC63588955
REMARK  12 active torsions:
REMARK  status: ('A' for Active; 'I' for Inactive)
REMARK    1  A    between atoms: C_1  and  C_2
REMARK    2  A    between atoms: C_2  and  O_3
REMARK    3  A    between atoms: O_3  and  C_4
REMARK    4  A    between atoms: C_9  and  N_10
REMARK    5  A    between atoms: N_12  and  C_13
REMARK    6  A    between atoms: C_13  and  C_14
REMARK    7  A    between atoms: C_14  and  C_15
REMARK    8  A    between atoms: N_24  and  C_25
REMARK    9  A    between atoms: C_25  and  C_27
REMARK   10  A    between atoms: C_31  and  N_33
REMARK   11  A    between atoms: N_33  and  C_34
REMARK   12  A    between atoms: N_33  and  C_35
REMARK                            x       y       z     vdW  Elec       q    Type
REMARK                         _______ _______ _______ _____ _____    ______ ____
ROOT
ATOM      1  N   UNL     1       3.377  -2.020  -3.649  0.00  0.00    -0.325 N 
ATOM      2  C   UNL     1       3.160  -2.139  -4.991  0.00  0.00    +0.194 C 
ATOM      3  N   UNL     1       3.054  -1.022  -5.767  0.00  0.00    -0.357 N 
ATOM      4  N   UNL     1       3.053  -3.340  -5.540  0.00  0.00    -0.143 NA
ATOM      5  H   UNL     1       2.847  -1.105  -6.711  0.00  0.00    +0.162 HD
ATOM      6  H   UNL     1       4.246  -2.238  -3.277  0.00  0.00    +0.169 HD
ENDROOT
BRANCH   1  12
ATOM      7  C   UNL     1       2.603  -1.318  -1.465  0.00  0.00    +0.144 A 
ATOM      8  C   UNL     1       1.580  -0.880  -0.640  0.00  0.00    +0.048 A 
ATOM      9  C   UNL     1       0.305  -0.712  -1.149  0.00  0.00    +0.004 A 
ATOM     10  C   UNL     1       0.048  -0.979  -2.481  0.00  0.00    +0.002 A 
ATOM     11  C   UNL     1       1.063  -1.416  -3.311  0.00  0.00    +0.029 A 
ATOM     12  C   UNL     1       2.345  -1.582  -2.809  0.00  0.00    +0.084 A 
BRANCH   7  13
ATOM     13  O   UNL     1       3.857  -1.484  -0.966  0.00  0.00    -0.490 OA
BRANCH  13  15
ATOM     14  C   UNL     1       5.511  -1.438   0.795  0.00  0.00    +0.048 C 
ATOM     15  C   UNL     1       4.048  -1.194   0.420  0.00  0.00    +0.226 C 
ENDBRANCH  13  15
ENDBRANCH   7  13
ENDBRANCH   1  12
BRANCH   4  16
ATOM     16  C   UNL     1       2.968  -4.427  -4.762  0.00  0.00    +0.270 C 
ATOM     17  O   UNL     1       2.865  -4.305  -3.555  0.00  0.00    -0.268 OA
BRANCH  16  18
ATOM     18  C   UNL     1       2.998  -5.777  -5.371  0.00  0.00    +0.041 A 
ATOM     19  C   UNL     1       3.234  -5.923  -6.738  0.00  0.00    +0.013 A 
ATOM     20  C   UNL     1       3.263  -7.182  -7.303  0.00  0.00    +0.003 A 
ATOM     21  C   UNL     1       3.057  -8.301  -6.519  0.00  0.00    +0.023 A 
ATOM     22  C   UNL     1       2.821  -8.166  -5.156  0.00  0.00    +0.030 A 
ATOM     23  C   UNL     1       2.797  -6.905  -4.578  0.00  0.00    +0.036 A 
BRANCH  22  24
ATOM     24  N   UNL     1       2.613  -9.300  -4.367  0.00  0.00    -0.336 N 
ATOM     25  C   UNL     1       2.644 -10.632  -4.976  0.00  0.00    +0.129 C 
ATOM     26  C   UNL     1       2.364  -9.158  -2.930  0.00  0.00    +0.129 C 
ENDBRANCH  22  24
ENDBRANCH  16  18
ENDBRANCH   4  16
BRANCH   3  27
ATOM     27  C   UNL     1       3.252   0.303  -5.174  0.00  0.00    +0.120 C 
BRANCH  27  28
ATOM     28  C   UNL     1       3.027   1.377  -6.240  0.00  0.00    +0.054 C 
BRANCH  28  29
ATOM     29  C   UNL     1       3.345   2.732  -5.662  0.00  0.00    -0.040 C 
ATOM     30  C   UNL     1       4.566   3.307  -5.561  0.00  0.00    -0.001 A 
ATOM     31  C   UNL     1       5.910   2.859  -5.942  0.00  0.00    +0.010 A 
ATOM     32  C   UNL     1       6.964   3.674  -5.708  0.00  0.00    +0.001 A 
ATOM     33  C   UNL     1       6.804   4.932  -5.112  0.00  0.00    +0.002 A 
ATOM     34  C   UNL     1       5.601   5.413  -4.734  0.00  0.00    +0.026 A 
ATOM     35  C   UNL     1       4.424   4.640  -4.933  0.00  0.00    +0.043 A 
ATOM     36  N   UNL     1       3.165   4.880  -4.657  0.00  0.00    -0.380 N 
ATOM     37  C   UNL     1       2.364   3.728  -5.085  0.00  0.00    +0.144 C 
ATOM     38  H   UNL     1       2.820   5.687  -4.243  0.00  0.00    +0.160 HD
ENDBRANCH  28  29
ENDBRANCH  27  28
ENDBRANCH   3  27
TORSDOF 9
