REMARK  Name = ZINC04574116
REMARK  15 active torsions:
REMARK  status: ('A' for Active; 'I' for Inactive)
REMARK    1  A    between atoms: C_1  and  C_2
REMARK    2  A    between atoms: C_2  and  N_64
REMARK    3  A    between atoms: C_3  and  C_4
REMARK    4  A    between atoms: C_3  and  N_64
REMARK    5  A    between atoms: C_5  and  C_6
REMARK    6  A    between atoms: C_5  and  N_64
REMARK    7  A    between atoms: C_6  and  N_7
REMARK    8  A    between atoms: C_8  and  C_10
REMARK    9  A    between atoms: C_12  and  N_19
REMARK   10  A    between atoms: C_15  and  N_16
REMARK   11  A    between atoms: N_16  and  C_17
REMARK   12  A    between atoms: N_16  and  C_18
REMARK   13  A    between atoms: N_22  and  C_23
REMARK   14  A    between atoms: C_26  and  O_29
REMARK   15  A    between atoms: O_29  and  C_30
REMARK                            x       y       z     vdW  Elec       q    Type
REMARK                         _______ _______ _______ _____ _____    ______ ____
ROOT
ATOM      1  C   UNL     1       1.706  -3.409  -0.337  0.00  0.00    +0.059 A 
ATOM      2  C   UNL     1       1.101  -4.256   0.596  0.00  0.00    +0.038 A 
ATOM      3  C   UNL     1       0.979  -5.606   0.321  0.00  0.00    +0.036 A 
ATOM      4  C   UNL     1       1.465  -6.124  -0.875  0.00  0.00    +0.025 A 
ATOM      5  C   UNL     1       2.068  -5.297  -1.799  0.00  0.00    +0.025 A 
ATOM      6  C   UNL     1       2.194  -3.938  -1.541  0.00  0.00    +0.042 A 
ENDROOT
BRANCH   3   7
ATOM      7  N   UNL     1       0.367  -6.456   1.253  0.00  0.00    -0.269 N 
ATOM      8  C   UNL     1      -0.643  -6.000   2.021  0.00  0.00    +0.308 C 
ATOM      9  O   UNL     1      -1.087  -4.882   1.839  0.00  0.00    -0.252 OA
ATOM     10  N   UNL     1      -1.159  -6.781   2.989  0.00  0.00    -0.269 N 
ATOM     11  H   UNL     1       0.670  -7.373   1.346  0.00  0.00    +0.156 HD
ATOM     12  H   UNL     1      -0.758  -7.643   3.183  0.00  0.00    +0.156 HD
BRANCH  10  13
ATOM     13  C   UNL     1      -2.276  -6.349   3.717  0.00  0.00    +0.035 A 
ATOM     14  C   UNL     1      -2.416  -6.705   5.052  0.00  0.00    +0.027 A 
ATOM     15  C   UNL     1      -3.515  -6.275   5.769  0.00  0.00    +0.047 A 
ATOM     16  C   UNL     1      -4.484  -5.496   5.155  0.00  0.00    +0.120 A 
ATOM     17  C   UNL     1      -4.347  -5.143   3.820  0.00  0.00    +0.047 A 
ATOM     18  C   UNL     1      -3.246  -5.568   3.103  0.00  0.00    +0.027 A 
BRANCH  16  19
ATOM     19  O   UNL     1      -5.568  -5.077   5.861  0.00  0.00    -0.495 OA
ATOM     20  C   UNL     1      -5.644  -5.477   7.230  0.00  0.00    +0.277 C 
ENDBRANCH  16  19
ENDBRANCH  10  13
ENDBRANCH   3   7
BRANCH   1  22
ATOM     21  N   UNL     1       1.364  -1.463   1.104  0.00  0.00    -0.313 N 
ATOM     22  C   UNL     1       1.835  -1.968  -0.054  0.00  0.00    +0.246 C 
ATOM     23  O   UNL     1       2.366  -1.234  -0.865  0.00  0.00    -0.270 OA
ATOM     24  H   UNL     1       0.941  -2.048   1.751  0.00  0.00    +0.149 HD
BRANCH  21  25
ATOM     25  C   UNL     1       1.492  -0.031   1.385  0.00  0.00    +0.086 C 
BRANCH  25  26
ATOM     26  C   UNL     1       0.883   0.277   2.754  0.00  0.00    -0.060 C 
BRANCH  26  27
ATOM     27  N   UNL     1       1.039   1.720   3.032  0.00  0.00    +0.380 N 
ATOM     28  H   UNL     1       2.022   1.982   2.894  0.00  0.00    -0.082 HD
BRANCH  27  30
ATOM     29  C   UNL     1      -1.279   2.153   2.288  0.00  0.00    -0.017 C 
ATOM     30  C   UNL     1       0.198   2.507   2.105  0.00  0.00    -0.082 C 
ENDBRANCH  27  30
BRANCH  27  31
ATOM     31  C   UNL     1       0.656   2.009   4.430  0.00  0.00    -0.082 C 
ATOM     32  C   UNL     1       1.067   3.444   4.767  0.00  0.00    -0.017 C 
ENDBRANCH  27  31
ENDBRANCH  26  27
ENDBRANCH  25  26
ENDBRANCH  21  25
ENDBRANCH   1  22
BRANCH   6  33
ATOM     33  N   UNL     1       2.802  -3.104  -2.473  0.00  0.00    -0.335 N 
ATOM     34  C   UNL     1       4.188  -3.520  -2.727  0.00  0.00    +0.129 C 
ATOM     35  C   UNL     1       2.029  -3.058  -3.722  0.00  0.00    +0.129 C 
ENDBRANCH   6  33
TORSDOF 10
