REMARK  Name = ZINC21993117
REMARK  14 active torsions:
REMARK  status: ('A' for Active; 'I' for Inactive)
REMARK    1  A    between atoms: C_1  and  C_2
REMARK    2  A    between atoms: C_2  and  C_3
REMARK    3  A    between atoms: C_2  and  N_4
REMARK    4  A    between atoms: N_4  and  C_5
REMARK    5  A    between atoms: N_4  and  C_31
REMARK    6  A    between atoms: C_5  and  C_6
REMARK    7  A    between atoms: C_6  and  N_7
REMARK    8  A    between atoms: C_17  and  S_18
REMARK    9  A    between atoms: S_18  and  C_19
REMARK   10  A    between atoms: C_19  and  C_20
REMARK   11  A    between atoms: N_22  and  C_23
REMARK   12  A    between atoms: C_24  and  C_28
REMARK   13  A    between atoms: C_31  and  C_32
REMARK   14  A    between atoms: C_31  and  C_33
REMARK                            x       y       z     vdW  Elec       q    Type
REMARK                         _______ _______ _______ _____ _____    ______ ____
ROOT
ATOM      1  N   UNL     1       0.159  -2.725  -0.527  0.00  0.00    -0.289 N 
ATOM      2  C   UNL     1       1.327  -2.243  -1.010  0.00  0.00    +0.262 A 
ATOM      3  O   UNL     1       2.275  -2.977  -1.221  0.00  0.00    -0.267 OA
ATOM      4  C   UNL     1       1.409  -0.799  -1.272  0.00  0.00    +0.065 A 
ATOM      5  C   UNL     1       2.568  -0.205  -1.770  0.00  0.00    +0.015 A 
ATOM      6  C   UNL     1       2.591   1.143  -1.995  0.00  0.00    +0.001 A 
ATOM      7  C   UNL     1       1.473   1.926  -1.733  0.00  0.00    +0.002 A 
ATOM      8  C   UNL     1       0.324   1.370  -1.245  0.00  0.00    +0.028 A 
ATOM      9  C   UNL     1       0.270  -0.006  -1.004  0.00  0.00    +0.079 A 
ATOM     10  N   UNL     1      -0.843  -0.596  -0.522  0.00  0.00    -0.223 NA
ATOM     11  C   UNL     1      -0.894  -1.885  -0.296  0.00  0.00    +0.173 A 
ENDROOT
BRANCH   1  12
ATOM     12  C   UNL     1       0.022  -4.156  -0.248  0.00  0.00    +0.109 C 
BRANCH  12  13
ATOM     13  C   UNL     1       0.443  -4.437   1.196  0.00  0.00    -0.056 C 
BRANCH  13  14
ATOM     14  N   UNL     1       0.305  -5.873   1.475  0.00  0.00    +0.384 N 
ATOM     15  H   UNL     1       0.841  -6.423   0.688  0.00  0.00    -0.081 HD
BRANCH  14  17
ATOM     16  C   UNL     1       2.426  -6.407   2.578  0.00  0.00    -0.014 C 
ATOM     17  C   UNL     1       0.919  -6.219   2.764  0.00  0.00    -0.074 C 
ATOM     18  C   UNL     1       0.666  -5.093   3.769  0.00  0.00    -0.014 C 
ENDBRANCH  14  17
BRANCH  14  19
ATOM     19  C   UNL     1      -1.104  -6.285   1.435  0.00  0.00    -0.074 C 
ATOM     20  C   UNL     1      -1.191  -7.812   1.483  0.00  0.00    -0.014 C 
ATOM     21  C   UNL     1      -1.842  -5.694   2.639  0.00  0.00    -0.014 C 
ENDBRANCH  14  19
ENDBRANCH  13  14
ENDBRANCH  12  13
ENDBRANCH   1  12
BRANCH  11  22
ATOM     22  S   UNL     1      -2.390  -2.569   0.335  0.00  0.00    -0.078 S 
BRANCH  22  23
ATOM     23  C   UNL     1      -3.399  -1.070   0.444  0.00  0.00    +0.173 C 
BRANCH  23  24
ATOM     24  C   UNL     1      -4.765  -1.421   0.976  0.00  0.00    +0.228 C 
ATOM     25  O   UNL     1      -5.030  -2.571   1.254  0.00  0.00    -0.275 OA
ATOM     26  N   UNL     1      -5.691  -0.456   1.143  0.00  0.00    -0.279 N 
ATOM     27  H   UNL     1      -5.451   0.587   0.891  0.00  0.00    +0.155 HD
BRANCH  26  28
ATOM     28  C   UNL     1      -6.948  -0.779   1.632  0.00  0.00    +0.084 A 
ATOM     29  C   UNL     1      -8.023   0.067   1.876  0.00  0.00    +0.065 A 
ATOM     30  C   UNL     1      -9.227  -0.544   2.388  0.00  0.00    +0.022 A 
ATOM     31  C   UNL     1      -9.201  -1.873   2.594  0.00  0.00    +0.048 A 
ATOM     32  S   UNL     1      -7.555  -2.333   2.095  0.00  0.00    -0.081 S 
BRANCH  29  33
ATOM     33  C   UNL     1      -7.940   1.508   1.622  0.00  0.00    +0.244 C 
ATOM     34  O   UNL     1      -6.911   1.992   1.187  0.00  0.00    -0.270 OA
ATOM     35  N   UNL     1      -9.004   2.299   1.870  0.00  0.00    -0.325 N 
ATOM     36  H   UNL     1      -8.941   3.380   1.680  0.00  0.00    +0.145 HD
ATOM     37  H   UNL     1      -9.933   1.862   2.263  0.00  0.00    +0.145 HD
ENDBRANCH  29  33
ENDBRANCH  26  28
ENDBRANCH  23  24
ENDBRANCH  22  23
ENDBRANCH  11  22
TORSDOF 10
