REMARK  Name = ZINC37109335
REMARK  11 active torsions:
REMARK  status: ('A' for Active; 'I' for Inactive)
REMARK    1  A    between atoms: C_1  and  C_2
REMARK    2  A    between atoms: C_2  and  C_3
REMARK    3  A    between atoms: C_3  and  C_5
REMARK    4  A    between atoms: C_3  and  N_6
REMARK    5  A    between atoms: N_6  and  C_7
REMARK    6  A    between atoms: N_6  and  C_8
REMARK    7  A    between atoms: C_8  and  C_9
REMARK    8  A    between atoms: C_9  and  C_10
REMARK    9  A    between atoms: C_10  and  C_11
REMARK   10  A    between atoms: N_13  and  C_14
REMARK   11  A    between atoms: C_15  and  N_22
REMARK                            x       y       z     vdW  Elec       q    Type
REMARK                         _______ _______ _______ _____ _____    ______ ____
ROOT
ATOM      1  C   UNL     1       4.749   3.967   0.171  0.00  0.00    +0.217 C 
ATOM      2  O   UNL     1       5.631   3.219   0.536  0.00  0.00    -0.275 OA
ATOM      3  N   UNL     1       5.022   5.265  -0.069  0.00  0.00    -0.283 N 
ATOM      4  H   UNL     1       4.308   5.874  -0.314  0.00  0.00    +0.155 HD
ENDROOT
BRANCH   3   5
ATOM      5  C   UNL     1       6.339   5.735   0.035  0.00  0.00    +0.073 A 
ATOM      6  C   UNL     1       6.601   6.944   0.678  0.00  0.00    +0.049 A 
ATOM      7  C   UNL     1       7.906   7.404   0.778  0.00  0.00    +0.044 A 
ATOM      8  C   UNL     1       8.944   6.663   0.240  0.00  0.00    +0.044 A 
ATOM      9  C   UNL     1       8.684   5.463  -0.398  0.00  0.00    +0.042 A 
ATOM     10  C   UNL     1       7.386   4.996  -0.497  0.00  0.00    +0.065 A 
ATOM     11 CL   UNL     1       7.065   3.486  -1.292  0.00  0.00    -0.082 Cl
ATOM     12 CL   UNL     1      10.576   7.241   0.367  0.00  0.00    -0.083 Cl
BRANCH   6  13
ATOM     13  N   UNL     1       5.551   7.692   1.220  0.00  0.00    -0.356 N 
ATOM     14  H   UNL     1       4.639   7.370   1.149  0.00  0.00    +0.142 HD
ATOM     15  H   UNL     1       5.735   8.533   1.667  0.00  0.00    +0.142 HD
ENDBRANCH   6  13
ENDBRANCH   3   5
BRANCH   1  16
ATOM     16  C   UNL     1       3.347   3.446  -0.014  0.00  0.00    +0.094 C 
BRANCH  16  17
ATOM     17  C   UNL     1       3.309   1.954   0.323  0.00  0.00    -0.009 C 
BRANCH  17  18
ATOM     18  C   UNL     1       1.886   1.425   0.136  0.00  0.00    -0.078 C 
BRANCH  18  19
ATOM     19  N   UNL     1       1.850  -0.008   0.459  0.00  0.00    +0.380 N 
ATOM     20  C   UNL     1       2.644  -0.753  -0.527  0.00  0.00    -0.096 C 
ATOM     21  H   UNL     1       2.234  -0.155   1.380  0.00  0.00    -0.082 HD
BRANCH  19  22
ATOM     22  C   UNL     1       0.460  -0.482   0.427  0.00  0.00    -0.072 C 
ATOM     23  C   UNL     1      -0.077  -0.391  -1.003  0.00  0.00    -0.013 C 
BRANCH  22  25
ATOM     24  C   UNL     1       0.832  -2.012   2.367  0.00  0.00    +0.002 C 
ATOM     25  C   UNL     1       0.406  -1.937   0.899  0.00  0.00    -0.019 C 
ENDBRANCH  22  25
ENDBRANCH  19  22
ENDBRANCH  18  19
ENDBRANCH  17  18
ENDBRANCH  16  17
ENDBRANCH   1  16
TORSDOF 8
