REMARK  Name = ZINC55023090
REMARK  11 active torsions:
REMARK  status: ('A' for Active; 'I' for Inactive)
REMARK    1  A    between atoms: C_1  and  N_2
REMARK    2  A    between atoms: N_2  and  C_3
REMARK    3  A    between atoms: N_2  and  C_12
REMARK    4  A    between atoms: C_3  and  C_4
REMARK    5  A    between atoms: C_4  and  C_5
REMARK    6  A    between atoms: C_12  and  C_13
REMARK    7  A    between atoms: N_15  and  C_16
REMARK    8  A    between atoms: C_16  and  C_17
REMARK    9  A    between atoms: C_17  and  C_18
REMARK   10  A    between atoms: C_21  and  S_24
REMARK   11  A    between atoms: S_24  and  N_27
REMARK                            x       y       z     vdW  Elec       q    Type
REMARK                         _______ _______ _______ _____ _____    ______ ____
ROOT
ATOM      1  C   UNL     1       2.158  -0.072   1.120  0.00  0.00    +0.196 C 
ATOM      2  O   UNL     1       2.558   0.569   0.171  0.00  0.00    -0.278 OA
ATOM      3  N   UNL     1       3.008  -0.409   2.111  0.00  0.00    -0.317 N 
ATOM      4  H   UNL     1       2.688  -0.922   2.870  0.00  0.00    +0.149 HD
ENDROOT
BRANCH   1   5
ATOM      5  C   UNL     1       0.713  -0.491   1.192  0.00  0.00    +0.018 C 
BRANCH   5   7
ATOM      6  C   UNL     1      -0.018   1.465   0.010  0.00  0.00    -0.096 C 
ATOM      7  N   UNL     1       0.002  -0.004   0.002  0.00  0.00    +0.384 N 
ATOM      8  H   UNL     1       0.474  -0.330  -0.828  0.00  0.00    -0.082 HD
BRANCH   7   9
ATOM      9  C   UNL     1      -1.376  -0.512   0.012  0.00  0.00    -0.074 C 
BRANCH   9  10
ATOM     10  C   UNL     1      -2.078  -0.110  -1.286  0.00  0.00    +0.016 C 
BRANCH  10  11
ATOM     11  C   UNL     1      -3.492  -0.632  -1.275  0.00  0.00    -0.049 A 
ATOM     12  C   UNL     1      -3.768  -1.889  -1.780  0.00  0.00    +0.006 A 
ATOM     13  C   UNL     1      -5.064  -2.368  -1.771  0.00  0.00    +0.038 A 
ATOM     14  C   UNL     1      -6.086  -1.589  -1.255  0.00  0.00    +0.123 A 
ATOM     15  C   UNL     1      -5.808  -0.331  -0.750  0.00  0.00    +0.038 A 
ATOM     16  C   UNL     1      -4.511   0.145  -0.755  0.00  0.00    +0.006 A 
ATOM     17  F   UNL     1      -7.354  -2.057  -1.245  0.00  0.00    -0.205 F 
ENDBRANCH  10  11
ENDBRANCH   9  10
ENDBRANCH   7   9
ENDBRANCH   5   7
ENDBRANCH   1   5
BRANCH   3  18
ATOM     18  C   UNL     1       4.413  -0.003   2.041  0.00  0.00    +0.109 C 
BRANCH  18  19
ATOM     19  C   UNL     1       5.153  -0.509   3.280  0.00  0.00    +0.054 C 
BRANCH  19  20
ATOM     20  C   UNL     1       6.599  -0.091   3.208  0.00  0.00    -0.046 A 
ATOM     21  C   UNL     1       7.527  -0.912   2.596  0.00  0.00    +0.005 A 
ATOM     22  C   UNL     1       8.853  -0.528   2.530  0.00  0.00    +0.029 A 
ATOM     23  C   UNL     1       9.252   0.678   3.076  0.00  0.00    +0.105 A 
ATOM     24  C   UNL     1       8.324   1.500   3.688  0.00  0.00    +0.029 A 
ATOM     25  C   UNL     1       6.997   1.118   3.750  0.00  0.00    +0.005 A 
BRANCH  23  26
ATOM     26  S   UNL     1      10.943   1.167   2.993  0.00  0.00    +0.056 S 
ATOM     27  O   UNL     1      11.152   2.085   4.057  0.00  0.00    -0.153 OA
ATOM     28  O   UNL     1      11.704  -0.025   2.854  0.00  0.00    -0.153 OA
BRANCH  26  29
ATOM     29  N   UNL     1      11.137   2.020   1.587  0.00  0.00    -0.204 NA
ATOM     30  H   UNL     1      10.381   2.159   0.996  0.00  0.00    +0.144 HD
ATOM     31  H   UNL     1      12.007   2.380   1.354  0.00  0.00    +0.144 HD
ENDBRANCH  26  29
ENDBRANCH  23  26
ENDBRANCH  19  20
ENDBRANCH  18  19
ENDBRANCH   3  18
TORSDOF 10
