REMARK  Name = ZINC02834869
REMARK  11 active torsions:
REMARK  status: ('A' for Active; 'I' for Inactive)
REMARK    1  A    between atoms: C_1  and  C_2
REMARK    2  A    between atoms: C_2  and  O_3
REMARK    3  A    between atoms: O_3  and  C_4
REMARK    4  A    between atoms: C_6  and  C_11
REMARK    5  A    between atoms: C_9  and  O_10
REMARK    6  A    between atoms: C_11  and  C_13
REMARK    7  A    between atoms: C_11  and  N_25
REMARK    8  A    between atoms: C_19  and  C_24
REMARK    9  A    between atoms: C_22  and  O_23
REMARK   10  A    between atoms: N_25  and  C_26
REMARK   11  A    between atoms: C_30  and  C_31
REMARK                            x       y       z     vdW  Elec       q    Type
REMARK                         _______ _______ _______ _____ _____    ______ ____
ROOT
ATOM      1  C   UNL     1       4.797   4.114  -0.022  0.00  0.00    +0.136 C 
ENDROOT
BRANCH   1   2
ATOM      2  C   UNL     1       3.570   3.240   0.016  0.00  0.00    +0.021 A 
ATOM      3  C   UNL     1       3.706   1.861  -0.121  0.00  0.00    +0.010 A 
ATOM      4  C   UNL     1       2.617   1.044  -0.090  0.00  0.00    +0.010 A 
ATOM      5  C   UNL     1       1.337   1.595   0.082  0.00  0.00    +0.004 A 
ATOM      6  C   UNL     1       0.188   0.782   0.118  0.00  0.00    +0.012 A 
ATOM      7  C   UNL     1      -1.025   1.388   0.282  0.00  0.00    +0.023 A 
ATOM      8  C   UNL     1      -1.097   2.773   0.418  0.00  0.00    +0.039 A 
ATOM      9  N   UNL     1      -0.025   3.526   0.384  0.00  0.00    -0.248 NA
ATOM     10  C   UNL     1       1.191   2.997   0.221  0.00  0.00    +0.113 A 
ATOM     11  C   UNL     1       2.342   3.812   0.185  0.00  0.00    +0.148 A 
ATOM     12  C   UNL     1      -2.444   3.422   0.604  0.00  0.00    +0.065 C 
BRANCH  11  13
ATOM     13  O   UNL     1       2.228   5.159   0.317  0.00  0.00    -0.504 OA
ATOM     14  H   UNL     1       2.112   5.629  -0.520  0.00  0.00    +0.292 HD
ENDBRANCH  11  13
ENDBRANCH   1   2
BRANCH   1  17
ATOM     15  C   UNL     1       4.952   6.368  -3.050  0.00  0.00    +0.162 A 
ATOM     16  C   UNL     1       4.746   5.917  -1.756  0.00  0.00    +0.055 A 
ATOM     17  C   UNL     1       5.022   4.603  -1.430  0.00  0.00    -0.019 A 
ATOM     18  C   UNL     1       5.510   3.737  -2.391  0.00  0.00    +0.009 A 
ATOM     19  C   UNL     1       5.713   4.179  -3.685  0.00  0.00    +0.049 A 
ATOM     20  C   UNL     1       5.438   5.495  -4.018  0.00  0.00    +0.158 A 
BRANCH  20  21
ATOM     21  O   UNL     1       5.642   5.933  -5.289  0.00  0.00    -0.503 OA
ATOM     22  H   UNL     1       6.529   6.286  -5.446  0.00  0.00    +0.292 HD
ENDBRANCH  20  21
BRANCH  15  23
ATOM     23  O   UNL     1       4.680   7.661  -3.372  0.00  0.00    -0.489 OA
BRANCH  23  25
ATOM     24  C   UNL     1       3.938   9.907  -2.876  0.00  0.00    +0.048 C 
ATOM     25  C   UNL     1       4.184   8.500  -2.327  0.00  0.00    +0.226 C 
ENDBRANCH  23  25
ENDBRANCH  15  23
ENDBRANCH   1  17
BRANCH   1  26
ATOM     26  N   UNL     1       5.961   3.341   0.419  0.00  0.00    -0.320 N 
ATOM     27  H   UNL     1       6.564   2.956  -0.237  0.00  0.00    +0.148 HD
BRANCH  26  28
ATOM     28  C   UNL     1       6.202   3.160   1.776  0.00  0.00    +0.097 A 
ATOM     29  C   UNL     1       5.396   3.801   2.711  0.00  0.00    +0.041 A 
ATOM     30  C   UNL     1       5.646   3.612   4.058  0.00  0.00    +0.005 A 
ATOM     31  C   UNL     1       6.700   2.785   4.426  0.00  0.00    +0.021 A 
ATOM     32  C   UNL     1       7.459   2.180   3.445  0.00  0.00    +0.014 A 
ATOM     33  C   UNL     1       8.603   1.282   3.838  0.00  0.00    +0.063 C 
ATOM     34  N   UNL     1       7.238   2.338   2.112  0.00  0.00    -0.347 N 
ATOM     35  H   UNL     1       7.814   1.869   1.404  0.00  0.00    +0.167 HD
ENDBRANCH  26  28
ENDBRANCH   1  26
TORSDOF 8
