REMARK  Name = ZINC35954712
REMARK  14 active torsions:
REMARK  status: ('A' for Active; 'I' for Inactive)
REMARK    1  A    between atoms: C_1  and  C_2
REMARK    2  A    between atoms: C_3  and  C_21
REMARK    3  A    between atoms: C_4  and  N_14
REMARK    4  A    between atoms: N_5  and  C_7
REMARK    5  A    between atoms: N_17  and  C_20
REMARK    6  A    between atoms: C_21  and  N_22
REMARK    7  A    between atoms: N_22  and  C_23
REMARK    8  A    between atoms: N_22  and  C_28
REMARK    9  A    between atoms: C_23  and  C_24
REMARK   10  A    between atoms: C_24  and  C_25
REMARK   11  A    between atoms: C_25  and  C_26
REMARK   12  A    between atoms: C_25  and  C_27
REMARK   13  A    between atoms: C_28  and  C_29
REMARK   14  A    between atoms: C_33  and  O_35
REMARK                            x       y       z     vdW  Elec       q    Type
REMARK                         _______ _______ _______ _____ _____    ______ ____
ROOT
ATOM      1  C   UNL     1       1.406   3.410  -0.508  0.00  0.00    +0.068 C 
ATOM      2  C   UNL     1       1.044   2.010  -0.083  0.00  0.00    +0.064 A 
ATOM      3  C   UNL     1       1.278   0.846  -0.820  0.00  0.00    -0.001 A 
ATOM      4  C   UNL     1       0.807  -0.208  -0.097  0.00  0.00    +0.126 A 
ATOM      5  N   UNL     1       0.294   0.289   1.061  0.00  0.00    -0.218 N 
ATOM      6  N   UNL     1       0.462   1.679   1.042  0.00  0.00    -0.170 NA
ENDROOT
BRANCH   4   7
ATOM      7  N   UNL     1       0.845  -1.547  -0.474  0.00  0.00    -0.318 N 
ATOM      8  C   UNL     1       1.774  -2.488   0.169  0.00  0.00    +0.088 C 
ATOM      9  C   UNL     1       0.984  -3.721   0.618  0.00  0.00    -0.060 C 
ATOM     10  N   UNL     1       0.254  -4.278  -0.528  0.00  0.00    +0.380 N 
ATOM     11  C   UNL     1      -0.750  -3.315  -0.998  0.00  0.00    -0.060 C 
ATOM     12  C   UNL     1      -0.049  -2.063  -1.523  0.00  0.00    +0.088 C 
ATOM     13  C   UNL     1      -0.415  -5.522  -0.123  0.00  0.00    -0.096 C 
ATOM     14  H   UNL     1       0.903  -4.476  -1.274  0.00  0.00    -0.082 HD
ENDBRANCH   4   7
BRANCH   5  15
ATOM     15  C   UNL     1      -0.295  -0.459   2.091  0.00  0.00    +0.068 A 
ATOM     16  C   UNL     1      -1.087  -1.558   1.788  0.00  0.00    +0.030 A 
ATOM     17  C   UNL     1      -1.665  -2.293   2.804  0.00  0.00    +0.040 A 
ATOM     18  C   UNL     1      -1.455  -1.934   4.125  0.00  0.00    +0.124 A 
ATOM     19  C   UNL     1      -0.666  -0.838   4.430  0.00  0.00    +0.040 A 
ATOM     20  C   UNL     1      -0.082  -0.104   3.416  0.00  0.00    +0.030 A 
ATOM     21  F   UNL     1      -2.022  -2.654   5.117  0.00  0.00    -0.205 F 
ENDBRANCH   5  15
BRANCH   3  22
ATOM     22  C   UNL     1       1.933   0.771  -2.175  0.00  0.00    -0.037 C 
BRANCH  22  23
ATOM     23  N   UNL     1       3.393   0.813  -2.015  0.00  0.00    +0.385 N 
ATOM     24  H   UNL     1       3.643   1.579  -1.409  0.00  0.00    -0.081 HD
BRANCH  23  25
ATOM     25  C   UNL     1       3.857  -0.450  -1.425  0.00  0.00    -0.078 C 
BRANCH  25  26
ATOM     26  C   UNL     1       5.164  -0.208  -0.666  0.00  0.00    -0.016 C 
BRANCH  26  27
ATOM     27  C   UNL     1       5.621  -1.512  -0.009  0.00  0.00    -0.019 C 
ATOM     28  C   UNL     1       5.990  -2.527  -1.093  0.00  0.00    +0.007 C 
ATOM     29  C   UNL     1       6.842  -1.240   0.871  0.00  0.00    +0.007 C 
ENDBRANCH  26  27
ENDBRANCH  25  26
ENDBRANCH  23  25
BRANCH  23  30
ATOM     30  C   UNL     1       4.024   1.001  -3.328  0.00  0.00    -0.042 C 
BRANCH  30  31
ATOM     31  C   UNL     1       5.514   1.146  -3.154  0.00  0.00    -0.060 A 
ATOM     32  C   UNL     1       6.029   2.254  -2.505  0.00  0.00    +0.002 A 
ATOM     33  C   UNL     1       7.395   2.390  -2.344  0.00  0.00    +0.004 A 
ATOM     34  C   UNL     1       8.249   1.419  -2.829  0.00  0.00    +0.045 A 
ATOM     35  C   UNL     1       7.736   0.307  -3.480  0.00  0.00    +0.117 A 
ATOM     36  C   UNL     1       6.364   0.170  -3.636  0.00  0.00    +0.047 A 
BRANCH  35  37
ATOM     37  O   UNL     1       8.574  -0.649  -3.959  0.00  0.00    -0.507 OA
ATOM     38  H   UNL     1       8.830  -1.312  -3.303  0.00  0.00    +0.292 HD
ENDBRANCH  35  37
ENDBRANCH  30  31
ENDBRANCH  23  30
ENDBRANCH  22  23
ENDBRANCH   3  22
TORSDOF 10
