REMARK  Name = ZINC49633523
REMARK  8 active torsions:
REMARK  status: ('A' for Active; 'I' for Inactive)
REMARK    1  A    between atoms: C_1  and  C_2
REMARK    2  A    between atoms: C_5  and  N_9
REMARK    3  A    between atoms: C_10  and  C_12
REMARK    4  A    between atoms: C_12  and  N_13
REMARK    5  A    between atoms: N_13  and  C_14
REMARK    6  A    between atoms: N_13  and  C_15
REMARK    7  A    between atoms: C_15  and  C_16
REMARK    8  A    between atoms: C_16  and  O_17
REMARK                            x       y       z     vdW  Elec       q    Type
REMARK                         _______ _______ _______ _____ _____    ______ ____
ROOT
ATOM      1  N   UNL     1       0.059  -4.172  -0.021  0.00  0.00    -0.285 N 
ATOM      2  C   UNL     1       0.473  -4.846   1.070  0.00  0.00    +0.201 C 
ATOM      3  O   UNL     1       0.743  -4.245   2.088  0.00  0.00    -0.278 OA
ATOM      4  H   UNL     1      -0.225  -4.656  -0.811  0.00  0.00    +0.155 HD
ENDROOT
BRANCH   1   9
ATOM      5  C   UNL     1      -0.016   1.503   0.009  0.00  0.00    +0.044 C 
ATOM      6  C   UNL     1       0.004  -0.004   0.001  0.00  0.00    -0.048 A 
ATOM      7  C   UNL     1       1.144  -0.676  -0.398  0.00  0.00    +0.020 A 
ATOM      8  C   UNL     1       1.166  -2.058  -0.407  0.00  0.00    +0.040 A 
ATOM      9  C   UNL     1       0.041  -2.772  -0.013  0.00  0.00    +0.062 A 
ATOM     10  C   UNL     1      -1.103  -2.093   0.387  0.00  0.00    +0.040 A 
ATOM     11  C   UNL     1      -1.116  -0.711   0.398  0.00  0.00    +0.020 A 
ATOM     12 BR   UNL     1      -2.638  -3.059   0.924  0.00  0.00    -0.048 Br
ATOM     13 BR   UNL     1       2.726  -2.977  -0.954  0.00  0.00    -0.048 Br
ENDBRANCH   1   9
BRANCH   2  14
ATOM     14  C   UNL     1       0.601  -6.347   1.025  0.00  0.00    +0.019 C 
BRANCH  14  15
ATOM     15  N   UNL     1       1.066  -6.838   2.329  0.00  0.00    +0.385 N 
ATOM     16  C   UNL     1       2.424  -6.340   2.584  0.00  0.00    -0.095 C 
ATOM     17  H   UNL     1       0.446  -6.509   3.053  0.00  0.00    -0.081 HD
BRANCH  15  18
ATOM     18  C   UNL     1       1.077  -8.307   2.323  0.00  0.00    -0.050 C 
BRANCH  18  19
ATOM     19  C   UNL     1       1.440  -8.820   3.718  0.00  0.00    +0.137 C 
BRANCH  19  20
ATOM     20  O   UNL     1       0.415  -8.453   4.643  0.00  0.00    -0.397 OA
ATOM     21  H   UNL     1       0.580  -8.746   5.549  0.00  0.00    +0.209 HD
ENDBRANCH  19  20
ENDBRANCH  18  19
ENDBRANCH  15  18
ENDBRANCH  14  15
ENDBRANCH   2  14
TORSDOF 6
