REMARK  Name = ZINC12705924
REMARK  11 active torsions:
REMARK  status: ('A' for Active; 'I' for Inactive)
REMARK    1  A    between atoms: C_1  and  C_2
REMARK    2  A    between atoms: C_5  and  C_31
REMARK    3  A    between atoms: C_9  and  C_14
REMARK    4  A    between atoms: C_14  and  N_15
REMARK    5  A    between atoms: N_15  and  C_16
REMARK    6  A    between atoms: C_16  and  C_17
REMARK    7  A    between atoms: C_17  and  C_18
REMARK    8  A    between atoms: C_18  and  N_60
REMARK    9  A    between atoms: C_19  and  N_60
REMARK   10  A    between atoms: C_20  and  N_60
REMARK   11  A    between atoms: N_23  and  C_24
REMARK                            x       y       z     vdW  Elec       q    Type
REMARK                         _______ _______ _______ _____ _____    ______ ____
ROOT
ATOM      1  N   UNL     1      -0.017   1.343  -0.008  0.00  0.00    -0.281 N 
ATOM      2  C   UNL     1       0.002  -0.005  -0.005  0.00  0.00    +0.307 C 
ATOM      3  O   UNL     1      -1.043  -0.627   0.004  0.00  0.00    -0.252 OA
ATOM      4  N   UNL     1       1.178  -0.662  -0.013  0.00  0.00    -0.268 N 
ATOM      5  H   UNL     1       2.010  -0.168  -0.086  0.00  0.00    +0.156 HD
ENDROOT
BRANCH   4   6
ATOM      6  C   UNL     1       1.200  -2.058   0.085  0.00  0.00    +0.053 A 
ATOM      7  C   UNL     1       0.193  -2.813  -0.500  0.00  0.00    +0.025 A 
ATOM      8  C   UNL     1       0.220  -4.191  -0.405  0.00  0.00    +0.002 A 
ATOM      9  C   UNL     1       1.244  -4.819   0.280  0.00  0.00    +0.002 A 
ATOM     10  C   UNL     1       2.246  -4.071   0.869  0.00  0.00    +0.022 A 
ATOM     11  C   UNL     1       2.228  -2.692   0.774  0.00  0.00    +0.062 A 
ATOM     12 CL   UNL     1       3.486  -1.753   1.514  0.00  0.00    -0.082 Cl
ENDBRANCH   4   6
BRANCH   1  13
ATOM     13  C   UNL     1      -1.296   2.058  -0.006  0.00  0.00    +0.150 C 
BRANCH  13  22
ATOM     14  C   UNL     1      -0.850   5.995   3.372  0.00  0.00    +0.044 C 
ATOM     15  C   UNL     1      -1.605   4.892   4.068  0.00  0.00    -0.041 A 
ATOM     16  C   UNL     1      -2.026   5.056   5.357  0.00  0.00    +0.004 A 
ATOM     17  C   UNL     1      -2.722   4.046   6.007  0.00  0.00    +0.005 A 
ATOM     18  C   UNL     1      -3.001   2.858   5.365  0.00  0.00    -0.026 A 
ATOM     19  C   UNL     1      -2.582   2.668   4.053  0.00  0.00    +0.052 A 
ATOM     20  C   UNL     1      -1.876   3.695   3.397  0.00  0.00    +0.002 A 
ATOM     21  C   UNL     1      -1.439   3.486   2.015  0.00  0.00    +0.020 A 
ATOM     22  C   UNL     1      -1.731   2.305   1.416  0.00  0.00    +0.035 A 
ATOM     23  C   UNL     1      -2.446   1.310   2.116  0.00  0.00    +0.254 A 
ATOM     24  O   UNL     1      -2.702   0.258   1.556  0.00  0.00    -0.268 OA
ATOM     25  N   UNL     1      -2.847   1.491   3.386  0.00  0.00    -0.322 N 
ATOM     26  H   UNL     1      -3.333   0.784   3.839  0.00  0.00    +0.169 HD
ATOM     27  C   UNL     1      -3.756   1.770   6.083  0.00  0.00    +0.046 C 
ENDBRANCH  13  22
ENDBRANCH   1  13
BRANCH   1  28
ATOM     28  C   UNL     1       1.241   2.093  -0.018  0.00  0.00    +0.108 C 
BRANCH  28  29
ATOM     29  C   UNL     1       1.668   2.352  -1.465  0.00  0.00    +0.000 C 
BRANCH  29  30
ATOM     30  C   UNL     1       2.982   3.135  -1.476  0.00  0.00    -0.078 C 
BRANCH  30  33
ATOM     31  C   UNL     1       2.446   4.280  -3.541  0.00  0.00    -0.097 C 
ATOM     32  C   UNL     1       4.759   3.921  -2.921  0.00  0.00    -0.097 C 
ATOM     33  N   UNL     1       3.393   3.358  -2.878  0.00  0.00    +0.376 N 
ATOM     34  H   UNL     1       3.386   2.459  -3.374  0.00  0.00    -0.083 HD
ENDBRANCH  30  33
ENDBRANCH  29  30
ENDBRANCH  28  29
ENDBRANCH   1  28
TORSDOF 7
