REMARK  Name = ZINC59334212
REMARK  10 active torsions:
REMARK  status: ('A' for Active; 'I' for Inactive)
REMARK    1  A    between atoms: C_1  and  C_2
REMARK    2  A    between atoms: C_2  and  C_3
REMARK    3  A    between atoms: C_3  and  C_28
REMARK    4  A    between atoms: N_6  and  N_10
REMARK    5  A    between atoms: C_11  and  C_13
REMARK    6  A    between atoms: C_13  and  N_14
REMARK    7  A    between atoms: N_14  and  C_15
REMARK    8  A    between atoms: N_14  and  C_18
REMARK    9  A    between atoms: C_18  and  C_20
REMARK   10  A    between atoms: C_18  and  C_21
REMARK                            x       y       z     vdW  Elec       q    Type
REMARK                         _______ _______ _______ _____ _____    ______ ____
ROOT
ATOM      1  N   UNL     1      -5.339   1.386   1.279  0.00  0.00    -0.225 N 
ATOM      2  C   UNL     1      -4.965   2.670   1.441  0.00  0.00    +0.213 C 
ATOM      3  O   UNL     1      -3.918   3.061   0.969  0.00  0.00    -0.276 OA
ATOM      4  H   UNL     1      -6.176   1.074   1.656  0.00  0.00    +0.173 HD
ENDROOT
BRANCH   1   8
ATOM      5  C   UNL     1      -3.055  -1.154  -0.009  0.00  0.00    +0.139 C 
ATOM      6  C   UNL     1      -3.757  -0.452   1.135  0.00  0.00    +0.268 C 
ATOM      7  O   UNL     1      -3.655  -0.697   2.318  0.00  0.00    -0.271 OA
ATOM      8  N   UNL     1      -4.520   0.502   0.565  0.00  0.00    -0.137 N 
ATOM      9  C   UNL     1      -4.398   0.500  -0.767  0.00  0.00    +0.327 C 
ATOM     10  O   UNL     1      -4.988   1.268  -1.501  0.00  0.00    -0.251 OA
ATOM     11  N   UNL     1      -3.549  -0.448  -1.204  0.00  0.00    -0.280 N 
ATOM     12  H   UNL     1      -3.309  -0.631  -2.126  0.00  0.00    +0.152 HD
BRANCH   5  13
ATOM     13  C   UNL     1      -3.438  -2.611  -0.057  0.00  0.00    -0.015 A 
ATOM     14  C   UNL     1      -2.667  -3.551   0.600  0.00  0.00    +0.006 A 
ATOM     15  C   UNL     1      -3.019  -4.887   0.556  0.00  0.00    +0.000 A 
ATOM     16  C   UNL     1      -4.142  -5.283  -0.145  0.00  0.00    +0.000 A 
ATOM     17  C   UNL     1      -4.914  -4.343  -0.802  0.00  0.00    +0.000 A 
ATOM     18  C   UNL     1      -4.565  -3.006  -0.754  0.00  0.00    +0.006 A 
ENDBRANCH   5  13
BRANCH   5  20
ATOM     19  C   UNL     1      -1.180   0.482   0.216  0.00  0.00    +0.007 C 
ATOM     20  C   UNL     1      -1.538  -1.002   0.116  0.00  0.00    +0.037 C 
ENDBRANCH   5  20
ENDBRANCH   1   8
BRANCH   2  21
ATOM     21  C   UNL     1      -5.846   3.621   2.209  0.00  0.00    +0.021 C 
BRANCH  21  22
ATOM     22  N   UNL     1      -5.221   4.950   2.243  0.00  0.00    +0.392 N 
ATOM     23  H   UNL     1      -4.273   4.867   2.579  0.00  0.00    -0.080 HD
BRANCH  22  24
ATOM     24  C   UNL     1      -5.213   5.523   0.890  0.00  0.00    -0.067 C 
ATOM     25  C   UNL     1      -3.864   5.624   0.174  0.00  0.00    -0.017 C 
ATOM     26  C   UNL     1      -4.546   6.887   0.705  0.00  0.00    -0.017 C 
ENDBRANCH  22  24
BRANCH  22  27
ATOM     27  C   UNL     1      -5.983   5.827   3.142  0.00  0.00    -0.038 C 
ATOM     28  C   UNL     1      -7.480   5.590   2.937  0.00  0.00    -0.008 C 
BRANCH  27  29
ATOM     29  C   UNL     1      -5.617   5.522   4.571  0.00  0.00    -0.043 A 
ATOM     30  C   UNL     1      -4.941   4.356   4.878  0.00  0.00    +0.003 A 
ATOM     31  C   UNL     1      -4.605   4.076   6.189  0.00  0.00    +0.000 A 
ATOM     32  C   UNL     1      -4.945   4.962   7.195  0.00  0.00    +0.001 A 
ATOM     33  C   UNL     1      -5.620   6.128   6.889  0.00  0.00    +0.020 A 
ATOM     34  C   UNL     1      -5.952   6.411   5.576  0.00  0.00    +0.043 A 
ATOM     35 CL   UNL     1      -6.795   7.879   5.191  0.00  0.00    -0.083 Cl
ENDBRANCH  27  29
ENDBRANCH  22  27
ENDBRANCH  21  22
ENDBRANCH   2  21
TORSDOF 8
