REMARK  Name = ZINC02884307
REMARK  1 active torsions:
REMARK  status: ('A' for Active; 'I' for Inactive)
REMARK    1  A    between atoms: C_11  and  C_13
REMARK                            x       y       z     vdW  Elec       q    Type
REMARK                         _______ _______ _______ _____ _____    ______ ____
ROOT
ATOM      1  C   UNL     1       7.599  -4.195   3.033  0.00  0.00    +0.000 A 
ATOM      2  C   UNL     1       6.429  -4.529   2.376  0.00  0.00    +0.000 A 
ATOM      3  C   UNL     1       5.917  -3.681   1.416  0.00  0.00    +0.005 A 
ATOM      4  C   UNL     1       6.567  -2.494   1.105  0.00  0.00    -0.027 A 
ATOM      5  C   UNL     1       7.727  -2.156   1.763  0.00  0.00    -0.041 A 
ATOM      6  C   UNL     1       8.243  -3.014   2.727  0.00  0.00    +0.004 A 
ATOM      7  C   UNL     1       8.478  -0.879   1.493  0.00  0.00    +0.054 C 
ATOM      8  C   UNL     1       8.093  -0.300   0.127  0.00  0.00    +0.113 C 
ATOM      9  N   UNL     1       6.624  -0.310   0.036  0.00  0.00    -0.292 N 
ATOM     10  C   UNL     1       5.958  -1.618   0.039  0.00  0.00    +0.143 C 
ATOM     11  C   UNL     1       5.919   0.835  -0.053  0.00  0.00    +0.267 C 
ATOM     12  O   UNL     1       6.498   1.902  -0.115  0.00  0.00    -0.268 OA
ENDROOT
BRANCH  11  13
ATOM     13  C   UNL     1       4.441   0.793  -0.074  0.00  0.00    +0.150 A 
ATOM     14  C   UNL     1       3.592   1.905  -0.031  0.00  0.00    +0.083 A 
ATOM     15  C   UNL     1       2.288   1.438  -0.072  0.00  0.00    +0.156 A 
ATOM     16  N   UNL     1       1.103   2.066  -0.058  0.00  0.00    -0.235 NA
ATOM     17  C   UNL     1      -0.018   1.388  -0.107  0.00  0.00    +0.130 A 
ATOM     18  C   UNL     1       0.005  -0.014  -0.176  0.00  0.00    +0.054 A 
ATOM     19  C   UNL     1       1.195  -0.661  -0.191  0.00  0.00    +0.131 A 
ATOM     20  N   UNL     1       2.350   0.069  -0.139  0.00  0.00    -0.220 N 
ATOM     21  N   UNL     1       3.700  -0.302  -0.139  0.00  0.00    -0.160 NA
ATOM     22 BR   UNL     1      -1.613  -0.992  -0.247  0.00  0.00    -0.047 Br
ENDBRANCH  11  13
TORSDOF 1
