REMARK  Name = ZINC55888351
REMARK  8 active torsions:
REMARK  status: ('A' for Active; 'I' for Inactive)
REMARK    1  A    between atoms: C_4  and  N_22
REMARK    2  A    between atoms: C_5  and  N_7
REMARK    3  A    between atoms: N_7  and  C_8
REMARK    4  A    between atoms: C_8  and  C_9
REMARK    5  A    between atoms: N_11  and  C_12
REMARK    6  A    between atoms: C_17  and  O_18
REMARK    7  A    between atoms: O_18  and  C_19
REMARK    8  A    between atoms: C_25  and  O_28
REMARK                            x       y       z     vdW  Elec       q    Type
REMARK                         _______ _______ _______ _____ _____    ______ ____
ROOT
ATOM      1  N   UNL     1       1.236  -2.039  -0.001  0.00  0.00    -0.334 N 
ATOM      2  H   UNL     1       2.079  -2.517   0.055  0.00  0.00    +0.147 HD
ENDROOT
BRANCH   1   7
ATOM      3  C   UNL     1       0.004   1.422   0.061  0.00  0.00    +0.002 A 
ATOM      4  C   UNL     1       1.196   2.124   0.054  0.00  0.00    +0.002 A 
ATOM      5  C   UNL     1       2.401   1.446   0.028  0.00  0.00    +0.023 A 
ATOM      6  C   UNL     1       2.418   0.065   0.009  0.00  0.00    +0.035 A 
ATOM      7  C   UNL     1       1.223  -0.643   0.017  0.00  0.00    +0.047 A 
ATOM      8  C   UNL     1       0.014   0.042   0.043  0.00  0.00    +0.025 A 
BRANCH   6   9
ATOM      9  N   UNL     1       3.636  -0.620  -0.017  0.00  0.00    -0.392 NA
ATOM     10  C   UNL     1       4.326  -0.339  -1.282  0.00  0.00    +0.087 C 
ATOM     11  C   UNL     1       5.622  -1.149  -1.352  0.00  0.00    +0.048 C 
ATOM     12  C   UNL     1       6.525  -0.758  -0.178  0.00  0.00    +0.117 C 
ATOM     13  C   UNL     1       5.769  -0.986   1.133  0.00  0.00    +0.048 C 
ATOM     14  C   UNL     1       4.467  -0.182   1.111  0.00  0.00    +0.087 C 
ATOM     15  H   UNL     1       3.466  -1.611   0.057  0.00  0.00    +0.126 HD
BRANCH  12  16
ATOM     16  O   UNL     1       7.705  -1.564  -0.195  0.00  0.00    -0.392 OA
ATOM     17  H   UNL     1       8.324  -1.370   0.522  0.00  0.00    +0.210 HD
ENDBRANCH  12  16
ENDBRANCH   6   9
ENDBRANCH   1   7
BRANCH   1  18
ATOM     18  C   UNL     1      -0.022  -2.783  -0.105  0.00  0.00    +0.198 C 
BRANCH  18  19
ATOM     19  C   UNL     1       0.267  -4.262  -0.104  0.00  0.00    +0.234 C 
ATOM     20  O   UNL     1       1.411  -4.656  -0.024  0.00  0.00    -0.274 OA
ATOM     21  N   UNL     1      -0.746  -5.146  -0.191  0.00  0.00    -0.281 N 
ATOM     22  H   UNL     1      -1.653  -4.833  -0.335  0.00  0.00    +0.155 HD
BRANCH  21  23
ATOM     23  C   UNL     1      -0.490  -6.519  -0.074  0.00  0.00    +0.076 A 
ATOM     24  C   UNL     1       0.629  -6.961   0.617  0.00  0.00    +0.027 A 
ATOM     25  C   UNL     1       0.879  -8.315   0.731  0.00  0.00    +0.002 A 
ATOM     26  C   UNL     1       0.017  -9.232   0.159  0.00  0.00    +0.004 A 
ATOM     27  C   UNL     1      -1.100  -8.799  -0.531  0.00  0.00    +0.048 A 
ATOM     28  C   UNL     1      -1.361  -7.443  -0.645  0.00  0.00    +0.148 A 
BRANCH  28  29
ATOM     29  O   UNL     1      -2.463  -7.016  -1.319  0.00  0.00    -0.432 OA
BRANCH  29  30
ATOM     30  C   UNL     1      -3.311  -8.021  -1.878  0.00  0.00    +0.541 C 
ATOM     31  F   UNL     1      -2.584  -8.787  -2.795  0.00  0.00    -0.166 F 
ATOM     32  F   UNL     1      -3.792  -8.847  -0.857  0.00  0.00    -0.166 F 
ENDBRANCH  29  30
ENDBRANCH  28  29
ENDBRANCH  21  23
ENDBRANCH  18  19
ENDBRANCH   1  18
TORSDOF 8
