REMARK  Name = ZINC01075720
REMARK  5 active torsions:
REMARK  status: ('A' for Active; 'I' for Inactive)
REMARK    1  A    between atoms: C_1  and  C_2
REMARK    2  A    between atoms: C_6  and  N_8
REMARK    3  A    between atoms: N_8  and  C_9
REMARK    4  A    between atoms: N_8  and  C_10
REMARK    5  A    between atoms: N_14  and  C_15
REMARK                            x       y       z     vdW  Elec       q    Type
REMARK                         _______ _______ _______ _____ _____    ______ ____
ROOT
ATOM      1  C   UNL     1       0.153   1.319  -0.316  0.00  0.00    +0.088 C 
ATOM      2  C   UNL     1       0.256  -0.182  -0.233  0.00  0.00    +0.130 A 
ATOM      3  N   UNL     1       0.533  -0.848  -1.328  0.00  0.00    -0.214 NA
ATOM      4  C   UNL     1       0.641  -2.191  -1.331  0.00  0.00    +0.158 A 
ATOM      5  C   UNL     1       0.439  -2.816  -0.092  0.00  0.00    +0.097 A 
ATOM      6  C   UNL     1       0.149  -2.087   1.043  0.00  0.00    +0.140 A 
ATOM      7  N   UNL     1       0.068  -0.758   0.939  0.00  0.00    -0.216 NA
ATOM      8  S   UNL     1       0.654  -4.536  -0.468  0.00  0.00    -0.056 S 
ATOM      9  C   UNL     1       0.995  -4.360  -2.212  0.00  0.00    +0.132 A 
ATOM     10  S   UNL     1       1.328  -5.578  -3.369  0.00  0.00    -0.024 S 
ATOM     11  N   UNL     1       0.924  -3.024  -2.388  0.00  0.00    -0.282 N 
ENDROOT
BRANCH  11  12
ATOM     12  C   UNL     1       1.139  -2.480  -3.660  0.00  0.00    +0.050 A 
ATOM     13  C   UNL     1       0.225  -2.711  -4.679  0.00  0.00    +0.026 A 
ATOM     14  C   UNL     1       0.440  -2.173  -5.933  0.00  0.00    +0.002 A 
ATOM     15  C   UNL     1       1.564  -1.405  -6.174  0.00  0.00    +0.000 A 
ATOM     16  C   UNL     1       2.477  -1.173  -5.161  0.00  0.00    +0.002 A 
ATOM     17  C   UNL     1       2.264  -1.704  -3.904  0.00  0.00    +0.026 A 
ENDBRANCH  11  12
BRANCH   6  18
ATOM     18  N   UNL     1      -0.050  -2.718   2.263  0.00  0.00    -0.320 N 
ATOM     19  C   UNL     1      -0.082  -4.181   2.333  0.00  0.00    +0.130 C 
ATOM     20  C   UNL     1      -0.227  -1.922   3.479  0.00  0.00    +0.130 C 
ENDBRANCH   6  18
TORSDOF 2
