REMARK  Name = ZINC56787409
REMARK  11 active torsions:
REMARK  status: ('A' for Active; 'I' for Inactive)
REMARK    1  A    between atoms: C_1  and  C_2
REMARK    2  A    between atoms: C_2  and  C_3
REMARK    3  A    between atoms: N_5  and  C_6
REMARK    4  A    between atoms: C_9  and  C_12
REMARK    5  A    between atoms: C_12  and  C_14
REMARK    6  A    between atoms: C_12  and  N_15
REMARK    7  A    between atoms: N_18  and  C_19
REMARK    8  A    between atoms: C_19  and  C_21
REMARK    9  A    between atoms: C_19  and  C_22
REMARK   10  A    between atoms: C_22  and  N_23
REMARK   11  A    between atoms: C_27  and  C_30
REMARK                            x       y       z     vdW  Elec       q    Type
REMARK                         _______ _______ _______ _____ _____    ______ ____
ROOT
ATOM      1  N   UNL     1       2.644  -4.687   6.772  0.00  0.00    -0.293 N 
ATOM      2  C   UNL     1       2.681  -4.974   8.088  0.00  0.00    +0.300 C 
ATOM      3  O   UNL     1       3.283  -4.244   8.853  0.00  0.00    -0.253 OA
ATOM      4  N   UNL     1       2.051  -6.068   8.558  0.00  0.00    -0.299 N 
ATOM      5  H   UNL     1       2.164  -5.269   6.162  0.00  0.00    +0.151 HD
ATOM      6  H   UNL     1       1.570  -6.650   7.948  0.00  0.00    +0.150 HD
ENDROOT
BRANCH   1   7
ATOM      7  C   UNL     1       3.330  -3.497   6.262  0.00  0.00    +0.102 C 
ATOM      8  C   UNL     1       4.800  -3.829   5.999  0.00  0.00    +0.033 C 
BRANCH   7  12
ATOM      9  C   UNL     1       1.480  -2.240   2.620  0.00  0.00    +0.033 A 
ATOM     10  C   UNL     1       1.895  -1.297   3.551  0.00  0.00    +0.023 A 
ATOM     11  C   UNL     1       2.493  -1.706   4.727  0.00  0.00    +0.007 A 
ATOM     12  C   UNL     1       2.677  -3.054   4.978  0.00  0.00    -0.027 A 
ATOM     13  C   UNL     1       2.265  -3.995   4.052  0.00  0.00    +0.007 A 
ATOM     14  C   UNL     1       1.661  -3.592   2.877  0.00  0.00    +0.023 A 
BRANCH   9  17
ATOM     15  C   UNL     1      -0.114  -2.566   0.884  0.00  0.00    +0.217 C 
ATOM     16  O   UNL     1      -0.421  -3.628   1.381  0.00  0.00    -0.275 OA
ATOM     17  N   UNL     1       0.874  -1.828   1.428  0.00  0.00    -0.286 N 
ATOM     18  H   UNL     1       1.165  -1.011   0.993  0.00  0.00    +0.155 HD
BRANCH  15  20
ATOM     19  C   UNL     1      -1.903  -3.088  -0.752  0.00  0.00    +0.013 C 
ATOM     20  C   UNL     1      -0.837  -2.070  -0.342  0.00  0.00    +0.093 C 
ENDBRANCH  15  20
ENDBRANCH   9  17
ENDBRANCH   7  12
ENDBRANCH   1   7
BRANCH   4  21
ATOM     21  C   UNL     1       2.091  -6.380   9.989  0.00  0.00    +0.055 C 
ATOM     22  C   UNL     1       3.368  -7.160  10.306  0.00  0.00    +0.026 C 
BRANCH  21  23
ATOM     23  C   UNL     1       0.871  -7.225  10.361  0.00  0.00    -0.057 C 
BRANCH  23  24
ATOM     24  N   UNL     1      -0.353  -6.528   9.948  0.00  0.00    +0.381 N 
ATOM     25  C   UNL     1      -0.486  -5.282  10.712  0.00  0.00    -0.079 C 
ATOM     26  C   UNL     1      -1.717  -4.511  10.228  0.00  0.00    -0.018 C 
ATOM     27  C   UNL     1      -2.966  -5.374  10.434  0.00  0.00    -0.001 C 
ATOM     28  C   UNL     1      -2.784  -6.702   9.693  0.00  0.00    -0.031 C 
ATOM     29  C   UNL     1      -1.514  -7.391  10.196  0.00  0.00    -0.076 C 
ATOM     30  C   UNL     1      -3.993  -7.602   9.954  0.00  0.00    +0.005 C 
ATOM     31  H   UNL     1      -0.300  -6.312   8.963  0.00  0.00    -0.082 HD
ENDBRANCH  23  24
ENDBRANCH  21  23
ENDBRANCH   4  21
TORSDOF 7
