REMARK  Name = ZINC32851022
REMARK  7 active torsions:
REMARK  status: ('A' for Active; 'I' for Inactive)
REMARK    1  A    between atoms: C_8  and  C_25
REMARK    2  A    between atoms: N_10  and  C_12
REMARK    3  A    between atoms: C_12  and  C_13
REMARK    4  A    between atoms: C_13  and  O_14
REMARK    5  A    between atoms: O_14  and  C_15
REMARK    6  A    between atoms: C_18  and  S_21
REMARK    7  A    between atoms: S_21  and  N_24
REMARK                            x       y       z     vdW  Elec       q    Type
REMARK                         _______ _______ _______ _____ _____    ______ ____
ROOT
ATOM      1  C   UNL     1       0.362   1.548  -0.992  0.00  0.00    +0.000 A 
ATOM      2  C   UNL     1       1.492   2.198  -0.534  0.00  0.00    +0.000 A 
ATOM      3  C   UNL     1       1.392   3.481  -0.034  0.00  0.00    +0.002 A 
ATOM      4  C   UNL     1       0.162   4.122   0.011  0.00  0.00    -0.061 A 
ATOM      5  C   UNL     1      -0.964   3.474  -0.448  0.00  0.00    -0.047 A 
ATOM      6  C   UNL     1      -0.861   2.186  -0.954  0.00  0.00    +0.004 A 
ATOM      7  C   UNL     1      -2.320   4.131  -0.426  0.00  0.00    +0.029 C 
ATOM      8  C   UNL     1      -2.300   5.336   0.515  0.00  0.00    +0.024 C 
ATOM      9  N   UNL     1      -1.145   6.179   0.171  0.00  0.00    +0.392 N 
ATOM     10  C   UNL     1       0.102   5.519   0.570  0.00  0.00    -0.042 C 
ATOM     11  H   UNL     1      -1.126   6.320  -0.920  0.00  0.00    -0.080 HD
ENDROOT
BRANCH   8  12
ATOM     12  C   UNL     1      -3.572   6.129   0.355  0.00  0.00    +0.197 C 
ATOM     13  O   UNL     1      -3.639   7.004  -0.482  0.00  0.00    -0.278 OA
ATOM     14  N   UNL     1      -4.633   5.866   1.143  0.00  0.00    -0.331 N 
ATOM     15  H   UNL     1      -5.561   6.445   1.026  0.00  0.00    +0.145 HD
ATOM     16  H   UNL     1      -4.572   5.073   1.902  0.00  0.00    +0.145 HD
ENDBRANCH   8  12
BRANCH   9  17
ATOM     17  C   UNL     1      -1.259   7.507   0.788  0.00  0.00    -0.036 C 
BRANCH  17  18
ATOM     18  C   UNL     1      -1.632   7.352   2.264  0.00  0.00    +0.210 C 
BRANCH  18  19
ATOM     19  O   UNL     1      -0.544   6.752   2.970  0.00  0.00    -0.494 OA
BRANCH  19  20
ATOM     20  C   UNL     1      -0.713   6.543   4.302  0.00  0.00    +0.121 A 
ATOM     21  C   UNL     1      -1.899   6.913   4.918  0.00  0.00    +0.047 A 
ATOM     22  C   UNL     1      -2.071   6.694   6.272  0.00  0.00    +0.032 A 
ATOM     23  C   UNL     1      -1.057   6.117   7.014  0.00  0.00    +0.105 A 
ATOM     24  C   UNL     1       0.128   5.753   6.403  0.00  0.00    +0.032 A 
ATOM     25  C   UNL     1       0.303   5.964   5.049  0.00  0.00    +0.047 A 
BRANCH  23  26
ATOM     26  S   UNL     1      -1.276   5.846   8.741  0.00  0.00    +0.056 S 
ATOM     27  O   UNL     1      -2.678   5.774   8.966  0.00  0.00    -0.153 OA
ATOM     28  O   UNL     1      -0.391   4.795   9.103  0.00  0.00    -0.153 OA
BRANCH  26  29
ATOM     29  N   UNL     1      -0.741   7.205   9.522  0.00  0.00    -0.204 NA
ATOM     30  H   UNL     1      -0.862   7.075  10.607  0.00  0.00    +0.144 HD
ATOM     31  H   UNL     1      -1.328   8.074   9.189  0.00  0.00    +0.144 HD
ENDBRANCH  26  29
ENDBRANCH  23  26
ENDBRANCH  19  20
ENDBRANCH  18  19
ENDBRANCH  17  18
ENDBRANCH   9  17
TORSDOF 7
