REMARK  Name = ZINC45144551
REMARK  9 active torsions:
REMARK  status: ('A' for Active; 'I' for Inactive)
REMARK    1  A    between atoms: C_1  and  C_2
REMARK    2  A    between atoms: C_2  and  C_4
REMARK    3  A    between atoms: C_2  and  N_8
REMARK    4  A    between atoms: N_5  and  O_6
REMARK    5  A    between atoms: N_8  and  C_9
REMARK    6  A    between atoms: N_8  and  C_10
REMARK    7  A    between atoms: C_10  and  C_11
REMARK    8  A    between atoms: C_14  and  O_18
REMARK    9  A    between atoms: O_18  and  C_19
REMARK                            x       y       z     vdW  Elec       q    Type
REMARK                         _______ _______ _______ _____ _____    ______ ____
ROOT
ATOM      1  N   UNL     1      -1.376  -0.512   0.012  0.00  0.00    +0.387 N 
ATOM      2  C   UNL     1      -2.064  -0.039   1.221  0.00  0.00    -0.095 C 
ATOM      3  H   UNL     1      -1.864  -0.178  -0.805  0.00  0.00    -0.081 HD
ENDROOT
BRANCH   1   5
ATOM      4  C   UNL     1      -0.019   1.526   0.010  0.00  0.00    -0.005 C 
ATOM      5  C   UNL     1       0.002  -0.004   0.002  0.00  0.00    -0.004 C 
BRANCH   5   6
ATOM      6  C   UNL     1       0.707  -0.490  -1.238  0.00  0.00    +0.118 C 
ATOM      7  N   UNL     1       1.995  -0.596  -1.249  0.00  0.00    -0.079 NA
ATOM      8  N   UNL     1      -0.021  -0.821  -2.359  0.00  0.00    -0.345 N 
ATOM      9  H   UNL     1      -0.987  -0.742  -2.351  0.00  0.00    +0.143 HD
ATOM     10  H   UNL     1       0.434  -1.134  -3.157  0.00  0.00    +0.143 HD
BRANCH   7  11
ATOM     11  O   UNL     1       2.658  -1.053  -2.414  0.00  0.00    -0.408 OA
ATOM     12  H   UNL     1       3.620  -1.099  -2.327  0.00  0.00    +0.328 HD
ENDBRANCH   7  11
ENDBRANCH   5   6
ENDBRANCH   1   5
BRANCH   1  13
ATOM     13  C   UNL     1      -1.356  -1.981   0.004  0.00  0.00    -0.042 C 
BRANCH  13  14
ATOM     14  C   UNL     1      -2.766  -2.502  -0.109  0.00  0.00    -0.063 A 
ATOM     15  C   UNL     1      -3.506  -2.743   1.034  0.00  0.00    +0.005 A 
ATOM     16  C   UNL     1      -4.798  -3.221   0.933  0.00  0.00    +0.047 A 
ATOM     17  C   UNL     1      -5.354  -3.459  -0.316  0.00  0.00    +0.134 A 
ATOM     18  C   UNL     1      -4.609  -3.216  -1.461  0.00  0.00    +0.060 A 
ATOM     19  C   UNL     1      -3.318  -2.733  -1.355  0.00  0.00    +0.020 A 
ATOM     20 BR   UNL     1      -5.361  -3.539  -3.166  0.00  0.00    -0.047 Br
BRANCH  17  21
ATOM     21  O   UNL     1      -6.625  -3.930  -0.417  0.00  0.00    -0.494 OA
ATOM     22  C   UNL     1      -7.332  -4.157   0.804  0.00  0.00    +0.277 C 
ENDBRANCH  17  21
ENDBRANCH  13  14
ENDBRANCH   1  13
TORSDOF 6
