REMARK  Name = ZINC01421912
REMARK  6 active torsions:
REMARK  status: ('A' for Active; 'I' for Inactive)
REMARK    1  A    between atoms: C_3  and  C_6
REMARK    2  A    between atoms: C_8  and  C_32
REMARK    3  A    between atoms: C_13  and  C_15
REMARK    4  A    between atoms: C_15  and  O_17
REMARK    5  A    between atoms: O_17  and  C_18
REMARK    6  A    between atoms: C_18  and  C_19
REMARK                            x       y       z     vdW  Elec       q    Type
REMARK                         _______ _______ _______ _____ _____    ______ ____
ROOT
ATOM      1  C   UNL     1       3.569   0.619  -0.029  0.00  0.00    +0.110 A 
ATOM      2  C   UNL     1       4.247  -0.625  -0.048  0.00  0.00    +0.064 A 
ATOM      3  C   UNL     1       5.597  -0.642  -0.061  0.00  0.00    +0.150 A 
ATOM      4  N   UNL     1       6.283   0.544  -0.056  0.00  0.00    -0.208 N 
ATOM      5  C   UNL     1       5.597   1.733  -0.038  0.00  0.00    +0.172 A 
ATOM      6  N   UNL     1       4.258   1.748  -0.030  0.00  0.00    -0.224 NA
ATOM      7  C   UNL     1       6.541   2.750  -0.037  0.00  0.00    +0.096 A 
ATOM      8  C   UNL     1       7.806   2.152  -0.055  0.00  0.00    +0.186 A 
ATOM      9  N   UNL     1       7.652   0.837  -0.067  0.00  0.00    -0.157 NA
ATOM     10 BR   UNL     1       6.183   4.607  -0.015  0.00  0.00    -0.044 Br
ENDROOT
BRANCH   1  13
ATOM     11  C   UNL     1      -0.016   1.345   0.009  0.00  0.00    +0.042 A 
ATOM     12  C   UNL     1       1.323   1.776  -0.001  0.00  0.00    +0.051 A 
ATOM     13  C   UNL     1       2.096   0.654  -0.014  0.00  0.00    +0.153 A 
ATOM     14  O   UNL     1       1.279  -0.417  -0.012  0.00  0.00    -0.461 OA
ATOM     15  C   UNL     1       0.002  -0.004   0.002  0.00  0.00    +0.196 A 
ENDBRANCH   1  13
BRANCH   3  16
ATOM     16  C   UNL     1       6.341  -1.952  -0.081  0.00  0.00    +0.434 C 
ATOM     17  F   UNL     1       5.425  -3.010  -0.082  0.00  0.00    -0.164 F 
ATOM     18  F   UNL     1       7.134  -2.021  -1.232  0.00  0.00    -0.164 F 
ATOM     19  F   UNL     1       7.156  -2.043   1.052  0.00  0.00    -0.164 F 
ENDBRANCH   3  16
BRANCH   8  20
ATOM     20  C   UNL     1       9.098   2.868  -0.061  0.00  0.00    +0.361 C 
ATOM     21  O   UNL     1       9.119   4.083  -0.050  0.00  0.00    -0.243 OA
BRANCH  20  22
ATOM     22  O   UNL     1      10.253   2.174  -0.079  0.00  0.00    -0.460 OA
BRANCH  22  23
ATOM     23  C   UNL     1      11.465   2.932  -0.084  0.00  0.00    +0.234 C 
BRANCH  23  24
ATOM     24  C   UNL     1      12.662   1.979  -0.105  0.00  0.00    +0.013 C 
ATOM     25  C   UNL     1      12.691   1.170   1.193  0.00  0.00    +0.003 C 
ATOM     26  C   UNL     1      13.930   0.269   1.182  0.00  0.00    -0.018 C 
ATOM     27  C   UNL     1      15.174   1.142   1.026  0.00  0.00    -0.078 C 
ATOM     28  N   UNL     1      15.113   1.889  -0.239  0.00  0.00    +0.382 N 
ATOM     29  C   UNL     1      13.955   2.789  -0.239  0.00  0.00    -0.062 C 
ATOM     30  C   UNL     1      13.896   3.567  -1.558  0.00  0.00    -0.015 C 
ATOM     31  C   UNL     1      15.182   4.375  -1.740  0.00  0.00    -0.003 C 
ATOM     32  C   UNL     1      16.375   3.413  -1.698  0.00  0.00    -0.019 C 
ATOM     33  C   UNL     1      16.357   2.663  -0.370  0.00  0.00    -0.078 C 
ATOM     34  H   UNL     1      15.038   1.242  -1.009  0.00  0.00    -0.081 HD
ENDBRANCH  23  24
ENDBRANCH  22  23
ENDBRANCH  20  22
ENDBRANCH   8  20
TORSDOF 6
