REMARK  Name = ZINC65470146
REMARK  8 active torsions:
REMARK  status: ('A' for Active; 'I' for Inactive)
REMARK    1  A    between atoms: C_1  and  C_2
REMARK    2  A    between atoms: C_4  and  C_10
REMARK    3  A    between atoms: C_6  and  C_9
REMARK    4  A    between atoms: C_7  and  O_8
REMARK    5  A    between atoms: N_15  and  C_29
REMARK    6  A    between atoms: C_19  and  C_21
REMARK    7  A    between atoms: C_19  and  C_23
REMARK    8  A    between atoms: C_21  and  O_22
REMARK                            x       y       z     vdW  Elec       q    Type
REMARK                         _______ _______ _______ _____ _____    ______ ____
ROOT
ATOM      1  C   UNL     1       0.748  -2.866  -2.353  0.00  0.00    +0.086 C 
ATOM      2  C   UNL     1      -0.755  -2.989  -2.626  0.00  0.00    -0.003 C 
ATOM      3  C   UNL     1      -1.551  -2.652  -1.356  0.00  0.00    -0.074 C 
ATOM      4  N   UNL     1      -2.319  -3.862  -0.993  0.00  0.00    +0.378 N 
ATOM      5  C   UNL     1      -1.541  -5.008  -1.526  0.00  0.00    -0.073 C 
ATOM      6  C   UNL     1      -1.011  -4.492  -2.909  0.00  0.00    +0.002 C 
ATOM      7  C   UNL     1       0.393  -5.080  -3.147  0.00  0.00    +0.070 C 
ATOM      8  N   UNL     1       1.324  -4.221  -2.391  0.00  0.00    -0.298 NA
ATOM      9  C   UNL     1      -2.440  -3.967   0.467  0.00  0.00    -0.096 C 
ATOM     10  H   UNL     1       2.238  -4.214  -2.818  0.00  0.00    +0.123 HD
ATOM     11  H   UNL     1      -3.234  -3.835  -1.418  0.00  0.00    -0.082 HD
ENDROOT
BRANCH   1  15
ATOM     12  C   UNL     1       1.354  -3.392   2.586  0.00  0.00    +0.047 C 
ATOM     13  C   UNL     1       1.262  -2.508   1.370  0.00  0.00    -0.008 A 
ATOM     14  C   UNL     1       1.057  -3.066   0.123  0.00  0.00    +0.012 A 
ATOM     15  C   UNL     1       0.972  -2.255  -0.994  0.00  0.00    -0.030 A 
ATOM     16  C   UNL     1       1.093  -0.883  -0.866  0.00  0.00    +0.012 A 
ATOM     17  C   UNL     1       1.299  -0.320   0.379  0.00  0.00    -0.008 A 
ATOM     18  C   UNL     1       1.378  -1.131   1.502  0.00  0.00    +0.123 A 
ATOM     19  C   UNL     1       1.431   1.175   0.518  0.00  0.00    +0.047 C 
BRANCH  18  20
ATOM     20  O   UNL     1       1.575  -0.580   2.728  0.00  0.00    -0.506 OA
ATOM     21  H   UNL     1       2.505  -0.483   2.971  0.00  0.00    +0.292 HD
ENDBRANCH  18  20
ENDBRANCH   1  15
BRANCH   7  22
ATOM     22  C   UNL     1       0.729  -5.043  -4.616  0.00  0.00    -0.025 A 
ATOM     23  C   UNL     1       1.648  -4.126  -5.092  0.00  0.00    +0.005 A 
ATOM     24  C   UNL     1       1.956  -4.092  -6.439  0.00  0.00    +0.000 A 
ATOM     25  C   UNL     1       1.346  -4.975  -7.310  0.00  0.00    +0.000 A 
ATOM     26  C   UNL     1       0.428  -5.892  -6.834  0.00  0.00    +0.000 A 
ATOM     27  C   UNL     1       0.123  -5.929  -5.487  0.00  0.00    +0.005 A 
ENDBRANCH   7  22
BRANCH   7  28
ATOM     28  C   UNL     1       0.458  -6.518  -2.627  0.00  0.00    +0.183 C 
BRANCH  28  29
ATOM     29  O   UNL     1       1.795  -7.008  -2.749  0.00  0.00    -0.393 OA
ATOM     30  H   UNL     1       1.911  -7.916  -2.437  0.00  0.00    +0.209 HD
ENDBRANCH  28  29
ENDBRANCH   7  28
TORSDOF 5
