REMARK  Name = ZINC22938289
REMARK  8 active torsions:
REMARK  status: ('A' for Active; 'I' for Inactive)
REMARK    1  A    between atoms: C_4  and  C_7
REMARK    2  A    between atoms: N_9  and  C_10
REMARK    3  A    between atoms: C_18  and  C_19
REMARK    4  A    between atoms: C_19  and  C_21
REMARK    5  A    between atoms: C_19  and  N_28
REMARK    6  A    between atoms: N_31  and  C_34
REMARK    7  A    between atoms: C_34  and  C_35
REMARK    8  A    between atoms: C_35  and  O_36
REMARK                            x       y       z     vdW  Elec       q    Type
REMARK                         _______ _______ _______ _____ _____    ______ ____
ROOT
ATOM      1  C   UNL     1       4.913  -2.760  -0.153  0.00  0.00    +0.082 A 
ATOM      2  C   UNL     1       6.247  -2.228  -0.470  0.00  0.00    +0.042 A 
ATOM      3  C   UNL     1       6.748  -0.957  -0.746  0.00  0.00    +0.013 A 
ATOM      4  C   UNL     1       8.080  -0.795  -1.009  0.00  0.00    +0.001 A 
ATOM      5  C   UNL     1       8.935  -1.888  -1.001  0.00  0.00    +0.004 A 
ATOM      6  C   UNL     1       8.458  -3.152  -0.730  0.00  0.00    +0.047 A 
ATOM      7  C   UNL     1       7.107  -3.338  -0.460  0.00  0.00    +0.137 A 
ATOM      8  O   UNL     1       6.362  -4.423  -0.167  0.00  0.00    -0.459 OA
ATOM      9  C   UNL     1       5.072  -4.085   0.020  0.00  0.00    +0.118 A 
ENDROOT
BRANCH   1  12
ATOM     10  C   UNL     1       2.995  -1.756  -1.150  0.00  0.00    +0.248 C 
ATOM     11  O   UNL     1       3.424  -2.056  -2.248  0.00  0.00    -0.270 OA
ATOM     12  N   UNL     1       3.717  -2.032  -0.046  0.00  0.00    -0.278 N 
ATOM     13  H   UNL     1       3.410  -1.728   0.823  0.00  0.00    +0.155 HD
BRANCH  10  17
ATOM     14  C   UNL     1      -0.777   0.165  -0.796  0.00  0.00    +0.000 A 
ATOM     15  C   UNL     1      -0.291  -0.175  -2.047  0.00  0.00    +0.001 A 
ATOM     16  C   UNL     1       0.933  -0.799  -2.169  0.00  0.00    +0.013 A 
ATOM     17  C   UNL     1       1.683  -1.087  -1.027  0.00  0.00    +0.037 A 
ATOM     18  C   UNL     1       1.188  -0.741   0.231  0.00  0.00    +0.013 A 
ATOM     19  C   UNL     1      -0.038  -0.118   0.339  0.00  0.00    +0.001 A 
ENDBRANCH  10  17
ENDBRANCH   1  12
BRANCH   9  20
ATOM     20  C   UNL     1       3.968  -5.049   0.368  0.00  0.00    +0.032 C 
BRANCH  20  21
ATOM     21  C   UNL     1       3.597  -5.851  -0.853  0.00  0.00    -0.054 A 
ATOM     22  C   UNL     1       4.370  -6.934  -1.229  0.00  0.00    +0.004 A 
ATOM     23  C   UNL     1       4.031  -7.670  -2.349  0.00  0.00    +0.020 A 
ATOM     24  C   UNL     1       2.918  -7.322  -3.093  0.00  0.00    +0.041 A 
ATOM     25  C   UNL     1       2.145  -6.239  -2.716  0.00  0.00    +0.020 A 
ATOM     26  C   UNL     1       2.482  -5.507  -1.593  0.00  0.00    +0.004 A 
ATOM     27 CL   UNL     1       2.492  -8.246  -4.500  0.00  0.00    -0.084 Cl
ENDBRANCH  20  21
BRANCH  20  28
ATOM     28  N   UNL     1       4.426  -5.956   1.429  0.00  0.00    +0.391 N 
ATOM     29  C   UNL     1       3.350  -6.897   1.767  0.00  0.00    -0.062 C 
ATOM     30  C   UNL     1       3.834  -7.854   2.859  0.00  0.00    +0.066 C 
ATOM     31  N   UNL     1       4.223  -7.081   4.047  0.00  0.00    -0.304 NA
ATOM     32  C   UNL     1       5.283  -6.117   3.718  0.00  0.00    +0.066 C 
ATOM     33  C   UNL     1       4.787  -5.174   2.619  0.00  0.00    -0.062 C 
ATOM     34  H   UNL     1       5.233  -6.470   1.107  0.00  0.00    -0.080 HD
BRANCH  31  35
ATOM     35  C   UNL     1       4.641  -7.969   5.140  0.00  0.00    +0.112 C 
BRANCH  35  36
ATOM     36  C   UNL     1       4.798  -7.156   6.426  0.00  0.00    +0.171 C 
BRANCH  36  37
ATOM     37  O   UNL     1       3.525  -6.641   6.823  0.00  0.00    -0.394 OA
ATOM     38  H   UNL     1       3.549  -6.114   7.633  0.00  0.00    +0.209 HD
ENDBRANCH  36  37
ENDBRANCH  35  36
ENDBRANCH  31  35
ENDBRANCH  20  28
ENDBRANCH   9  20
TORSDOF 8
