REMARK  Name = ZINC39628671
REMARK  10 active torsions:
REMARK  status: ('A' for Active; 'I' for Inactive)
REMARK    1  A    between atoms: C_1  and  C_2
REMARK    2  A    between atoms: N_8  and  C_9
REMARK    3  A    between atoms: C_9  and  C_10
REMARK    4  A    between atoms: C_10  and  C_11
REMARK    5  A    between atoms: C_11  and  N_12
REMARK    6  A    between atoms: C_13  and  C_15
REMARK    7  A    between atoms: C_26  and  C_28
REMARK    8  A    between atoms: C_28  and  C_29
REMARK    9  A    between atoms: C_29  and  O_30
REMARK   10  A    between atoms: O_30  and  C_31
REMARK                            x       y       z     vdW  Elec       q    Type
REMARK                         _______ _______ _______ _____ _____    ______ ____
ROOT
ATOM      1  C   UNL     1       1.377  -0.187   8.511  0.00  0.00    +0.100 C 
ATOM      2  C   UNL     1       1.286  -1.713   8.739  0.00  0.00    +0.121 C 
ATOM      3  N   UNL     1       1.229  -1.868  10.212  0.00  0.00    -0.300 N 
ATOM      4  C   UNL     1       0.364  -0.754  10.667  0.00  0.00    +0.115 C 
ATOM      5  C   UNL     1       0.769   0.439   9.777  0.00  0.00    -0.004 C 
ATOM      6  C   UNL     1      -0.458   1.271   9.419  0.00  0.00    -0.010 C 
ATOM      7  C   UNL     1      -1.010   1.930  10.687  0.00  0.00    -0.082 C 
ATOM      8  N   UNL     1       0.024   2.780  11.288  0.00  0.00    +0.379 N 
ATOM      9  C   UNL     1       1.163   1.958  11.714  0.00  0.00    -0.082 C 
ATOM     10  C   UNL     1       1.807   1.300  10.490  0.00  0.00    -0.010 C 
ATOM     11  C   UNL     1       1.829  -2.809  10.967  0.00  0.00    +0.218 C 
ATOM     12  O   UNL     1       1.685  -2.803  12.171  0.00  0.00    -0.276 OA
ATOM     13  H   UNL     1       0.336   3.459  10.609  0.00  0.00    -0.086 HD
ATOM     14  H   UNL     1      -0.360   3.261  12.088  0.00  0.00    -0.086 HD
ENDROOT
BRANCH   1  16
ATOM     15  N   UNL     1       0.938   1.292   6.577  0.00  0.00    -0.315 N 
ATOM     16  C   UNL     1       0.579   0.209   7.295  0.00  0.00    +0.218 C 
ATOM     17  O   UNL     1      -0.386  -0.446   6.963  0.00  0.00    -0.275 OA
ATOM     18  H   UNL     1       1.710   1.816   6.843  0.00  0.00    +0.149 HD
BRANCH  15  19
ATOM     19  C   UNL     1       0.162   1.677   5.396  0.00  0.00    +0.102 C 
BRANCH  19  20
ATOM     20  C   UNL     1       0.777   2.931   4.769  0.00  0.00    +0.000 C 
BRANCH  20  21
ATOM     21  C   UNL     1      -0.033   3.333   3.535  0.00  0.00    -0.077 C 
BRANCH  21  28
ATOM     22  C   UNL     1      -1.710   5.237   2.331  0.00  0.00    -0.013 C 
ATOM     23  C   UNL     1      -0.288   4.991   1.822  0.00  0.00    -0.072 C 
ATOM     24  C   UNL     1       0.278   6.290   1.244  0.00  0.00    -0.016 C 
ATOM     25  C   UNL     1       1.701   6.038   0.736  0.00  0.00    -0.003 C 
ATOM     26  C   UNL     1       2.554   5.493   1.885  0.00  0.00    -0.019 C 
ATOM     27  C   UNL     1       1.903   4.224   2.439  0.00  0.00    -0.078 C 
ATOM     28  N   UNL     1       0.557   4.537   2.933  0.00  0.00    +0.381 N 
ATOM     29  H   UNL     1       0.615   5.264   3.629  0.00  0.00    -0.081 HD
ENDBRANCH  21  28
ENDBRANCH  20  21
ENDBRANCH  19  20
ENDBRANCH  15  19
ENDBRANCH   1  16
BRANCH  11  30
ATOM     30  C   UNL     1       2.680  -3.869  10.315  0.00  0.00    +0.124 C 
BRANCH  30  31
ATOM     31  C   UNL     1       3.239  -4.805  11.388  0.00  0.00    +0.168 C 
BRANCH  31  32
ATOM     32  O   UNL     1       4.045  -5.811  10.770  0.00  0.00    -0.382 OA
ATOM     33  C   UNL     1       4.619  -6.742  11.690  0.00  0.00    +0.194 C 
ENDBRANCH  31  32
ENDBRANCH  30  31
ENDBRANCH  11  30
TORSDOF 8
