REMARK  Name = ZINC00530619
REMARK  7 active torsions:
REMARK  status: ('A' for Active; 'I' for Inactive)
REMARK    1  A    between atoms: C_1  and  C_2
REMARK    2  A    between atoms: C_2  and  N_15
REMARK    3  A    between atoms: N_8  and  C_11
REMARK    4  A    between atoms: C_11  and  C_12
REMARK    5  A    between atoms: N_15  and  C_16
REMARK    6  A    between atoms: C_16  and  C_17
REMARK    7  A    between atoms: C_17  and  N_18
REMARK                            x       y       z     vdW  Elec       q    Type
REMARK                         _______ _______ _______ _____ _____    ______ ____
ROOT
ATOM      1  C   UNL     1      -0.007   1.502  -0.063  0.00  0.00    +0.061 C 
ATOM      2  C   UNL     1       0.002  -0.004   0.002  0.00  0.00    +0.018 C 
ATOM      3  C   UNL     1       0.143  -0.643   1.220  0.00  0.00    +0.116 C 
ATOM      4  C   UNL     1       0.130   0.108   2.488  0.00  0.00    +0.258 C 
ATOM      5  N   UNL     1       0.273  -0.582   3.639  0.00  0.00    -0.235 N 
ATOM      6  C   UNL     1       0.423  -1.914   3.643  0.00  0.00    +0.316 C 
ATOM      7  O   UNL     1       0.546  -2.475   4.714  0.00  0.00    -0.252 OA
ATOM      8  N   UNL     1       0.444  -2.659   2.529  0.00  0.00    -0.218 N 
ATOM      9  C   UNL     1       0.307  -2.105   1.307  0.00  0.00    +0.261 C 
ATOM     10  O   UNL     1       0.323  -2.793   0.304  0.00  0.00    -0.269 OA
ATOM     11  O   UNL     1      -0.005   1.317   2.497  0.00  0.00    -0.270 OA
ATOM     12  H   UNL     1       0.266  -0.103   4.482  0.00  0.00    +0.159 HD
ENDROOT
BRANCH   2  13
ATOM     13  N   UNL     1      -0.127  -0.728  -1.128  0.00  0.00    -0.345 N 
ATOM     14  H   UNL     1      -0.206  -1.694  -1.079  0.00  0.00    +0.146 HD
BRANCH  13  15
ATOM     15  C   UNL     1      -0.149  -0.056  -2.430  0.00  0.00    +0.116 C 
BRANCH  15  16
ATOM     16  C   UNL     1      -0.304  -1.099  -3.539  0.00  0.00    +0.103 C 
BRANCH  16  17
ATOM     17  N   UNL     1      -0.326  -0.426  -4.844  0.00  0.00    -0.304 NA
ATOM     18  C   UNL     1      -1.527   0.409  -4.986  0.00  0.00    +0.065 C 
ATOM     19  C   UNL     1      -1.482   1.138  -6.331  0.00  0.00    -0.067 C 
ATOM     20  N   UNL     1      -1.417   0.154  -7.419  0.00  0.00    +0.381 N 
ATOM     21  C   UNL     1      -0.200  -0.656  -7.278  0.00  0.00    -0.067 C 
ATOM     22  C   UNL     1      -0.234  -1.400  -5.941  0.00  0.00    +0.065 C 
ATOM     23  H   UNL     1      -2.227  -0.447  -7.378  0.00  0.00    -0.086 HD
ATOM     24  H   UNL     1      -1.400   0.634  -8.306  0.00  0.00    -0.086 HD
ENDBRANCH  16  17
ENDBRANCH  15  16
ENDBRANCH  13  15
ENDBRANCH   2  13
BRANCH   8  25
ATOM     25  C   UNL     1       0.614  -4.110   2.642  0.00  0.00    +0.145 C 
BRANCH  25  26
ATOM     26  C   UNL     1      -0.737  -4.766   2.761  0.00  0.00    -0.015 C 
ATOM     27  C   UNL     1      -1.081  -5.712   1.922  0.00  0.00    +0.005 C 
ENDBRANCH  25  26
ENDBRANCH   8  25
TORSDOF 6
