REMARK  Name = ZINC19959080
REMARK  7 active torsions:
REMARK  status: ('A' for Active; 'I' for Inactive)
REMARK    1  A    between atoms: C_1  and  C_2
REMARK    2  A    between atoms: C_5  and  S_8
REMARK    3  A    between atoms: S_8  and  N_11
REMARK    4  A    between atoms: N_15  and  C_18
REMARK    5  A    between atoms: C_18  and  C_19
REMARK    6  A    between atoms: C_18  and  C_20
REMARK    7  A    between atoms: C_18  and  C_21
REMARK                            x       y       z     vdW  Elec       q    Type
REMARK                         _______ _______ _______ _____ _____    ______ ____
ROOT
ATOM      1  N   UNL     1      -5.745  -0.662   0.532  0.00  0.00    -0.097 NA
ATOM      2  C   UNL     1      -4.478  -0.142   0.651  0.00  0.00    +0.202 C 
ATOM      3  N   UNL     1      -4.193   0.983   0.075  0.00  0.00    -0.303 N 
ATOM      4  C   UNL     1      -2.870   1.595   0.138  0.00  0.00    +0.193 C 
ATOM      5  N   UNL     1      -2.107   1.071   1.277  0.00  0.00    -0.266 NA
ATOM      6  C   UNL     1      -2.126  -0.404   1.270  0.00  0.00    +0.193 C 
ATOM      7  N   UNL     1      -3.531  -0.827   1.382  0.00  0.00    -0.303 N 
ATOM      8  H   UNL     1      -3.802  -1.669   2.036  0.00  0.00    +0.150 HD
ATOM      9  H   UNL     1      -5.003   1.479  -0.480  0.00  0.00    +0.150 HD
ENDROOT
BRANCH   5  10
ATOM     10  C   UNL     1      -0.729   1.579   1.267  0.00  0.00    +0.016 C 
ATOM     11  C   UNL     1      -0.013   1.086   0.008  0.00  0.00    +0.027 C 
ATOM     12  C   UNL     1       0.011   1.072   2.506  0.00  0.00    +0.027 C 
ATOM     13  C   UNL     1      -0.750   3.109   1.275  0.00  0.00    +0.027 C 
ENDBRANCH   5  10
BRANCH   1  14
ATOM     14  S   UNL     1      -6.893   0.149  -0.343  0.00  0.00    +0.102 S 
ATOM     15  O   UNL     1      -8.071  -0.644  -0.302  0.00  0.00    -0.146 OA
ATOM     16  O   UNL     1      -6.867   1.498   0.104  0.00  0.00    -0.146 OA
BRANCH  14  21
ATOM     17  C   UNL     1      -5.051   0.203  -6.089  0.00  0.00    +0.044 C 
ATOM     18  C   UNL     1      -5.511   0.190  -4.654  0.00  0.00    -0.050 A 
ATOM     19  C   UNL     1      -6.300  -0.847  -4.191  0.00  0.00    +0.005 A 
ATOM     20  C   UNL     1      -6.723  -0.859  -2.874  0.00  0.00    +0.029 A 
ATOM     21  C   UNL     1      -6.355   0.165  -2.021  0.00  0.00    +0.113 A 
ATOM     22  C   UNL     1      -5.570   1.203  -2.486  0.00  0.00    +0.029 A 
ATOM     23  C   UNL     1      -5.144   1.213  -3.801  0.00  0.00    +0.005 A 
ENDBRANCH  14  21
ENDBRANCH   1  14
TORSDOF 3
