REMARK  Name = ZINC63491889
REMARK  7 active torsions:
REMARK  status: ('A' for Active; 'I' for Inactive)
REMARK    1  A    between atoms: C_1  and  O_2
REMARK    2  A    between atoms: O_2  and  C_3
REMARK    3  A    between atoms: C_6  and  S_10
REMARK    4  A    between atoms: S_10  and  N_13
REMARK    5  A    between atoms: C_26  and  C_28
REMARK    6  A    between atoms: C_31  and  S_34
REMARK    7  A    between atoms: S_34  and  C_35
REMARK                            x       y       z     vdW  Elec       q    Type
REMARK                         _______ _______ _______ _____ _____    ______ ____
ROOT
ATOM      1  N   UNL     1      -5.785  -2.883  -1.515  0.00  0.00    -0.167 NA
ATOM      2  C   UNL     1      -6.512  -1.761  -2.119  0.00  0.00    +0.114 C 
ATOM      3  C   UNL     1      -7.853  -2.265  -2.684  0.00  0.00    +0.050 C 
ATOM      4  C   UNL     1      -7.554  -3.537  -3.438  0.00  0.00    -0.035 C 
ATOM      5  C   UNL     1      -7.854  -3.916  -4.674  0.00  0.00    -0.001 A 
ATOM      6  C   UNL     1      -8.677  -3.287  -5.719  0.00  0.00    +0.010 A 
ATOM      7  C   UNL     1      -8.757  -3.953  -6.902  0.00  0.00    +0.001 A 
ATOM      8  C   UNL     1      -8.109  -5.168  -7.145  0.00  0.00    +0.002 A 
ATOM      9  C   UNL     1      -7.340  -5.822  -6.239  0.00  0.00    +0.026 A 
ATOM     10  C   UNL     1      -7.186  -5.224  -4.955  0.00  0.00    +0.043 A 
ATOM     11  N   UNL     1      -6.536  -5.636  -3.907  0.00  0.00    -0.376 N 
ATOM     12  C   UNL     1      -6.759  -4.682  -2.821  0.00  0.00    +0.129 C 
ATOM     13  C   UNL     1      -5.444  -4.072  -2.310  0.00  0.00    +0.136 C 
ATOM     14  H   UNL     1      -5.995  -6.440  -3.855  0.00  0.00    +0.160 HD
ENDROOT
BRANCH  13  15
ATOM     15  C   UNL     1      -4.716  -5.072  -1.448  0.00  0.00    -0.026 A 
ATOM     16  C   UNL     1      -5.426  -6.057  -0.785  0.00  0.00    +0.006 A 
ATOM     17  C   UNL     1      -4.763  -6.974   0.006  0.00  0.00    +0.015 A 
ATOM     18  C   UNL     1      -3.381  -6.906   0.137  0.00  0.00    +0.008 A 
ATOM     19  C   UNL     1      -2.671  -5.915  -0.531  0.00  0.00    +0.015 A 
ATOM     20  C   UNL     1      -3.340  -5.004  -1.325  0.00  0.00    +0.006 A 
BRANCH  18  21
ATOM     21  S   UNL     1      -2.531  -8.073   1.146  0.00  0.00    -0.129 S 
ATOM     22  C   UNL     1      -0.788  -7.589   1.004  0.00  0.00    +0.090 C 
ENDBRANCH  18  21
ENDBRANCH  13  15
BRANCH   1  23
ATOM     23  S   UNL     1      -5.338  -2.806   0.078  0.00  0.00    +0.062 S 
ATOM     24  O   UNL     1      -5.113  -4.144   0.501  0.00  0.00    -0.153 OA
ATOM     25  O   UNL     1      -6.272  -1.950   0.721  0.00  0.00    -0.153 OA
BRANCH  23  29
ATOM     26  C   UNL     1      -1.329  -0.704   0.243  0.00  0.00    +0.138 A 
ATOM     27  C   UNL     1      -2.497   0.035   0.125  0.00  0.00    +0.049 A 
ATOM     28  C   UNL     1      -3.718  -0.609   0.074  0.00  0.00    +0.032 A 
ATOM     29  C   UNL     1      -3.778  -1.989   0.142  0.00  0.00    +0.107 A 
ATOM     30  C   UNL     1      -2.616  -2.728   0.261  0.00  0.00    +0.052 A 
ATOM     31  C   UNL     1      -1.391  -2.090   0.306  0.00  0.00    +0.084 A 
ATOM     32 CL   UNL     1       0.069  -3.019   0.448  0.00  0.00    -0.080 Cl
BRANCH  26  34
ATOM     33  C   UNL     1      -0.139   1.354   0.224  0.00  0.00    +0.277 C 
ATOM     34  O   UNL     1      -0.126  -0.073   0.293  0.00  0.00    -0.494 OA
ENDBRANCH  26  34
ENDBRANCH  23  29
ENDBRANCH   1  23
TORSDOF 5
