REMARK  Name = ZINC64928200
REMARK  10 active torsions:
REMARK  status: ('A' for Active; 'I' for Inactive)
REMARK    1  A    between atoms: C_1  and  C_2
REMARK    2  A    between atoms: C_2  and  C_3
REMARK    3  A    between atoms: C_3  and  N_4
REMARK    4  A    between atoms: C_10  and  C_12
REMARK    5  A    between atoms: C_12  and  C_13
REMARK    6  A    between atoms: N_23  and  S_24
REMARK    7  A    between atoms: S_24  and  C_27
REMARK    8  A    between atoms: C_30  and  N_33
REMARK    9  A    between atoms: C_34  and  C_36
REMARK   10  A    between atoms: C_36  and  C_37
REMARK                            x       y       z     vdW  Elec       q    Type
REMARK                         _______ _______ _______ _____ _____    ______ ____
ROOT
ATOM      1  C   UNL     1      -3.907  -6.931   2.359  0.00  0.00    +0.119 C 
ATOM      2  C   UNL     1      -5.396  -7.166   2.329  0.00  0.00    -0.025 A 
ATOM      3  C   UNL     1      -6.226  -6.114   2.695  0.00  0.00    +0.005 A 
ATOM      4  C   UNL     1      -7.597  -6.264   2.678  0.00  0.00    +0.000 A 
ATOM      5  C   UNL     1      -8.149  -7.471   2.291  0.00  0.00    +0.000 A 
ATOM      6  C   UNL     1      -7.327  -8.518   1.930  0.00  0.00    +0.004 A 
ATOM      7  C   UNL     1      -5.945  -8.371   1.952  0.00  0.00    -0.041 A 
ATOM      8  C   UNL     1      -5.110  -9.565   1.572  0.00  0.00    +0.052 C 
ATOM      9  C   UNL     1      -3.696  -9.138   1.182  0.00  0.00    +0.115 C 
ATOM     10  N   UNL     1      -3.203  -8.210   2.211  0.00  0.00    -0.168 NA
ENDROOT
BRANCH  10  11
ATOM     11  S   UNL     1      -1.905  -8.593   3.165  0.00  0.00    +0.061 S 
ATOM     12  O   UNL     1      -0.922  -9.155   2.306  0.00  0.00    -0.153 OA
ATOM     13  O   UNL     1      -1.647  -7.456   3.977  0.00  0.00    -0.153 OA
BRANCH  11  14
ATOM     14  C   UNL     1      -2.419  -9.882   4.251  0.00  0.00    +0.106 A 
ATOM     15  C   UNL     1      -2.974  -9.569   5.478  0.00  0.00    +0.030 A 
ATOM     16  C   UNL     1      -3.378 -10.577   6.332  0.00  0.00    +0.025 A 
ATOM     17  C   UNL     1      -3.227 -11.905   5.957  0.00  0.00    +0.033 A 
ATOM     18  C   UNL     1      -2.669 -12.216   4.724  0.00  0.00    +0.025 A 
ATOM     19  C   UNL     1      -2.271 -11.204   3.873  0.00  0.00    +0.030 A 
BRANCH  17  20
ATOM     20  N   UNL     1      -3.634 -12.928   6.820  0.00  0.00    -0.286 N 
ATOM     21  C   UNL     1      -4.695 -12.744   7.630  0.00  0.00    +0.217 C 
ATOM     22  O   UNL     1      -5.352 -11.727   7.547  0.00  0.00    -0.275 OA
ATOM     23  H   UNL     1      -3.154 -13.771   6.835  0.00  0.00    +0.155 HD
BRANCH  21  24
ATOM     24  C   UNL     1      -5.065 -13.800   8.640  0.00  0.00    +0.093 C 
ATOM     25  C   UNL     1      -6.297 -13.345   9.425  0.00  0.00    +0.013 C 
ENDBRANCH  21  24
ENDBRANCH  17  20
ENDBRANCH  11  14
ENDBRANCH  10  11
BRANCH   1  26
ATOM     26  C   UNL     1      -3.515  -5.998   1.212  0.00  0.00    +0.121 C 
BRANCH  26  33
ATOM     27  N   UNL     1      -0.506  -2.772  -1.134  0.00  0.00    +0.382 N 
ATOM     28  C   UNL     1       0.110  -3.079   0.163  0.00  0.00    -0.060 C 
ATOM     29  C   UNL     1      -0.028  -4.577   0.451  0.00  0.00    +0.089 C 
ATOM     30  N   UNL     1      -1.450  -4.942   0.352  0.00  0.00    -0.305 N 
ATOM     31  C   UNL     1      -2.190  -4.527  -0.850  0.00  0.00    +0.089 C 
ATOM     32  C   UNL     1      -1.950  -3.031  -1.076  0.00  0.00    -0.060 C 
ATOM     33  C   UNL     1      -2.057  -5.636   1.335  0.00  0.00    +0.217 C 
ATOM     34  O   UNL     1      -1.430  -5.969   2.318  0.00  0.00    -0.276 OA
ATOM     35  H   UNL     1      -0.090  -3.352  -1.847  0.00  0.00    -0.082 HD
BRANCH  27  36
ATOM     36  C   UNL     1      -0.277  -1.358  -1.461  0.00  0.00    -0.079 C 
BRANCH  36  38
ATOM     37  C   UNL     1       1.460   0.360  -1.984  0.00  0.00    +0.002 C 
ATOM     38  C   UNL     1       1.222  -1.113  -1.644  0.00  0.00    -0.022 C 
ENDBRANCH  36  38
ENDBRANCH  27  36
ENDBRANCH  26  33
ENDBRANCH   1  26
TORSDOF 8
