REMARK  Name = ZINC49874719
REMARK  7 active torsions:
REMARK  status: ('A' for Active; 'I' for Inactive)
REMARK    1  A    between atoms: C_1  and  C_2
REMARK    2  A    between atoms: C_5  and  N_9
REMARK    3  A    between atoms: C_10  and  C_12
REMARK    4  A    between atoms: C_12  and  N_13
REMARK    5  A    between atoms: N_22  and  C_23
REMARK    6  A    between atoms: C_23  and  C_24
REMARK    7  A    between atoms: C_24  and  O_25
REMARK                            x       y       z     vdW  Elec       q    Type
REMARK                         _______ _______ _______ _____ _____    ______ ____
ROOT
ATOM      1  N   UNL     1      -0.234  -6.825  -2.571  0.00  0.00    -0.305 N 
ATOM      2  C   UNL     1      -1.400  -7.021  -3.292  0.00  0.00    +0.068 A 
ATOM      3  C   UNL     1      -2.747  -6.853  -3.006  0.00  0.00    +0.028 A 
ATOM      4  C   UNL     1      -3.694  -7.144  -3.966  0.00  0.00    +0.002 A 
ATOM      5  C   UNL     1      -3.308  -7.605  -5.216  0.00  0.00    +0.002 A 
ATOM      6  C   UNL     1      -1.976  -7.778  -5.517  0.00  0.00    +0.028 A 
ATOM      7  C   UNL     1      -1.004  -7.487  -4.556  0.00  0.00    +0.065 A 
ATOM      8  N   UNL     1       0.353  -7.554  -4.551  0.00  0.00    -0.327 N 
ATOM      9  C   UNL     1       0.808  -7.160  -3.387  0.00  0.00    +0.175 A 
ATOM     10  N   UNL     1       2.140  -7.096  -3.038  0.00  0.00    -0.314 N 
ATOM     11  H   UNL     1       2.396  -6.794  -2.152  0.00  0.00    +0.149 HD
ATOM     12  H   UNL     1       0.901  -7.845  -5.296  0.00  0.00    +0.169 HD
ENDROOT
BRANCH   1  13
ATOM     13  C   UNL     1      -0.136  -6.343  -1.191  0.00  0.00    +0.221 C 
BRANCH  13  15
ATOM     14  N   UNL     1       0.057  -4.171  -0.023  0.00  0.00    -0.283 N 
ATOM     15  C   UNL     1      -0.042  -4.839  -1.190  0.00  0.00    +0.237 C 
ATOM     16  O   UNL     1      -0.055  -4.230  -2.238  0.00  0.00    -0.274 OA
ATOM     17  H   UNL     1       0.149  -4.660   0.809  0.00  0.00    +0.155 HD
BRANCH  14  22
ATOM     18  C   UNL     1      -0.064   1.502   0.016  0.00  0.00    +0.044 C 
ATOM     19  C   UNL     1      -0.031  -0.005   0.006  0.00  0.00    -0.049 A 
ATOM     20  C   UNL     1      -0.622  -0.701  -1.033  0.00  0.00    +0.005 A 
ATOM     21  C   UNL     1      -0.594  -2.082  -1.045  0.00  0.00    +0.025 A 
ATOM     22  C   UNL     1       0.028  -2.772  -0.014  0.00  0.00    +0.052 A 
ATOM     23  C   UNL     1       0.621  -2.070   1.029  0.00  0.00    +0.062 A 
ATOM     24  C   UNL     1       0.595  -0.688   1.032  0.00  0.00    +0.025 A 
ATOM     25 CL   UNL     1       1.401  -2.928   2.321  0.00  0.00    -0.082 Cl
ENDBRANCH  14  22
ENDBRANCH  13  15
ENDBRANCH   1  13
BRANCH  10  26
ATOM     26  C   UNL     1       3.171  -7.483  -4.005  0.00  0.00    +0.132 C 
BRANCH  26  27
ATOM     27  C   UNL     1       4.553  -7.320  -3.371  0.00  0.00    +0.174 C 
BRANCH  27  28
ATOM     28  O   UNL     1       4.690  -8.239  -2.285  0.00  0.00    -0.393 OA
ATOM     29  H   UNL     1       5.544  -8.191  -1.835  0.00  0.00    +0.209 HD
ENDBRANCH  27  28
ENDBRANCH  26  27
ENDBRANCH  10  26
TORSDOF 6
