REMARK  Name = ZINC42361083
REMARK  7 active torsions:
REMARK  status: ('A' for Active; 'I' for Inactive)
REMARK    1  A    between atoms: C_1  and  N_2
REMARK    2  A    between atoms: N_2  and  C_3
REMARK    3  A    between atoms: N_2  and  C_10
REMARK    4  A    between atoms: C_3  and  C_4
REMARK    5  A    between atoms: C_10  and  C_12
REMARK    6  A    between atoms: C_10  and  C_14
REMARK    7  A    between atoms: C_12  and  N_13
REMARK                            x       y       z     vdW  Elec       q    Type
REMARK                         _______ _______ _______ _____ _____    ______ ____
ROOT
ATOM      1  C   UNL     1      -1.327  -0.622  -0.219  0.00  0.00    +0.076 C 
ENDROOT
BRANCH   1   2
ATOM      2  C   UNL     1      -1.794  -0.182  -1.582  0.00  0.00    +0.006 A 
ATOM      3  C   UNL     1      -3.041   0.162  -1.986  0.00  0.00    +0.014 A 
ATOM      4  C   UNL     1      -3.240   0.538  -3.302  0.00  0.00    +0.023 A 
ATOM      5  C   UNL     1      -2.180   0.550  -4.149  0.00  0.00    +0.055 A 
ATOM      6  S   UNL     1      -0.848   0.028  -3.081  0.00  0.00    -0.085 S 
ATOM      7 BR   UNL     1      -2.126   1.009  -5.982  0.00  0.00    -0.043 Br
ENDBRANCH   1   2
BRANCH   1   9
ATOM      8  C   UNL     1      -0.075   1.448  -0.115  0.00  0.00    +0.105 C 
ATOM      9  N   UNL     1      -0.025  -0.008   0.074  0.00  0.00    -0.296 NA
BRANCH   9  10
ATOM     10  C   UNL     1       0.424  -0.347   1.431  0.00  0.00    +0.120 C 
BRANCH  10  11
ATOM     11  C   UNL     1       1.911  -0.124   1.539  0.00  0.00    -0.025 A 
ATOM     12  C   UNL     1       2.797  -1.142   1.239  0.00  0.00    +0.028 A 
ATOM     13  C   UNL     1       4.128  -0.907   1.347  0.00  0.00    +0.055 A 
ATOM     14  S   UNL     1       4.160   0.795   1.886  0.00  0.00    -0.090 S 
ATOM     15  C   UNL     1       2.398   1.080   1.927  0.00  0.00    +0.051 A 
ATOM     16 BR   UNL     1       5.575  -2.078   1.013  0.00  0.00    -0.043 Br
ENDBRANCH  10  11
ENDBRANCH   9  10
ENDBRANCH   1   9
BRANCH   1  17
ATOM     17  C   UNL     1      -1.189  -2.146  -0.194  0.00  0.00    -0.062 C 
BRANCH  17  18
ATOM     18  N   UNL     1      -0.106  -2.554  -1.098  0.00  0.00    +0.379 N 
ATOM     19  H   UNL     1      -0.352  -2.317  -2.047  0.00  0.00    -0.090 HD
ATOM     20  H   UNL     1       0.745  -2.076  -0.842  0.00  0.00    -0.090 HD
ATOM     21  H   UNL     1       0.035  -3.551  -1.026  0.00  0.00    -0.090 HD
ENDBRANCH  17  18
ENDBRANCH   1  17
TORSDOF 6
