REMARK  Name = ZINC60410150
REMARK  5 active torsions:
REMARK  status: ('A' for Active; 'I' for Inactive)
REMARK    1  A    between atoms: C_5  and  C_7
REMARK    2  A    between atoms: C_9  and  C_10
REMARK    3  A    between atoms: N_12  and  C_13
REMARK    4  A    between atoms: C_17  and  S_19
REMARK    5  A    between atoms: S_19  and  N_22
REMARK                            x       y       z     vdW  Elec       q    Type
REMARK                         _______ _______ _______ _____ _____    ______ ____
ROOT
ATOM      1  C   UNL     1       1.169  -4.176  -1.689  0.00  0.00    +0.221 C 
ATOM      2  O   UNL     1       2.175  -4.603  -1.164  0.00  0.00    -0.275 OA
ATOM      3  N   UNL     1       0.610  -4.843  -2.718  0.00  0.00    -0.285 N 
ATOM      4  H   UNL     1      -0.231  -4.538  -3.094  0.00  0.00    +0.155 HD
ENDROOT
BRANCH   3   5
ATOM      5  C   UNL     1       1.242  -5.975  -3.244  0.00  0.00    +0.038 A 
ATOM      6  C   UNL     1       1.178  -6.237  -4.606  0.00  0.00    +0.061 A 
ATOM      7  C   UNL     1       1.804  -7.357  -5.123  0.00  0.00    +0.127 A 
ATOM      8  C   UNL     1       2.494  -8.215  -4.282  0.00  0.00    +0.067 A 
ATOM      9  C   UNL     1       2.558  -7.955  -2.926  0.00  0.00    +0.109 A 
ATOM     10  C   UNL     1       1.940  -6.834  -2.406  0.00  0.00    +0.052 A 
ATOM     11  F   UNL     1       1.743  -7.615  -6.447  0.00  0.00    -0.205 F 
BRANCH   9  12
ATOM     12  S   UNL     1       3.436  -9.050  -1.860  0.00  0.00    +0.056 S 
ATOM     13  O   UNL     1       2.887  -8.878  -0.561  0.00  0.00    -0.153 OA
ATOM     14  O   UNL     1       3.469 -10.312  -2.513  0.00  0.00    -0.153 OA
BRANCH  12  15
ATOM     15  N   UNL     1       5.000  -8.513  -1.788  0.00  0.00    -0.204 NA
ATOM     16  H   UNL     1       5.267  -7.725  -2.287  0.00  0.00    +0.144 HD
ATOM     17  H   UNL     1       5.651  -8.986  -1.246  0.00  0.00    +0.144 HD
ENDBRANCH  12  15
ENDBRANCH   9  12
ENDBRANCH   3   5
BRANCH   1  20
ATOM     18  C   UNL     1       1.225  -2.188  -0.019  0.00  0.00    +0.034 C 
ATOM     19  C   UNL     1      -0.100  -2.922   0.198  0.00  0.00    +0.022 C 
ATOM     20  C   UNL     1       0.543  -2.898  -1.191  0.00  0.00    +0.083 C 
BRANCH  18  25
ATOM     21  C   UNL     1      -0.039   1.369   0.025  0.00  0.00    +0.000 A 
ATOM     22  C   UNL     1       1.144   2.084   0.014  0.00  0.00    +0.003 A 
ATOM     23  C   UNL     1       2.354   1.418  -0.008  0.00  0.00    +0.038 A 
ATOM     24  C   UNL     1       2.382   0.034  -0.019  0.00  0.00    +0.127 A 
ATOM     25  C   UNL     1       1.197  -0.681  -0.007  0.00  0.00    -0.008 A 
ATOM     26  C   UNL     1      -0.013  -0.013   0.015  0.00  0.00    +0.007 A 
ATOM     27  F   UNL     1       3.565  -0.619  -0.041  0.00  0.00    -0.205 F 
ENDBRANCH  18  25
ENDBRANCH   1  20
TORSDOF 5
