REMARK  Name = ZINC20685385
REMARK  9 active torsions:
REMARK  status: ('A' for Active; 'I' for Inactive)
REMARK    1  A    between atoms: C_1  and  C_2
REMARK    2  A    between atoms: C_2  and  C_3
REMARK    3  A    between atoms: C_3  and  C_5
REMARK    4  A    between atoms: C_3  and  N_6
REMARK    5  A    between atoms: N_6  and  S_7
REMARK    6  A    between atoms: S_7  and  C_10
REMARK    7  A    between atoms: C_23  and  C_26
REMARK    8  A    between atoms: N_38  and  C_39
REMARK    9  A    between atoms: C_39  and  C_40
REMARK                            x       y       z     vdW  Elec       q    Type
REMARK                         _______ _______ _______ _____ _____    ______ ____
ROOT
ATOM      1  C   UNL     1      -3.724  11.629  -0.061  0.00  0.00    +0.106 A 
ATOM      2  C   UNL     1      -3.262  11.601  -1.364  0.00  0.00    +0.030 A 
ATOM      3  C   UNL     1      -2.040  11.023  -1.644  0.00  0.00    +0.025 A 
ATOM      4  C   UNL     1      -1.280  10.473  -0.619  0.00  0.00    +0.031 A 
ATOM      5  C   UNL     1      -1.739  10.500   0.689  0.00  0.00    -0.018 A 
ATOM      6  C   UNL     1      -2.969  11.084   0.957  0.00  0.00    +0.034 A 
ATOM      7  C   UNL     1      -0.956   9.922   1.824  0.00  0.00    +0.049 C 
ATOM      8  C   UNL     1      -1.544   8.610   2.287  0.00  0.00    -0.023 C 
ATOM      9  C   UNL     1      -0.590   7.784   2.642  0.00  0.00    -0.030 C 
ATOM     10  C   UNL     1       0.768   8.436   2.468  0.00  0.00    +0.033 C 
ATOM     11  C   UNL     1       0.497   9.570   1.440  0.00  0.00    +0.029 C 
ATOM     12  C   UNL     1       0.529   8.941   0.044  0.00  0.00    +0.105 C 
ATOM     13  N   UNL     1      -0.045   9.888  -0.919  0.00  0.00    -0.336 N 
ATOM     14  H   UNL     1       0.495  10.122  -1.848  0.00  0.00    +0.147 HD
ENDROOT
BRANCH  12  15
ATOM     15  C   UNL     1      -0.281   7.670   0.045  0.00  0.00    -0.026 A 
ATOM     16  C   UNL     1       0.332   6.462   0.339  0.00  0.00    +0.007 A 
ATOM     17  C   UNL     1      -0.394   5.291   0.343  0.00  0.00    +0.027 A 
ATOM     18  C   UNL     1      -1.755   5.314   0.052  0.00  0.00    +0.050 A 
ATOM     19  C   UNL     1      -2.373   6.537  -0.245  0.00  0.00    +0.008 A 
ATOM     20  C   UNL     1      -1.627   7.713  -0.247  0.00  0.00    +0.016 A 
ATOM     21  C   UNL     1      -3.793   6.236  -0.505  0.00  0.00    +0.008 A 
ATOM     22  C   UNL     1      -4.893   7.020  -0.845  0.00  0.00    +0.010 A 
ATOM     23  C   UNL     1      -6.125   6.430  -1.026  0.00  0.00    +0.001 A 
ATOM     24  C   UNL     1      -6.273   5.060  -0.872  0.00  0.00    +0.002 A 
ATOM     25  C   UNL     1      -5.194   4.273  -0.530  0.00  0.00    +0.026 A 
ATOM     26  C   UNL     1      -3.941   4.850  -0.348  0.00  0.00    +0.050 A 
ATOM     27  N   UNL     1      -2.710   4.315  -0.015  0.00  0.00    -0.340 N 
BRANCH  27  28
ATOM     28  C   UNL     1      -2.454   2.894   0.232  0.00  0.00    +0.119 C 
ATOM     29  C   UNL     1      -2.661   2.588   1.717  0.00  0.00    +0.027 C 
ENDBRANCH  27  28
ENDBRANCH  12  15
BRANCH   1  30
ATOM     30  S   UNL     1      -5.283  12.365   0.301  0.00  0.00    +0.059 S 
ATOM     31  O   UNL     1      -6.043  12.318  -0.899  0.00  0.00    -0.153 OA
ATOM     32  O   UNL     1      -5.737  11.780   1.513  0.00  0.00    -0.153 OA
BRANCH  30  33
ATOM     33  N   UNL     1      -5.006  13.966   0.622  0.00  0.00    -0.187 NA
ATOM     34  H   UNL     1      -5.047  14.320   1.663  0.00  0.00    +0.148 HD
BRANCH  33  35
ATOM     35  C   UNL     1      -4.500  14.848  -0.432  0.00  0.00    +0.073 C 
ATOM     36  C   UNL     1      -5.673  15.563  -1.105  0.00  0.00    +0.025 C 
BRANCH  35  38
ATOM     37  C   UNL     1      -2.320  15.178   0.744  0.00  0.00    +0.005 C 
ATOM     38  C   UNL     1      -3.555  15.884   0.180  0.00  0.00    +0.017 C 
ENDBRANCH  35  38
ENDBRANCH  33  35
ENDBRANCH  30  33
ENDBRANCH   1  30
TORSDOF 6
