REMARK  Name = ZINC39676300
REMARK  4 active torsions:
REMARK  status: ('A' for Active; 'I' for Inactive)
REMARK    1  A    between atoms: C_11  and  C_13
REMARK    2  A    between atoms: C_13  and  N_14
REMARK    3  A    between atoms: C_15  and  C_17
REMARK    4  A    between atoms: C_28  and  C_30
REMARK                            x       y       z     vdW  Elec       q    Type
REMARK                         _______ _______ _______ _____ _____    ______ ____
ROOT
ATOM      1  C   UNL     1       8.407  -0.971  -0.194  0.00  0.00    +0.100 C 
ATOM      2  C   UNL     1       8.411  -0.135  -1.494  0.00  0.00    +0.121 C 
ATOM      3  N   UNL     1       9.845   0.105  -1.780  0.00  0.00    -0.297 N 
ATOM      4  C   UNL     1      10.510  -1.173  -1.433  0.00  0.00    +0.115 C 
ATOM      5  C   UNL     1       9.786  -1.651  -0.158  0.00  0.00    -0.004 C 
ATOM      6  C   UNL     1      10.559  -1.214   1.083  0.00  0.00    -0.010 C 
ATOM      7  C   UNL     1      11.902  -1.946   1.126  0.00  0.00    -0.082 C 
ATOM      8  N   UNL     1      11.671  -3.395   1.155  0.00  0.00    +0.379 N 
ATOM      9  C   UNL     1      11.010  -3.822  -0.084  0.00  0.00    -0.082 C 
ATOM     10  C   UNL     1       9.628  -3.168  -0.179  0.00  0.00    -0.010 C 
ATOM     11  C   UNL     1      10.416   1.232  -2.250  0.00  0.00    +0.260 C 
ATOM     12  O   UNL     1       9.748   2.232  -2.402  0.00  0.00    -0.271 OA
ATOM     13  H   UNL     1      12.555  -3.874   1.245  0.00  0.00    -0.086 HD
ATOM     14  H   UNL     1      11.085  -3.626   1.944  0.00  0.00    -0.086 HD
ENDROOT
BRANCH  11  15
ATOM     15  C   UNL     1      11.885   1.249  -2.587  0.00  0.00    +0.296 C 
ATOM     16  C   UNL     1      12.147   0.350  -3.803  0.00  0.00    +0.283 C 
ATOM     17  O   UNL     1      13.546   0.400  -4.104  0.00  0.00    -0.484 OA
ATOM     18  C   UNL     1      14.124   1.633  -4.123  0.00  0.00    +0.162 A 
ATOM     19  C   UNL     1      15.352   1.799  -4.747  0.00  0.00    +0.049 A 
ATOM     20  C   UNL     1      15.953   3.043  -4.772  0.00  0.00    +0.004 A 
ATOM     21  C   UNL     1      15.332   4.125  -4.176  0.00  0.00    +0.004 A 
ATOM     22  C   UNL     1      14.108   3.967  -3.554  0.00  0.00    +0.049 A 
ATOM     23  C   UNL     1      13.499   2.721  -3.527  0.00  0.00    +0.163 A 
ATOM     24  O   UNL     1      12.289   2.582  -2.917  0.00  0.00    -0.473 OA
ENDBRANCH  11  15
BRANCH   1  26
ATOM     25  N   UNL     1       6.833  -2.529   0.906  0.00  0.00    -0.308 N 
ATOM     26  C   UNL     1       7.313  -2.006  -0.239  0.00  0.00    +0.219 C 
ATOM     27  O   UNL     1       6.864  -2.368  -1.306  0.00  0.00    -0.275 OA
ATOM     28  H   UNL     1       7.191  -2.239   1.760  0.00  0.00    +0.149 HD
BRANCH  25  29
ATOM     29  C   UNL     1       5.769  -3.535   0.863  0.00  0.00    +0.178 C 
BRANCH  29  40
ATOM     30  C   UNL     1       5.197  -4.447   7.162  0.00  0.00    +0.001 A 
ATOM     31  C   UNL     1       6.180  -3.502   6.898  0.00  0.00    +0.002 A 
ATOM     32  C   UNL     1       6.481  -3.140   5.604  0.00  0.00    +0.028 A 
ATOM     33  C   UNL     1       5.792  -3.731   4.543  0.00  0.00    +0.078 A 
ATOM     34  C   UNL     1       4.794  -4.693   4.815  0.00  0.00    +0.065 A 
ATOM     35  C   UNL     1       4.504  -5.044   6.132  0.00  0.00    +0.015 A 
ATOM     36  C   UNL     1       4.087  -5.295   3.675  0.00  0.00    +0.259 A 
ATOM     37  O   UNL     1       3.216  -6.130   3.841  0.00  0.00    -0.267 OA
ATOM     38  N   UNL     1       4.442  -4.886   2.435  0.00  0.00    -0.309 N 
ATOM     39  H   UNL     1       3.997  -5.262   1.659  0.00  0.00    +0.170 HD
ATOM     40  C   UNL     1       5.415  -3.954   2.267  0.00  0.00    +0.128 A 
ATOM     41  N   UNL     1       6.056  -3.405   3.253  0.00  0.00    -0.232 NA
ENDBRANCH  29  40
ENDBRANCH  25  29
ENDBRANCH   1  26
TORSDOF 4
