REMARK  Name = ZINC40287021
REMARK  8 active torsions:
REMARK  status: ('A' for Active; 'I' for Inactive)
REMARK    1  A    between atoms: C_3  and  N_14
REMARK    2  A    between atoms: C_5  and  N_7
REMARK    3  A    between atoms: C_15  and  C_17
REMARK    4  A    between atoms: N_19  and  C_20
REMARK    5  A    between atoms: C_20  and  C_21
REMARK    6  A    between atoms: C_21  and  C_23
REMARK    7  A    between atoms: C_21  and  O_30
REMARK    8  A    between atoms: C_26  and  O_29
REMARK                            x       y       z     vdW  Elec       q    Type
REMARK                         _______ _______ _______ _____ _____    ______ ____
ROOT
ATOM      1  N   UNL     1       3.582   2.133  -0.021  0.00  0.00    -0.278 N 
ATOM      2  C   UNL     1       3.561   3.477  -0.116  0.00  0.00    +0.303 C 
ATOM      3  O   UNL     1       2.502   4.069  -0.103  0.00  0.00    -0.265 OA
ATOM      4  H   UNL     1       4.429   1.664   0.045  0.00  0.00    +0.155 HD
ENDROOT
BRANCH   1   7
ATOM      5  C   UNL     1       0.114   1.157  -0.757  0.00  0.00    +0.004 A 
ATOM      6  C   UNL     1       1.299   1.867  -0.758  0.00  0.00    +0.023 A 
ATOM      7  C   UNL     1       2.384   1.413  -0.019  0.00  0.00    +0.036 A 
ATOM      8  C   UNL     1       2.277   0.244   0.721  0.00  0.00    +0.048 A 
ATOM      9  C   UNL     1       1.086  -0.468   0.721  0.00  0.00    +0.053 A 
ATOM     10  C   UNL     1       0.004  -0.007  -0.021  0.00  0.00    +0.025 A 
BRANCH   9  11
ATOM     11  N   UNL     1       0.974  -1.645   1.464  0.00  0.00    -0.207 N 
ATOM     12  C   UNL     1       2.068  -2.540   1.880  0.00  0.00    +0.133 C 
ATOM     13  C   UNL     1       1.720  -3.255   3.198  0.00  0.00    +0.045 C 
ATOM     14  C   UNL     1       0.253  -3.747   3.016  0.00  0.00    +0.190 C 
ATOM     15  S   UNL     1      -0.432  -2.325   2.073  0.00  0.00    +0.046 S 
ATOM     16  O   UNL     1      -0.975  -1.350   2.953  0.00  0.00    -0.155 OA
ATOM     17  O   UNL     1      -1.157  -2.778   0.938  0.00  0.00    -0.155 OA
ENDBRANCH   9  11
ENDBRANCH   1   7
BRANCH   2  18
ATOM     18  C   UNL     1       4.840   4.237  -0.237  0.00  0.00    +0.299 C 
ATOM     19  O   UNL     1       5.899   3.645  -0.250  0.00  0.00    -0.265 OA
ATOM     20  N   UNL     1       4.819   5.582  -0.332  0.00  0.00    -0.305 N 
ATOM     21  H   UNL     1       3.973   6.055  -0.321  0.00  0.00    +0.149 HD
BRANCH  20  22
ATOM     22  C   UNL     1       6.074   6.327  -0.451  0.00  0.00    +0.140 C 
BRANCH  22  23
ATOM     23  C   UNL     1       5.771   7.824  -0.541  0.00  0.00    +0.162 C 
BRANCH  23  24
ATOM     24  C   UNL     1       7.063   8.592  -0.664  0.00  0.00    -0.017 A 
ATOM     25  C   UNL     1       7.642   8.774  -1.906  0.00  0.00    +0.010 A 
ATOM     26  C   UNL     1       8.826   9.476  -2.020  0.00  0.00    +0.046 A 
ATOM     27  C   UNL     1       9.433  10.000  -0.888  0.00  0.00    +0.117 A 
ATOM     28  C   UNL     1       8.849   9.816   0.357  0.00  0.00    +0.046 A 
ATOM     29  C   UNL     1       7.663   9.117   0.466  0.00  0.00    +0.010 A 
BRANCH  27  30
ATOM     30  O   UNL     1      10.598  10.691  -0.998  0.00  0.00    -0.507 OA
ATOM     31  H   UNL     1      10.480  11.641  -1.133  0.00  0.00    +0.292 HD
ENDBRANCH  27  30
ENDBRANCH  23  24
BRANCH  23  32
ATOM     32  O   UNL     1       4.957   8.077  -1.688  0.00  0.00    -0.386 OA
ATOM     33  H   UNL     1       5.365   7.817  -2.526  0.00  0.00    +0.210 HD
ENDBRANCH  23  32
ENDBRANCH  22  23
ENDBRANCH  20  22
ENDBRANCH   2  18
TORSDOF 8
