REMARK  Name = ZINC67501785
REMARK  5 active torsions:
REMARK  status: ('A' for Active; 'I' for Inactive)
REMARK    1  A    between atoms: C_2  and  C_13
REMARK    2  A    between atoms: C_13  and  N_14
REMARK    3  A    between atoms: N_14  and  C_15
REMARK    4  A    between atoms: N_20  and  C_22
REMARK    5  A    between atoms: C_22  and  C_23
REMARK                            x       y       z     vdW  Elec       q    Type
REMARK                         _______ _______ _______ _____ _____    ______ ____
ROOT
ATOM      1  N   UNL     1       1.167   4.072   1.398  0.00  0.00    -0.311 NA
ATOM      2  H   UNL     1       0.395   3.685   1.919  0.00  0.00    +0.122 HD
ENDROOT
BRANCH   1   3
ATOM      3  C   UNL     1       1.151   5.540   1.445  0.00  0.00    +0.037 C 
ATOM      4  C   UNL     1      -0.293   6.040   1.351  0.00  0.00    +0.015 C 
ATOM      5  C   UNL     1      -0.305   7.566   1.480  0.00  0.00    -0.017 C 
ATOM      6  C   UNL     1       0.363   7.966   2.797  0.00  0.00    -0.078 C 
ATOM      7  N   UNL     1       1.749   7.482   2.814  0.00  0.00    +0.386 N 
ATOM      8  C   UNL     1       1.766   6.016   2.763  0.00  0.00    -0.059 C 
ATOM      9  H   UNL     1       2.243   7.851   2.015  0.00  0.00    -0.081 HD
BRANCH   7  10
ATOM     10  C   UNL     1       2.409   7.936   4.045  0.00  0.00    +0.018 C 
BRANCH  10  11
ATOM     11  C   UNL     1       2.511   9.439   4.037  0.00  0.00    +0.194 C 
ATOM     12  O   UNL     1       2.076  10.071   3.097  0.00  0.00    -0.278 OA
ATOM     13  N   UNL     1       3.085  10.082   5.073  0.00  0.00    -0.331 N 
ATOM     14  H   UNL     1       3.432   9.577   5.824  0.00  0.00    +0.145 HD
ATOM     15  H   UNL     1       3.150  11.050   5.067  0.00  0.00    +0.145 HD
ENDBRANCH  10  11
ENDBRANCH   7  10
ENDBRANCH   1   3
BRANCH   1  16
ATOM     16  C   UNL     1       1.159   3.590   0.010  0.00  0.00    +0.116 C 
BRANCH  16  18
ATOM     17  C   UNL     1      -0.017   1.380   0.010  0.00  0.00    +0.054 A 
ATOM     18  C   UNL     1       1.175   2.083   0.002  0.00  0.00    -0.029 A 
ATOM     19  C   UNL     1       2.381   1.407  -0.013  0.00  0.00    +0.024 A 
ATOM     20  C   UNL     1       2.404   0.023  -0.021  0.00  0.00    +0.063 A 
ATOM     21  C   UNL     1       1.212  -0.683  -0.013  0.00  0.00    +0.176 A 
ATOM     22  C   UNL     1       0.002  -0.004   0.002  0.00  0.00    +0.163 A 
ATOM     23  O   UNL     1      -1.167  -0.709   0.010  0.00  0.00    -0.488 OA
ATOM     24  C   UNL     1      -1.468  -1.433  -1.184  0.00  0.00    +0.232 C 
ATOM     25  C   UNL     1      -0.780  -2.789  -1.181  0.00  0.00    +0.082 C 
ATOM     26  C   UNL     1       0.736  -2.670  -1.212  0.00  0.00    +0.232 C 
ATOM     27  O   UNL     1       1.220  -2.048  -0.019  0.00  0.00    -0.487 OA
ATOM     28 BR   UNL     1       4.054  -0.900  -0.042  0.00  0.00    -0.046 Br
ENDBRANCH  16  18
ENDBRANCH   1  16
TORSDOF 5
