REMARK  Name = ZINC29061930
REMARK  10 active torsions:
REMARK  status: ('A' for Active; 'I' for Inactive)
REMARK    1  A    between atoms: C_1  and  C_2
REMARK    2  A    between atoms: C_5  and  N_9
REMARK    3  A    between atoms: C_10  and  C_12
REMARK    4  A    between atoms: C_12  and  N_13
REMARK    5  A    between atoms: N_13  and  C_14
REMARK    6  A    between atoms: N_13  and  C_15
REMARK    7  A    between atoms: C_15  and  C_17
REMARK    8  A    between atoms: C_15  and  C_18
REMARK    9  A    between atoms: C_21  and  S_24
REMARK   10  A    between atoms: S_24  and  N_27
REMARK                            x       y       z     vdW  Elec       q    Type
REMARK                         _______ _______ _______ _____ _____    ______ ____
ROOT
ATOM      1  N   UNL     1      -6.027   2.918  -0.238  0.00  0.00    +0.388 N 
ATOM      2  C   UNL     1      -5.961   2.159  -1.494  0.00  0.00    -0.095 C 
ATOM      3  H   UNL     1      -5.923   2.205   0.593  0.00  0.00    -0.081 HD
ENDROOT
BRANCH   1   4
ATOM      4  C   UNL     1      -7.325   3.590  -0.097  0.00  0.00    -0.041 C 
ATOM      5  C   UNL     1      -7.393   4.287   1.264  0.00  0.00    -0.008 C 
BRANCH   4   6
ATOM      6  C   UNL     1      -8.432   2.572  -0.195  0.00  0.00    -0.061 A 
ATOM      7  C   UNL     1      -8.287   1.334   0.401  0.00  0.00    +0.004 A 
ATOM      8  C   UNL     1      -9.303   0.401   0.315  0.00  0.00    +0.029 A 
ATOM      9  C   UNL     1     -10.461   0.704  -0.377  0.00  0.00    +0.105 A 
ATOM     10  C   UNL     1     -10.604   1.940  -0.978  0.00  0.00    +0.029 A 
ATOM     11  C   UNL     1      -9.589   2.874  -0.887  0.00  0.00    +0.004 A 
BRANCH   9  12
ATOM     12  S   UNL     1     -11.755  -0.487  -0.494  0.00  0.00    +0.056 S 
ATOM     13  O   UNL     1     -11.601  -1.364   0.614  0.00  0.00    -0.153 OA
ATOM     14  O   UNL     1     -12.954   0.237  -0.731  0.00  0.00    -0.153 OA
BRANCH  12  15
ATOM     15  N   UNL     1     -11.469  -1.389  -1.853  0.00  0.00    -0.204 NA
ATOM     16  H   UNL     1     -12.258  -2.147  -1.963  0.00  0.00    +0.144 HD
ATOM     17  H   UNL     1     -10.492  -1.886  -1.765  0.00  0.00    +0.144 HD
ENDBRANCH  12  15
ENDBRANCH   9  12
ENDBRANCH   4   6
ENDBRANCH   1   4
BRANCH   1  18
ATOM     18  C   UNL     1      -4.922   3.882  -0.147  0.00  0.00    +0.019 C 
BRANCH  18  20
ATOM     19  N   UNL     1      -2.457   3.823   0.045  0.00  0.00    -0.287 N 
ATOM     20  C   UNL     1      -3.614   3.139  -0.049  0.00  0.00    +0.201 C 
ATOM     21  O   UNL     1      -3.604   1.927  -0.055  0.00  0.00    -0.278 OA
ATOM     22  H   UNL     1      -2.471   4.920   0.127  0.00  0.00    +0.155 HD
BRANCH  19  27
ATOM     23  C   UNL     1       2.490   1.044   0.016  0.00  0.00    +0.045 C 
ATOM     24  C   UNL     1       1.176   1.782   0.024  0.00  0.00    -0.037 A 
ATOM     25  C   UNL     1       1.078   3.024  -0.577  0.00  0.00    +0.006 A 
ATOM     26  C   UNL     1      -0.123   3.705  -0.567  0.00  0.00    +0.023 A 
ATOM     27  C   UNL     1      -1.237   3.137   0.038  0.00  0.00    +0.034 A 
ATOM     28  C   UNL     1      -1.136   1.891   0.641  0.00  0.00    +0.038 A 
ATOM     29  C   UNL     1       0.070   1.216   0.632  0.00  0.00    +0.018 A 
ATOM     30  I   UNL     1       0.224  -0.665   1.541  0.00  0.00    -0.043 I 
ENDBRANCH  19  27
ENDBRANCH  18  20
ENDBRANCH   1  18
TORSDOF 7
