REMARK  Name = ZINC06906134
REMARK  10 active torsions:
REMARK  status: ('A' for Active; 'I' for Inactive)
REMARK    1  A    between atoms: C_1  and  C_2
REMARK    2  A    between atoms: C_2  and  C_3
REMARK    3  A    between atoms: C_2  and  C_4
REMARK    4  A    between atoms: C_2  and  N_5
REMARK    5  A    between atoms: C_9  and  C_11
REMARK    6  A    between atoms: C_11  and  N_12
REMARK    7  A    between atoms: N_12  and  C_13
REMARK    8  A    between atoms: N_12  and  C_14
REMARK    9  A    between atoms: C_14  and  C_15
REMARK   10  A    between atoms: N_17  and  C_18
REMARK                            x       y       z     vdW  Elec       q    Type
REMARK                         _______ _______ _______ _____ _____    ______ ____
ROOT
ATOM      1  N   UNL     1       5.661   0.619  -6.842  0.00  0.00    +0.389 N 
ATOM      2  C   UNL     1       5.991   1.109  -8.187  0.00  0.00    -0.095 C 
ATOM      3  H   UNL     1       5.754   1.373  -6.178  0.00  0.00    -0.081 HD
ENDROOT
BRANCH   1   4
ATOM      4  C   UNL     1       4.280   0.120  -6.828  0.00  0.00    +0.019 C 
BRANCH   4   9
ATOM      5  N   UNL     1      -0.177   1.841  -7.366  0.00  0.00    -0.294 N 
ATOM      6  C   UNL     1       1.152   2.063  -7.335  0.00  0.00    +0.306 C 
ATOM      7  O   UNL     1       1.585   3.185  -7.509  0.00  0.00    -0.252 OA
ATOM      8  N   UNL     1       2.001   1.041  -7.110  0.00  0.00    -0.242 N 
ATOM      9  C   UNL     1       3.330   1.263  -7.079  0.00  0.00    +0.204 C 
ATOM     10  O   UNL     1       3.762   2.382  -7.253  0.00  0.00    -0.277 OA
ATOM     11  H   UNL     1      -0.522   0.945  -7.227  0.00  0.00    +0.151 HD
ATOM     12  H   UNL     1       1.656   0.145  -6.971  0.00  0.00    +0.159 HD
BRANCH   5  14
ATOM     13  C   UNL     1      -0.797   3.575  -8.974  0.00  0.00    +0.031 C 
ATOM     14  C   UNL     1      -1.100   2.951  -7.610  0.00  0.00    +0.028 C 
ATOM     15  C   UNL     1      -0.927   4.008  -6.517  0.00  0.00    +0.031 C 
ATOM     16  C   UNL     1      -2.539   2.432  -7.595  0.00  0.00    +0.031 C 
ENDBRANCH   5  14
ENDBRANCH   4   9
ENDBRANCH   1   4
BRANCH   1  17
ATOM     17  C   UNL     1       6.579  -0.469  -6.480  0.00  0.00    +0.019 C 
BRANCH  17  18
ATOM     18  C   UNL     1       7.982   0.070  -6.375  0.00  0.00    +0.201 C 
ATOM     19  O   UNL     1       8.197   1.246  -6.582  0.00  0.00    -0.278 OA
ATOM     20  N   UNL     1       8.998  -0.753  -6.051  0.00  0.00    -0.285 N 
ATOM     21  H   UNL     1       8.818  -1.676  -5.814  0.00  0.00    +0.155 HD
BRANCH  20  22
ATOM     22  C   UNL     1      10.315  -0.276  -6.056  0.00  0.00    +0.070 A 
ATOM     23  C   UNL     1      10.867   0.257  -4.898  0.00  0.00    +0.064 A 
ATOM     24  C   UNL     1      12.167   0.727  -4.907  0.00  0.00    +0.022 A 
ATOM     25  C   UNL     1      12.918   0.667  -6.067  0.00  0.00    +0.003 A 
ATOM     26  C   UNL     1      12.371   0.138  -7.221  0.00  0.00    +0.022 A 
ATOM     27  C   UNL     1      11.074  -0.340  -7.218  0.00  0.00    +0.064 A 
ATOM     28 CL   UNL     1      10.392  -1.012  -8.666  0.00  0.00    -0.082 Cl
ATOM     29 CL   UNL     1       9.926   0.333  -3.442  0.00  0.00    -0.082 Cl
ENDBRANCH  20  22
ENDBRANCH  17  18
ENDBRANCH   1  17
TORSDOF 6
