REMARK  Name = ZINC38517537
REMARK  6 active torsions:
REMARK  status: ('A' for Active; 'I' for Inactive)
REMARK    1  A    between atoms: C_1  and  N_2
REMARK    2  A    between atoms: C_10  and  C_12
REMARK    3  A    between atoms: C_12  and  C_14
REMARK    4  A    between atoms: C_12  and  N_27
REMARK    5  A    between atoms: C_14  and  N_15
REMARK    6  A    between atoms: N_18  and  C_19
REMARK                            x       y       z     vdW  Elec       q    Type
REMARK                         _______ _______ _______ _____ _____    ______ ____
ROOT
ATOM      1  C   UNL     1       4.999  -2.803  -0.543  0.00  0.00    -0.020 C 
ENDROOT
BRANCH   1  11
ATOM      2  C   UNL     1       0.338   1.733  -0.013  0.00  0.00    +0.129 C 
ATOM      3  N   UNL     1       0.252   0.278  -0.158  0.00  0.00    -0.333 N 
ATOM      4  C   UNL     1      -1.055  -0.391  -0.212  0.00  0.00    +0.105 C 
ATOM      5  C   UNL     1      -0.987  -1.627   0.695  0.00  0.00    +0.024 C 
ATOM      6  C   UNL     1       0.058  -2.592   0.137  0.00  0.00    +0.038 C 
ATOM      7  C   UNL     1       1.360  -1.876  -0.108  0.00  0.00    -0.026 A 
ATOM      8  C   UNL     1       1.413  -0.497  -0.253  0.00  0.00    +0.033 A 
ATOM      9  C   UNL     1       2.630   0.133  -0.490  0.00  0.00    +0.023 A 
ATOM     10  C   UNL     1       3.788  -0.614  -0.584  0.00  0.00    +0.004 A 
ATOM     11  C   UNL     1       3.735  -1.988  -0.442  0.00  0.00    -0.059 A 
ATOM     12  C   UNL     1       2.526  -2.618  -0.197  0.00  0.00    +0.007 A 
ENDBRANCH   1  11
BRANCH   1  13
ATOM     13  N   UNL     1       6.093  -2.096   0.135  0.00  0.00    +0.385 N 
ATOM     14  C   UNL     1       5.834  -2.033   1.596  0.00  0.00    -0.078 C 
ATOM     15  C   UNL     1       7.244  -1.805   2.197  0.00  0.00    -0.020 C 
ATOM     16  C   UNL     1       8.150  -2.669   1.291  0.00  0.00    -0.020 C 
ATOM     17  C   UNL     1       7.358  -2.846  -0.018  0.00  0.00    -0.078 C 
ATOM     18  H   UNL     1       6.193  -1.165  -0.242  0.00  0.00    -0.081 HD
ENDBRANCH   1  13
BRANCH   1  19
ATOM     19  C   UNL     1       5.359  -3.006  -2.017  0.00  0.00    +0.095 C 
BRANCH  19  20
ATOM     20  N   UNL     1       4.325  -3.817  -2.665  0.00  0.00    -0.300 N 
ATOM     21  C   UNL     1       4.377  -4.038  -3.993  0.00  0.00    +0.304 C 
ATOM     22  O   UNL     1       5.281  -3.565  -4.654  0.00  0.00    -0.253 OA
ATOM     23  N   UNL     1       3.426  -4.785  -4.589  0.00  0.00    -0.269 N 
ATOM     24  H   UNL     1       3.604  -4.195  -2.138  0.00  0.00    +0.150 HD
ATOM     25  H   UNL     1       2.667  -5.102  -4.076  0.00  0.00    +0.156 HD
BRANCH  23  26
ATOM     26  C   UNL     1       3.535  -5.102  -5.948  0.00  0.00    +0.036 A 
ATOM     27  C   UNL     1       2.393  -5.213  -6.730  0.00  0.00    +0.025 A 
ATOM     28  C   UNL     1       2.502  -5.526  -8.071  0.00  0.00    +0.023 A 
ATOM     29  C   UNL     1       3.749  -5.729  -8.636  0.00  0.00    +0.059 A 
ATOM     30  C   UNL     1       4.890  -5.619  -7.859  0.00  0.00    +0.061 A 
ATOM     31  C   UNL     1       4.786  -5.300  -6.518  0.00  0.00    +0.044 A 
ATOM     32 CL   UNL     1       6.452  -5.875  -8.571  0.00  0.00    -0.082 Cl
ATOM     33 CL   UNL     1       3.883  -6.123 -10.321  0.00  0.00    -0.082 Cl
ENDBRANCH  23  26
ENDBRANCH  19  20
ENDBRANCH   1  19
TORSDOF 5
