REMARK  Name = ZINC08328509
REMARK  10 active torsions:
REMARK  status: ('A' for Active; 'I' for Inactive)
REMARK    1  A    between atoms: C_1  and  C_2
REMARK    2  A    between atoms: C_2  and  C_4
REMARK    3  A    between atoms: C_2  and  N_48
REMARK    4  A    between atoms: C_4  and  C_5
REMARK    5  A    between atoms: C_13  and  C_15
REMARK    6  A    between atoms: C_13  and  C_16
REMARK    7  A    between atoms: C_13  and  N_48
REMARK    8  A    between atoms: C_16  and  C_18
REMARK    9  A    between atoms: C_16  and  O_25
REMARK   10  A    between atoms: C_21  and  O_24
REMARK                            x       y       z     vdW  Elec       q    Type
REMARK                         _______ _______ _______ _____ _____    ______ ____
ROOT
ATOM      1  N   UNL     1       0.589  -0.473  -1.268  0.00  0.00    +0.385 N 
ATOM      2  H   UNL     1       0.318   0.167  -2.023  0.00  0.00    -0.085 HD
ATOM      3  H   UNL     1       1.612  -0.488  -1.183  0.00  0.00    -0.085 HD
ENDROOT
BRANCH   1   5
ATOM      4  C   UNL     1      -1.237  -1.740  -2.310  0.00  0.00    -0.013 C 
ATOM      5  C   UNL     1       0.107  -1.831  -1.583  0.00  0.00    -0.066 C 
BRANCH   5   6
ATOM      6  C   UNL     1       1.127  -2.530  -2.484  0.00  0.00    +0.080 C 
BRANCH   6   7
ATOM      7  C   UNL     1       2.414  -2.729  -1.724  0.00  0.00    +0.214 C 
ATOM      8  O   UNL     1       2.505  -2.351  -0.576  0.00  0.00    -0.276 OA
ATOM      9  N   UNL     1       3.462  -3.329  -2.321  0.00  0.00    -0.297 N 
ATOM     10  C   UNL     1       3.374  -3.803  -3.712  0.00  0.00    +0.136 C 
ATOM     11  C   UNL     1       4.586  -3.256  -4.483  0.00  0.00    +0.179 C 
ATOM     12  O   UNL     1       5.782  -3.591  -3.774  0.00  0.00    -0.377 OA
ATOM     13  C   UNL     1       5.873  -3.007  -2.472  0.00  0.00    +0.179 C 
ATOM     14  C   UNL     1       4.729  -3.535  -1.600  0.00  0.00    +0.136 C 
ENDBRANCH   6   7
ENDBRANCH   5   6
ENDBRANCH   1   5
BRANCH   1  15
ATOM     15  C   UNL     1       0.002  -0.004   0.002  0.00  0.00    -0.041 C 
ATOM     16  C   UNL     1       0.848  -0.509   1.173  0.00  0.00    -0.011 C 
BRANCH  15  17
ATOM     17  C   UNL     1      -0.019   1.526   0.010  0.00  0.00    +0.130 C 
BRANCH  17  18
ATOM     18  C   UNL     1      -0.724   2.012   1.250  0.00  0.00    -0.020 A 
ATOM     19  C   UNL     1      -0.025   2.141   2.436  0.00  0.00    +0.009 A 
ATOM     20  C   UNL     1      -0.668   2.592   3.573  0.00  0.00    +0.046 A 
ATOM     21  C   UNL     1      -2.019   2.904   3.526  0.00  0.00    +0.117 A 
ATOM     22  C   UNL     1      -2.720   2.768   2.337  0.00  0.00    +0.046 A 
ATOM     23  C   UNL     1      -2.071   2.322   1.201  0.00  0.00    +0.009 A 
BRANCH  21  24
ATOM     24  O   UNL     1      -2.655   3.341   4.645  0.00  0.00    -0.507 OA
ATOM     25  H   UNL     1      -3.039   2.634   5.181  0.00  0.00    +0.292 HD
ENDBRANCH  21  24
ENDBRANCH  17  18
BRANCH  17  26
ATOM     26  O   UNL     1       1.322   2.020   0.000  0.00  0.00    -0.389 OA
ATOM     27  H   UNL     1       1.851   1.738   0.759  0.00  0.00    +0.210 HD
ENDBRANCH  17  26
ENDBRANCH  15  17
ENDBRANCH   1  15
TORSDOF 8
