REMARK  Name = ZINC09671269
REMARK  8 active torsions:
REMARK  status: ('A' for Active; 'I' for Inactive)
REMARK    1  A    between atoms: C_1  and  C_2
REMARK    2  A    between atoms: C_2  and  O_3
REMARK    3  A    between atoms: O_3  and  C_4
REMARK    4  A    between atoms: C_7  and  N_19
REMARK    5  A    between atoms: C_9  and  S_10
REMARK    6  A    between atoms: S_10  and  N_13
REMARK    7  A    between atoms: N_19  and  S_20
REMARK    8  A    between atoms: S_20  and  C_23
REMARK                            x       y       z     vdW  Elec       q    Type
REMARK                         _______ _______ _______ _____ _____    ______ ____
ROOT
ATOM      1  C   UNL     1       3.449   3.878  -0.527  0.00  0.00    +0.147 A 
ATOM      2  C   UNL     1       3.467   2.742   0.269  0.00  0.00    +0.049 A 
ATOM      3  C   UNL     1       2.312   2.006   0.450  0.00  0.00    +0.028 A 
ATOM      4  C   UNL     1       1.135   2.399  -0.174  0.00  0.00    +0.050 A 
ATOM      5  C   UNL     1       1.117   3.536  -0.970  0.00  0.00    +0.056 A 
ATOM      6  C   UNL     1       2.272   4.273  -1.145  0.00  0.00    +0.149 A 
ENDROOT
BRANCH   6   7
ATOM      7  S   UNL     1       2.250   5.716  -2.156  0.00  0.00    +0.064 S 
ATOM      8  O   UNL     1       3.355   5.608  -3.043  0.00  0.00    -0.153 OA
ATOM      9  O   UNL     1       0.915   5.869  -2.618  0.00  0.00    -0.153 OA
BRANCH   7  10
ATOM     10  N   UNL     1       2.560   7.010  -1.170  0.00  0.00    -0.176 NA
ATOM     11  C   UNL     1       1.461   7.731  -0.513  0.00  0.00    +0.109 C 
ATOM     12  C   UNL     1       1.743   7.782   0.996  0.00  0.00    +0.017 C 
ATOM     13  C   UNL     1       3.126   8.396   1.230  0.00  0.00    +0.003 C 
ATOM     14  C   UNL     1       4.193   7.520   0.570  0.00  0.00    +0.017 C 
ATOM     15  C   UNL     1       3.939   7.462  -0.939  0.00  0.00    +0.109 C 
ENDBRANCH   7  10
ENDBRANCH   6   7
BRANCH   4  16
ATOM     16  N   UNL     1      -0.035   1.651   0.005  0.00  0.00    -0.216 N 
ATOM     17  H   UNL     1      -0.874   2.101   0.192  0.00  0.00    +0.174 HD
BRANCH  16  18
ATOM     18  S   UNL     1       0.013  -0.000  -0.109  0.00  0.00    +0.072 S 
ATOM     19  O   UNL     1       1.067  -0.436   0.738  0.00  0.00    -0.150 OA
ATOM     20  O   UNL     1      -1.325  -0.456   0.043  0.00  0.00    -0.150 OA
BRANCH  18  21
ATOM     21  C   UNL     1       0.494  -0.395  -1.757  0.00  0.00    +0.112 A 
ATOM     22  C   UNL     1      -0.457  -0.451  -2.759  0.00  0.00    +0.032 A 
ATOM     23  C   UNL     1      -0.086  -0.756  -4.056  0.00  0.00    +0.051 A 
ATOM     24  C   UNL     1       1.243  -1.014  -4.347  0.00  0.00    +0.162 A 
ATOM     25  C   UNL     1       2.198  -0.962  -3.341  0.00  0.00    +0.164 A 
ATOM     26  C   UNL     1       1.823  -0.653  -2.044  0.00  0.00    +0.078 A 
ATOM     27  O   UNL     1       3.505  -1.217  -3.638  0.00  0.00    -0.488 OA
ATOM     28  C   UNL     1       3.811  -2.565  -4.004  0.00  0.00    +0.232 C 
ATOM     29  C   UNL     1       3.546  -2.795  -5.483  0.00  0.00    +0.082 C 
ATOM     30  C   UNL     1       2.073  -2.659  -5.835  0.00  0.00    +0.232 C 
ATOM     31  O   UNL     1       1.623  -1.319  -5.621  0.00  0.00    -0.488 OA
ENDBRANCH  18  21
ENDBRANCH  16  18
ENDBRANCH   4  16
BRANCH   1  32
ATOM     32  O   UNL     1       4.585   4.604  -0.701  0.00  0.00    -0.490 OA
BRANCH  32  34
ATOM     33  C   UNL     1       6.928   5.077  -0.346  0.00  0.00    +0.048 C 
ATOM     34  C   UNL     1       5.761   4.139  -0.035  0.00  0.00    +0.226 C 
ENDBRANCH  32  34
ENDBRANCH   1  32
TORSDOF 7
