REMARK  Name = ZINC20285896
REMARK  11 active torsions:
REMARK  status: ('A' for Active; 'I' for Inactive)
REMARK    1  A    between atoms: C_1  and  C_2
REMARK    2  A    between atoms: C_2  and  C_28
REMARK    3  A    between atoms: C_4  and  N_10
REMARK    4  A    between atoms: C_6  and  C_8
REMARK    5  A    between atoms: C_6  and  C_9
REMARK    6  A    between atoms: N_10  and  C_11
REMARK    7  A    between atoms: C_11  and  N_13
REMARK    8  A    between atoms: N_13  and  C_14
REMARK    9  A    between atoms: N_13  and  C_21
REMARK   10  A    between atoms: C_14  and  C_15
REMARK   11  A    between atoms: C_21  and  C_22
REMARK                            x       y       z     vdW  Elec       q    Type
REMARK                         _______ _______ _______ _____ _____    ______ ____
ROOT
ATOM      1  C   UNL     1       0.113   5.703  -2.353  0.00  0.00    +0.134 C 
ATOM      2  S   UNL     1      -0.229   4.821  -3.780  0.00  0.00    -0.019 S 
ENDROOT
BRANCH   1   3
ATOM      3  N   UNL     1       0.389   5.051  -1.207  0.00  0.00    -0.324 N 
ATOM      4  H   UNL     1       0.608   5.617  -0.290  0.00  0.00    +0.148 HD
BRANCH   3   8
ATOM      5  C   UNL     1      -0.944   0.975  -2.269  0.00  0.00    -0.010 C 
ATOM      6  C   UNL     1      -1.042   1.551  -0.852  0.00  0.00    -0.072 C 
ATOM      7  C   UNL     1      -1.022   3.076  -0.918  0.00  0.00    +0.009 C 
ATOM      8  C   UNL     1       0.396   3.583  -1.181  0.00  0.00    +0.069 C 
ATOM      9  C   UNL     1       1.298   3.104  -0.042  0.00  0.00    +0.009 C 
ATOM     10  C   UNL     1       1.320   1.577  -0.002  0.00  0.00    -0.072 C 
ATOM     11  N   UNL     1      -0.012   1.005   0.008  0.00  0.00    +0.386 N 
ATOM     12  C   UNL     1       2.035   1.156   1.301  0.00  0.00    -0.010 C 
ATOM     13  C   UNL     1       2.151   1.041  -1.172  0.00  0.00    -0.010 C 
ATOM     14  C   UNL     1      -2.415   1.129  -0.282  0.00  0.00    -0.010 C 
ATOM     15  H   UNL     1      -0.328   1.088   1.058  0.00  0.00    -0.084 HD
ATOM     16  H   UNL     1       0.152  -0.053  -0.244  0.00  0.00    -0.084 HD
ENDBRANCH   3   8
ENDBRANCH   1   3
BRANCH   1  17
ATOM     17  N   UNL     1       0.106   7.051  -2.376  0.00  0.00    -0.304 N 
BRANCH  17  18
ATOM     18  C   UNL     1       0.398   7.806  -1.155  0.00  0.00    +0.142 C 
BRANCH  18  19
ATOM     19  C   UNL     1       1.880   8.066  -1.068  0.00  0.00    -0.030 A 
ATOM     20  C   UNL     1       2.704   7.162  -0.424  0.00  0.00    +0.005 A 
ATOM     21  C   UNL     1       4.064   7.399  -0.349  0.00  0.00    +0.000 A 
ATOM     22  C   UNL     1       4.599   8.544  -0.908  0.00  0.00    +0.000 A 
ATOM     23  C   UNL     1       3.774   9.450  -1.548  0.00  0.00    +0.000 A 
ATOM     24  C   UNL     1       2.415   9.211  -1.628  0.00  0.00    +0.005 A 
ENDBRANCH  18  19
ENDBRANCH  17  18
BRANCH  17  25
ATOM     25  C   UNL     1      -0.194   7.761  -3.622  0.00  0.00    +0.142 C 
BRANCH  25  26
ATOM     26  C   UNL     1      -1.678   8.002  -3.718  0.00  0.00    -0.030 A 
ATOM     27  C   UNL     1      -2.493   7.069  -4.331  0.00  0.00    +0.005 A 
ATOM     28  C   UNL     1      -3.855   7.288  -4.414  0.00  0.00    +0.000 A 
ATOM     29  C   UNL     1      -4.401   8.447  -3.894  0.00  0.00    +0.000 A 
ATOM     30  C   UNL     1      -3.586   9.383  -3.286  0.00  0.00    +0.000 A 
ATOM     31  C   UNL     1      -2.224   9.161  -3.198  0.00  0.00    +0.005 A 
ENDBRANCH  25  26
ENDBRANCH  17  25
ENDBRANCH   1  17
TORSDOF 7
