REMARK  Name = ZINC37381259
REMARK  4 active torsions:
REMARK  status: ('A' for Active; 'I' for Inactive)
REMARK    1  A    between atoms: C_5  and  S_7
REMARK    2  A    between atoms: S_7  and  C_8
REMARK    3  A    between atoms: C_8  and  C_9
REMARK    4  A    between atoms: C_13  and  C_15
REMARK                            x       y       z     vdW  Elec       q    Type
REMARK                         _______ _______ _______ _____ _____    ______ ____
ROOT
ATOM      1  C   UNL     1      -0.628  -4.412  -0.016  0.00  0.00    -0.037 A 
ATOM      2  C   UNL     1      -0.689  -5.094  -1.218  0.00  0.00    +0.004 A 
ATOM      3  C   UNL     1      -0.798  -6.473  -1.233  0.00  0.00    +0.001 A 
ATOM      4  C   UNL     1      -0.848  -7.177  -0.048  0.00  0.00    +0.011 A 
ATOM      5  C   UNL     1      -0.787  -6.496   1.168  0.00  0.00    +0.012 A 
ATOM      6  C   UNL     1      -0.670  -5.105   1.177  0.00  0.00    +0.015 A 
ENDROOT
BRANCH   5   7
ATOM      7  C   UNL     1      -0.840  -7.245   2.443  0.00  0.00    +0.094 C 
ATOM      8  N   UNL     1      -1.510  -8.393   2.513  0.00  0.00    -0.387 N 
ATOM      9  N   UNL     1      -0.218  -6.770   3.520  0.00  0.00    -0.345 N 
ATOM     10  H   UNL     1      -1.545  -8.884   3.349  0.00  0.00    +0.157 HD
ATOM     11  H   UNL     1       0.270  -5.933   3.469  0.00  0.00    +0.144 HD
ATOM     12  H   UNL     1      -0.252  -7.261   4.356  0.00  0.00    +0.144 HD
ATOM     13  H   UNL     1      -1.963  -8.739   1.729  0.00  0.00    +0.157 HD
ENDBRANCH   5   7
BRANCH   1  14
ATOM     14  C   UNL     1      -0.508  -2.910  -0.008  0.00  0.00    +0.109 C 
BRANCH  14  15
ATOM     15  S   UNL     1       1.244  -2.443  -0.023  0.00  0.00    -0.119 S 
BRANCH  15  20
ATOM     16  C   UNL     1      -0.017   1.377   0.010  0.00  0.00    +0.001 A 
ATOM     17  C   UNL     1       1.171   2.086   0.002  0.00  0.00    +0.001 A 
ATOM     18  C   UNL     1       2.380   1.417  -0.013  0.00  0.00    +0.016 A 
ATOM     19  C   UNL     1       2.407   0.035  -0.021  0.00  0.00    +0.031 A 
ATOM     20  C   UNL     1       1.216  -0.681  -0.013  0.00  0.00    +0.022 A 
ATOM     21  C   UNL     1       0.002  -0.004   0.002  0.00  0.00    +0.016 A 
ATOM     22 BR   UNL     1       4.062  -0.879  -0.043  0.00  0.00    -0.049 Br
ENDBRANCH  15  20
ENDBRANCH  14  15
ENDBRANCH   1  14
TORSDOF 4
