REMARK  Name = ZINC12247033
REMARK  11 active torsions:
REMARK  status: ('A' for Active; 'I' for Inactive)
REMARK    1  A    between atoms: C_1  and  N_76
REMARK    2  A    between atoms: C_2  and  N_76
REMARK    3  A    between atoms: C_3  and  C_4
REMARK    4  A    between atoms: C_3  and  N_76
REMARK    5  A    between atoms: C_4  and  N_5
REMARK    6  A    between atoms: N_5  and  C_6
REMARK    7  A    between atoms: C_6  and  C_7
REMARK    8  A    between atoms: C_13  and  C_15
REMARK    9  A    between atoms: N_18  and  C_21
REMARK   10  A    between atoms: N_29  and  C_32
REMARK   11  A    between atoms: C_32  and  C_33
REMARK                            x       y       z     vdW  Elec       q    Type
REMARK                         _______ _______ _______ _____ _____    ______ ____
ROOT
ATOM      1  C   UNL     1      -2.284  -0.186   0.808  0.00  0.00    +0.078 C 
ATOM      2  C   UNL     1      -2.422   0.225  -0.661  0.00  0.00    +0.031 C 
ATOM      3  C   UNL     1      -3.017  -0.938  -1.458  0.00  0.00    +0.106 C 
ATOM      4  N   UNL     1      -4.331  -1.291  -0.903  0.00  0.00    -0.329 N 
ATOM      5  C   UNL     1      -4.216  -1.735   0.492  0.00  0.00    +0.106 C 
ATOM      6  C   UNL     1      -3.657  -0.595   1.347  0.00  0.00    +0.031 C 
ENDROOT
BRANCH   4   7
ATOM      7  C   UNL     1      -4.956  -2.254  -1.682  0.00  0.00    +0.043 A 
ATOM      8  C   UNL     1      -4.241  -2.930  -2.674  0.00  0.00    +0.024 A 
ATOM      9  C   UNL     1      -4.859  -3.887  -3.448  0.00  0.00    +0.003 A 
ATOM     10  C   UNL     1      -6.200  -4.195  -3.256  0.00  0.00    +0.014 A 
ATOM     11  C   UNL     1      -6.926  -3.538  -2.278  0.00  0.00    +0.051 A 
ATOM     12  C   UNL     1      -6.300  -2.559  -1.476  0.00  0.00    +0.070 A 
ATOM     13  C   UNL     1      -7.339  -2.064  -0.558  0.00  0.00    +0.256 C 
ATOM     14  O   UNL     1      -7.185  -1.207   0.290  0.00  0.00    -0.269 OA
ATOM     15  N   UNL     1      -8.485  -2.721  -0.810  0.00  0.00    -0.232 N 
ATOM     16  C   UNL     1      -8.326  -3.607  -1.810  0.00  0.00    +0.254 C 
ATOM     17  O   UNL     1      -9.187  -4.340  -2.253  0.00  0.00    -0.270 OA
BRANCH  15  18
ATOM     18  C   UNL     1      -9.742  -2.501  -0.090  0.00  0.00    +0.148 C 
BRANCH  18  19
ATOM     19  C   UNL     1      -9.809  -3.439   1.117  0.00  0.00    +0.136 C 
ATOM     20  C   UNL     1     -11.178  -3.296   1.816  0.00  0.00    +0.035 C 
ATOM     21  C   UNL     1     -10.792  -3.379   3.318  0.00  0.00    +0.031 C 
ATOM     22  C   UNL     1      -9.409  -2.680   3.305  0.00  0.00    +0.160 C 
ATOM     23  O   UNL     1      -8.799  -3.079   2.068  0.00  0.00    -0.375 OA
ENDBRANCH  18  19
ENDBRANCH  15  18
ENDBRANCH   4   7
BRANCH   1  25
ATOM     24  N   UNL     1      -0.500   1.423   1.398  0.00  0.00    -0.299 N 
ATOM     25  C   UNL     1      -1.754   0.976   1.608  0.00  0.00    +0.219 C 
ATOM     26  O   UNL     1      -2.457   1.508   2.441  0.00  0.00    -0.275 OA
BRANCH  24  27
ATOM     27  C   UNL     1      -0.022   2.618   2.098  0.00  0.00    +0.089 C 
BRANCH  27  28
ATOM     28  C   UNL     1       0.486   2.227   3.487  0.00  0.00    -0.060 C 
BRANCH  28  31
ATOM     29  C   UNL     1       1.309   3.134   5.576  0.00  0.00    -0.097 C 
ATOM     30  C   UNL     1       2.232   3.904   3.474  0.00  0.00    -0.097 C 
ATOM     31  N   UNL     1       1.010   3.434   4.160  0.00  0.00    +0.377 N 
ATOM     32  H   UNL     1       0.299   4.174   4.119  0.00  0.00    -0.083 HD
ENDBRANCH  28  31
ENDBRANCH  27  28
ENDBRANCH  24  27
BRANCH  24  33
ATOM     33  C   UNL     1       0.385   0.714   0.471  0.00  0.00    +0.142 C 
BRANCH  33  34
ATOM     34  C   UNL     1       1.274  -0.225   1.244  0.00  0.00    -0.030 A 
ATOM     35  C   UNL     1       2.432   0.248   1.834  0.00  0.00    +0.005 A 
ATOM     36  C   UNL     1       3.245  -0.612   2.547  0.00  0.00    +0.000 A 
ATOM     37  C   UNL     1       2.906  -1.948   2.662  0.00  0.00    +0.000 A 
ATOM     38  C   UNL     1       1.752  -2.422   2.067  0.00  0.00    +0.000 A 
ATOM     39  C   UNL     1       0.936  -1.560   1.359  0.00  0.00    +0.005 A 
ENDBRANCH  33  34
ENDBRANCH  24  33
ENDBRANCH   1  25
TORSDOF 9
