REMARK  Name = ZINC36398127
REMARK  8 active torsions:
REMARK  status: ('A' for Active; 'I' for Inactive)
REMARK    1  A    between atoms: C_1  and  C_2
REMARK    2  A    between atoms: C_2  and  C_4
REMARK    3  A    between atoms: C_2  and  N_19
REMARK    4  A    between atoms: C_6  and  C_9
REMARK    5  A    between atoms: C_13  and  C_15
REMARK    6  A    between atoms: N_22  and  C_25
REMARK    7  A    between atoms: C_25  and  C_26
REMARK    8  A    between atoms: N_28  and  C_29
REMARK                            x       y       z     vdW  Elec       q    Type
REMARK                         _______ _______ _______ _____ _____    ______ ____
ROOT
ATOM      1  N   UNL     1       0.694  -0.527   1.183  0.00  0.00    -0.295 NA
ATOM      2  C   UNL     1       0.806  -1.993   1.173  0.00  0.00    +0.066 C 
ATOM      3  C   UNL     1       1.605  -2.449   2.396  0.00  0.00    -0.063 C 
ATOM      4  N   UNL     1       0.927  -2.000   3.619  0.00  0.00    +0.387 N 
ATOM      5  C   UNL     1       0.845  -0.533   3.626  0.00  0.00    -0.063 C 
ATOM      6  C   UNL     1       0.040  -0.062   2.414  0.00  0.00    +0.066 C 
ATOM      7  H   UNL     1      -0.003  -2.389   3.650  0.00  0.00    -0.081 HD
ENDROOT
BRANCH   1   9
ATOM      8  C   UNL     1      -0.035   1.484  -0.009  0.00  0.00    +0.034 C 
ATOM      9  C   UNL     1      -0.020  -0.046  -0.008  0.00  0.00    +0.143 C 
BRANCH   9  10
ATOM     10  C   UNL     1       0.679  -0.543  -1.247  0.00  0.00    +0.245 A 
ATOM     11  N   UNL     1       0.099  -1.056  -2.294  0.00  0.00    -0.190 NA
ATOM     12  C   UNL     1       1.021  -1.392  -3.214  0.00  0.00    +0.202 A 
ATOM     13  N   UNL     1       2.207  -1.087  -2.748  0.00  0.00    -0.056 NA
ATOM     14  O   UNL     1       2.001  -0.524  -1.461  0.00  0.00    -0.336 OA
BRANCH  12  15
ATOM     15  C   UNL     1       0.741  -2.005  -4.536  0.00  0.00    +0.023 A 
ATOM     16  C   UNL     1      -0.571  -2.276  -4.918  0.00  0.00    +0.012 A 
ATOM     17  C   UNL     1      -0.825  -2.846  -6.149  0.00  0.00    +0.001 A 
ATOM     18  C   UNL     1       0.220  -3.148  -7.003  0.00  0.00    +0.012 A 
ATOM     19  C   UNL     1       1.525  -2.881  -6.629  0.00  0.00    +0.055 A 
ATOM     20  C   UNL     1       1.790  -2.306  -5.403  0.00  0.00    +0.024 A 
BRANCH  19  21
ATOM     21  C   UNL     1       2.658  -3.213  -7.565  0.00  0.00    +0.417 C 
ATOM     22  F   UNL     1       2.145  -3.778  -8.738  0.00  0.00    -0.166 F 
ATOM     23  F   UNL     1       3.362  -2.046  -7.879  0.00  0.00    -0.166 F 
ATOM     24  F   UNL     1       3.521  -4.125  -6.947  0.00  0.00    -0.166 F 
ENDBRANCH  19  21
ENDBRANCH  12  15
ENDBRANCH   9  10
ENDBRANCH   1   9
BRANCH   4  25
ATOM     25  C   UNL     1       1.685  -2.453   4.793  0.00  0.00    +0.019 C 
BRANCH  25  26
ATOM     26  C   UNL     1       0.928  -2.100   6.047  0.00  0.00    +0.201 C 
ATOM     27  O   UNL     1      -0.138  -1.527   5.971  0.00  0.00    -0.278 OA
ATOM     28  N   UNL     1       1.436  -2.421   7.254  0.00  0.00    -0.285 N 
ATOM     29  H   UNL     1       2.256  -2.935   7.314  0.00  0.00    +0.155 HD
BRANCH  28  30
ATOM     30  C   UNL     1       0.779  -2.011   8.421  0.00  0.00    +0.072 A 
ATOM     31  C   UNL     1      -0.607  -1.948   8.454  0.00  0.00    +0.064 A 
ATOM     32  C   UNL     1      -1.252  -1.543   9.608  0.00  0.00    +0.125 A 
ATOM     33  C   UNL     1      -0.517  -1.201  10.731  0.00  0.00    +0.041 A 
ATOM     34  C   UNL     1       0.864  -1.263  10.701  0.00  0.00    +0.043 A 
ATOM     35  C   UNL     1       1.515  -1.672   9.552  0.00  0.00    +0.145 A 
ATOM     36  F   UNL     1       2.864  -1.738   9.525  0.00  0.00    -0.204 F 
ATOM     37  F   UNL     1      -2.602  -1.481   9.640  0.00  0.00    -0.205 F 
ENDBRANCH  28  30
ENDBRANCH  25  26
ENDBRANCH   4  25
TORSDOF 7
