REMARK  Name = ZINC22463615
REMARK  9 active torsions:
REMARK  status: ('A' for Active; 'I' for Inactive)
REMARK    1  A    between atoms: C_4  and  C_7
REMARK    2  A    between atoms: C_7  and  C_9
REMARK    3  A    between atoms: C_7  and  N_25
REMARK    4  A    between atoms: C_9  and  N_10
REMARK    5  A    between atoms: C_11  and  C_13
REMARK    6  A    between atoms: C_13  and  C_14
REMARK    7  A    between atoms: C_14  and  C_15
REMARK    8  A    between atoms: C_18  and  S_21
REMARK    9  A    between atoms: S_21  and  N_24
REMARK                            x       y       z     vdW  Elec       q    Type
REMARK                         _______ _______ _______ _____ _____    ______ ____
ROOT
ATOM      1  N   UNL     1      -0.012   0.945  -0.009  0.00  0.00    -0.317 N 
ATOM      2  C   UNL     1      -1.198   1.583   0.050  0.00  0.00    +0.213 C 
ATOM      3  O   UNL     1      -1.232   2.787   0.193  0.00  0.00    -0.276 OA
ATOM      4  H   UNL     1       0.019  -0.147  -0.135  0.00  0.00    +0.149 HD
ENDROOT
BRANCH   1   5
ATOM      5  C   UNL     1       1.235   1.707   0.093  0.00  0.00    +0.093 C 
BRANCH   5   6
ATOM      6  C   UNL     1       2.422   0.741   0.109  0.00  0.00    -0.020 C 
BRANCH   6  10
ATOM      7  C   UNL     1       2.663  -1.277  -3.649  0.00  0.00    +0.000 A 
ATOM      8  C   UNL     1       2.092  -1.909  -2.560  0.00  0.00    +0.000 A 
ATOM      9  C   UNL     1       2.014  -1.256  -1.344  0.00  0.00    +0.002 A 
ATOM     10  C   UNL     1       2.507   0.029  -1.217  0.00  0.00    -0.059 A 
ATOM     11  C   UNL     1       3.074   0.663  -2.307  0.00  0.00    +0.002 A 
ATOM     12  C   UNL     1       3.157   0.008  -3.521  0.00  0.00    +0.000 A 
ENDBRANCH   6  10
BRANCH   6  13
ATOM     13  N   UNL     1       3.662   1.494   0.341  0.00  0.00    +0.385 N 
ATOM     14  C   UNL     1       3.603   2.233   1.628  0.00  0.00    -0.078 C 
ATOM     15  C   UNL     1       5.095   2.502   1.951  0.00  0.00    -0.020 C 
ATOM     16  C   UNL     1       5.791   1.207   1.474  0.00  0.00    -0.020 C 
ATOM     17  C   UNL     1       4.822   0.582   0.452  0.00  0.00    -0.078 C 
ATOM     18  H   UNL     1       3.765   2.174  -0.517  0.00  0.00    -0.081 HD
ENDBRANCH   6  13
ENDBRANCH   5   6
ENDBRANCH   1   5
BRANCH   2  19
ATOM     19  C   UNL     1      -2.481   0.801  -0.062  0.00  0.00    +0.100 C 
BRANCH  19  20
ATOM     20  C   UNL     1      -3.671   1.757   0.035  0.00  0.00    +0.044 C 
BRANCH  20  21
ATOM     21  C   UNL     1      -4.955   0.975  -0.077  0.00  0.00    -0.047 A 
ATOM     22  C   UNL     1      -5.529   0.763  -1.316  0.00  0.00    +0.005 A 
ATOM     23  C   UNL     1      -6.704   0.041  -1.419  0.00  0.00    +0.029 A 
ATOM     24  C   UNL     1      -7.309  -0.460  -0.282  0.00  0.00    +0.105 A 
ATOM     25  C   UNL     1      -6.737  -0.244   0.958  0.00  0.00    +0.029 A 
ATOM     26  C   UNL     1      -5.560   0.474   1.060  0.00  0.00    +0.005 A 
BRANCH  24  27
ATOM     27  S   UNL     1      -8.808  -1.376  -0.413  0.00  0.00    +0.056 S 
ATOM     28  O   UNL     1      -8.847  -1.905  -1.732  0.00  0.00    -0.153 OA
ATOM     29  O   UNL     1      -8.882  -2.202   0.741  0.00  0.00    -0.153 OA
BRANCH  27  30
ATOM     30  N   UNL     1     -10.055  -0.292  -0.301  0.00  0.00    -0.204 NA
ATOM     31  H   UNL     1     -11.014  -0.827  -0.378  0.00  0.00    +0.144 HD
ATOM     32  H   UNL     1      -9.978   0.442  -1.116  0.00  0.00    +0.144 HD
ENDBRANCH  27  30
ENDBRANCH  24  27
ENDBRANCH  20  21
ENDBRANCH  19  20
ENDBRANCH   2  19
TORSDOF 9
