REMARK  Name = ZINC40001422
REMARK  15 active torsions:
REMARK  status: ('A' for Active; 'I' for Inactive)
REMARK    1  A    between atoms: C_1  and  C_2
REMARK    2  A    between atoms: C_2  and  C_3
REMARK    3  A    between atoms: C_3  and  C_5
REMARK    4  A    between atoms: C_3  and  N_36
REMARK    5  A    between atoms: C_9  and  S_19
REMARK    6  A    between atoms: N_10  and  C_11
REMARK    7  A    between atoms: C_14  and  O_17
REMARK    8  A    between atoms: O_17  and  C_18
REMARK    9  A    between atoms: S_19  and  C_20
REMARK   10  A    between atoms: C_20  and  C_22
REMARK   11  A    between atoms: C_20  and  C_23
REMARK   12  A    between atoms: C_23  and  C_25
REMARK   13  A    between atoms: C_33  and  C_35
REMARK   14  A    between atoms: N_36  and  C_37
REMARK   15  A    between atoms: N_36  and  C_38
REMARK                            x       y       z     vdW  Elec       q    Type
REMARK                         _______ _______ _______ _____ _____    ______ ____
ROOT
ATOM      1  C   UNL     1      -1.509  -2.004   0.324  0.00  0.00    +0.168 C 
ATOM      2  N   UNL     1      -2.826  -2.532  -0.073  0.00  0.00    -0.248 N 
ATOM      3  N   UNL     1      -2.620  -3.235  -1.267  0.00  0.00    -0.162 NA
ATOM      4  C   UNL     1      -1.383  -3.198  -1.629  0.00  0.00    +0.180 C 
ATOM      5  N   UNL     1      -0.601  -2.475  -0.735  0.00  0.00    -0.260 N 
ATOM      6  H   UNL     1      -3.666  -2.417   0.398  0.00  0.00    +0.170 HD
ENDROOT
BRANCH   5   7
ATOM      7  C   UNL     1       0.776  -2.240  -0.823  0.00  0.00    +0.038 A 
ATOM      8  C   UNL     1       1.633  -2.765   0.136  0.00  0.00    +0.027 A 
ATOM      9  C   UNL     1       2.991  -2.533   0.049  0.00  0.00    +0.047 A 
ATOM     10  C   UNL     1       3.500  -1.776  -0.996  0.00  0.00    +0.120 A 
ATOM     11  C   UNL     1       2.645  -1.251  -1.954  0.00  0.00    +0.047 A 
ATOM     12  C   UNL     1       1.287  -1.487  -1.872  0.00  0.00    +0.027 A 
BRANCH  10  13
ATOM     13  O   UNL     1       4.838  -1.547  -1.081  0.00  0.00    -0.495 OA
ATOM     14  C   UNL     1       5.293  -0.759  -2.183  0.00  0.00    +0.277 C 
ENDBRANCH  10  13
ENDBRANCH   5   7
BRANCH   1  15
ATOM     15  C   UNL     1      -1.535  -0.475   0.368  0.00  0.00    -0.029 C 
BRANCH  15  16
ATOM     16  N   UNL     1      -0.223   0.025   0.801  0.00  0.00    +0.380 N 
ATOM     17  C   UNL     1      -0.234   1.494   0.800  0.00  0.00    -0.096 C 
ATOM     18  C   UNL     1       0.064  -0.462   2.157  0.00  0.00    -0.096 C 
ATOM     19  H   UNL     1       0.489  -0.307   0.167  0.00  0.00    -0.082 HD
ENDBRANCH  15  16
BRANCH  15  21
ATOM     20  C   UNL     1      -3.288  -0.304  -1.403  0.00  0.00    +0.002 C 
ATOM     21  C   UNL     1      -1.854   0.070  -1.026  0.00  0.00    -0.015 C 
ENDBRANCH  15  21
ENDBRANCH   1  15
BRANCH   4  22
ATOM     22  S   UNL     1      -0.757  -3.974  -3.083  0.00  0.00    -0.077 S 
BRANCH  22  23
ATOM     23  C   UNL     1      -2.217  -4.750  -3.829  0.00  0.00    +0.122 C 
ATOM     24  C   UNL     1      -3.204  -3.666  -4.265  0.00  0.00    +0.028 C 
BRANCH  23  25
ATOM     25  C   UNL     1      -1.797  -5.560  -5.029  0.00  0.00    +0.175 C 
ATOM     26  O   UNL     1      -0.764  -5.294  -5.610  0.00  0.00    -0.291 OA
BRANCH  25  27
ATOM     27  C   UNL     1      -2.604  -6.627  -5.477  0.00  0.00    +0.027 C 
ATOM     28  C   UNL     1      -3.841  -7.004  -4.987  0.00  0.00    +0.006 A 
ATOM     29  C   UNL     1      -4.662  -6.495  -3.952  0.00  0.00    +0.010 A 
ATOM     30  C   UNL     1      -5.853  -7.074  -3.681  0.00  0.00    +0.001 A 
ATOM     31  C   UNL     1      -6.331  -8.185  -4.394  0.00  0.00    +0.002 A 
ATOM     32  C   UNL     1      -5.626  -8.746  -5.400  0.00  0.00    +0.026 A 
ATOM     33  C   UNL     1      -4.317  -8.177  -5.760  0.00  0.00    +0.043 A 
ATOM     34  N   UNL     1      -3.443  -8.511  -6.667  0.00  0.00    -0.377 N 
ATOM     35  C   UNL     1      -2.300  -7.596  -6.599  0.00  0.00    +0.111 C 
ATOM     36  C   UNL     1      -1.021  -8.377  -6.288  0.00  0.00    +0.035 C 
ATOM     37  H   UNL     1      -3.536  -9.247  -7.291  0.00  0.00    +0.160 HD
ENDBRANCH  25  27
ENDBRANCH  23  25
ENDBRANCH  22  23
ENDBRANCH   4  22
TORSDOF 9
