REMARK  Name = ZINC19789393
REMARK  10 active torsions:
REMARK  status: ('A' for Active; 'I' for Inactive)
REMARK    1  A    between atoms: C_1  and  C_2
REMARK    2  A    between atoms: C_2  and  O_3
REMARK    3  A    between atoms: O_3  and  C_4
REMARK    4  A    between atoms: C_8  and  N_10
REMARK    5  A    between atoms: C_14  and  C_15
REMARK    6  A    between atoms: C_17  and  N_25
REMARK    7  A    between atoms: C_18  and  O_23
REMARK    8  A    between atoms: C_20  and  O_21
REMARK    9  A    between atoms: O_21  and  C_22
REMARK   10  A    between atoms: O_23  and  C_24
REMARK                            x       y       z     vdW  Elec       q    Type
REMARK                         _______ _______ _______ _____ _____    ______ ____
ROOT
ATOM      1  N   UNL     1       0.165   3.010   6.426  0.00  0.00    -0.216 N 
ATOM      2  C   UNL     1       0.412   2.235   7.502  0.00  0.00    +0.262 C 
ATOM      3  O   UNL     1       1.500   1.713   7.660  0.00  0.00    -0.269 OA
ATOM      4  C   UNL     1      -0.672   2.038   8.483  0.00  0.00    +0.102 C 
ATOM      5  C   UNL     1      -0.492   1.257   9.612  0.00  0.00    +0.030 C 
ATOM      6  C   UNL     1      -1.956   2.711   8.208  0.00  0.00    +0.274 C 
ATOM      7  O   UNL     1      -2.897   2.595   8.970  0.00  0.00    -0.268 OA
ATOM      8  N   UNL     1      -2.058   3.456   7.089  0.00  0.00    -0.153 NA
ATOM      9  C   UNL     1      -1.027   3.595   6.243  0.00  0.00    +0.171 C 
ATOM     10  S   UNL     1      -1.247   4.567   4.851  0.00  0.00    -0.016 S 
ENDROOT
BRANCH   1  15
ATOM     11  C   UNL     1       2.193   2.678   3.372  0.00  0.00    +0.122 A 
ATOM     12  C   UNL     1       3.190   3.612   3.619  0.00  0.00    +0.046 A 
ATOM     13  C   UNL     1       3.175   4.348   4.788  0.00  0.00    +0.005 A 
ATOM     14  C   UNL     1       2.175   4.149   5.720  0.00  0.00    +0.024 A 
ATOM     15  C   UNL     1       1.178   3.212   5.481  0.00  0.00    +0.047 A 
ATOM     16  C   UNL     1       1.188   2.476   4.304  0.00  0.00    +0.069 A 
BRANCH  11  17
ATOM     17  O   UNL     1       2.206   1.959   2.219  0.00  0.00    -0.492 OA
BRANCH  17  19
ATOM     18  C   UNL     1       3.119   1.322   0.074  0.00  0.00    +0.048 C 
ATOM     19  C   UNL     1       3.272   2.220   1.303  0.00  0.00    +0.225 C 
ENDBRANCH  17  19
ENDBRANCH  11  17
ENDBRANCH   1  15
BRANCH   5  20
ATOM     20  C   UNL     1       0.652   0.430   9.726  0.00  0.00    +0.020 A 
ATOM     21  C   UNL     1       1.062  -0.363   8.641  0.00  0.00    +0.048 A 
ATOM     22  C   UNL     1       2.164  -1.157   8.754  0.00  0.00    +0.168 A 
ATOM     23  C   UNL     1       2.892  -1.189   9.942  0.00  0.00    +0.154 A 
ATOM     24  C   UNL     1       2.502  -0.414  11.025  0.00  0.00    +0.094 A 
ATOM     25  C   UNL     1       1.390   0.403  10.927  0.00  0.00    +0.131 A 
BRANCH  22  26
ATOM     26  N   UNL     1       2.591  -1.989   7.607  0.00  0.00    +0.060 N 
ATOM     27  O   UNL     1       1.894  -2.056   6.610  0.00  0.00    -0.126 OA
ATOM     28  O   UNL     1       3.639  -2.607   7.660  0.00  0.00    -0.126 OA
ENDBRANCH  22  26
BRANCH  25  29
ATOM     29  O   UNL     1       1.009   1.167  11.979  0.00  0.00    -0.494 OA
ATOM     30  C   UNL     1       1.806   1.086  13.162  0.00  0.00    +0.277 C 
ENDBRANCH  25  29
BRANCH  23  31
ATOM     31  O   UNL     1       3.986  -1.984  10.041  0.00  0.00    -0.493 OA
ATOM     32  C   UNL     1       4.688  -1.971  11.286  0.00  0.00    +0.277 C 
ENDBRANCH  23  31
ENDBRANCH   5  20
TORSDOF 7
