REMARK  Name = ZINC39939456
REMARK  9 active torsions:
REMARK  status: ('A' for Active; 'I' for Inactive)
REMARK    1  A    between atoms: C_4  and  C_7
REMARK    2  A    between atoms: C_7  and  C_8
REMARK    3  A    between atoms: N_11  and  C_14
REMARK    4  A    between atoms: C_17  and  N_35
REMARK    5  A    between atoms: C_19  and  C_20
REMARK    6  A    between atoms: C_20  and  O_22
REMARK    7  A    between atoms: O_22  and  C_23
REMARK    8  A    between atoms: C_23  and  C_24
REMARK    9  A    between atoms: C_24  and  C_26
REMARK                            x       y       z     vdW  Elec       q    Type
REMARK                         _______ _______ _______ _____ _____    ______ ____
ROOT
ATOM      1  C   UNL     1       7.205  -0.515   4.191  0.00  0.00    +0.044 A 
ATOM      2  C   UNL     1       7.339  -0.778   5.549  0.00  0.00    +0.026 A 
ATOM      3  C   UNL     1       8.510  -0.455   6.203  0.00  0.00    +0.034 A 
ATOM      4  C   UNL     1       9.559   0.133   5.514  0.00  0.00    +0.127 A 
ATOM      5  C   UNL     1       9.445   0.402   4.169  0.00  0.00    +0.049 A 
ATOM      6  C   UNL     1       8.268   0.075   3.490  0.00  0.00    +0.082 A 
ENDROOT
BRANCH   1  10
ATOM      7  C   UNL     1       3.429  -1.901   3.182  0.00  0.00    -0.004 C 
ATOM      8  C   UNL     1       4.632  -2.833   3.338  0.00  0.00    +0.023 C 
ATOM      9  C   UNL     1       5.891  -2.124   2.830  0.00  0.00    +0.105 C 
ATOM     10  N   UNL     1       6.027  -0.840   3.531  0.00  0.00    -0.329 N 
ATOM     11  C   UNL     1       4.893   0.094   3.520  0.00  0.00    +0.105 C 
ATOM     12  C   UNL     1       3.645  -0.639   4.021  0.00  0.00    +0.023 C 
BRANCH   7  13
ATOM     13  C   UNL     1       2.163  -2.618   3.657  0.00  0.00    +0.038 C 
BRANCH  13  17
ATOM     14  C   UNL     1       1.363  -5.943   1.098  0.00  0.00    +0.000 A 
ATOM     15  C   UNL     1       2.157  -6.108   2.217  0.00  0.00    +0.000 A 
ATOM     16  C   UNL     1       2.416  -5.032   3.045  0.00  0.00    +0.003 A 
ATOM     17  C   UNL     1       1.882  -3.791   2.754  0.00  0.00    -0.047 A 
ATOM     18  C   UNL     1       1.088  -3.626   1.634  0.00  0.00    +0.003 A 
ATOM     19  C   UNL     1       0.828  -4.702   0.807  0.00  0.00    +0.000 A 
ENDBRANCH  13  17
ENDBRANCH   7  13
ENDBRANCH   1  10
BRANCH   4  20
ATOM     20  N   UNL     1      10.809   0.475   6.230  0.00  0.00    +0.056 N 
ATOM     21  O   UNL     1      10.913   0.241   7.411  0.00  0.00    -0.126 OA
ATOM     22  O   UNL     1      11.727   0.988   5.633  0.00  0.00    -0.126 OA
ENDBRANCH   4  20
BRANCH   6  23
ATOM     23  C   UNL     1       8.141   0.353   2.049  0.00  0.00    +0.341 C 
ATOM     24  O   UNL     1       7.082   0.164   1.484  0.00  0.00    -0.245 OA
BRANCH  23  25
ATOM     25  O   UNL     1       9.200   0.818   1.357  0.00  0.00    -0.453 OA
BRANCH  25  26
ATOM     26  C   UNL     1       9.006   1.066  -0.037  0.00  0.00    +0.311 C 
BRANCH  26  27
ATOM     27  C   UNL     1      10.289   1.577  -0.640  0.00  0.00    +0.199 C 
ATOM     28  O   UNL     1      11.274   1.716   0.056  0.00  0.00    -0.289 OA
BRANCH  27  29
ATOM     29  C   UNL     1      10.346   1.895  -2.014  0.00  0.00    +0.026 C 
ATOM     30  C   UNL     1      11.438   2.366  -2.719  0.00  0.00    +0.006 A 
ATOM     31  C   UNL     1      12.768   2.670  -2.343  0.00  0.00    +0.010 A 
ATOM     32  C   UNL     1      13.648   3.127  -3.262  0.00  0.00    +0.001 A 
ATOM     33  C   UNL     1      13.300   3.321  -4.608  0.00  0.00    +0.002 A 
ATOM     34  C   UNL     1      12.058   3.062  -5.069  0.00  0.00    +0.026 A 
ATOM     35  C   UNL     1      11.037   2.560  -4.134  0.00  0.00    +0.043 A 
ATOM     36  N   UNL     1       9.788   2.235  -4.303  0.00  0.00    -0.380 N 
ATOM     37  C   UNL     1       9.226   1.785  -3.025  0.00  0.00    +0.152 C 
ATOM     38  H   UNL     1       9.305   2.279  -5.143  0.00  0.00    +0.160 HD
ENDBRANCH  27  29
ENDBRANCH  26  27
ENDBRANCH  25  26
ENDBRANCH  23  25
ENDBRANCH   6  23
TORSDOF 9
