REMARK  Name = ZINC49138163
REMARK  9 active torsions:
REMARK  status: ('A' for Active; 'I' for Inactive)
REMARK    1  A    between atoms: C_1  and  C_2
REMARK    2  A    between atoms: C_2  and  C_4
REMARK    3  A    between atoms: C_2  and  N_13
REMARK    4  A    between atoms: C_4  and  C_6
REMARK    5  A    between atoms: N_13  and  C_14
REMARK    6  A    between atoms: N_13  and  C_18
REMARK    7  A    between atoms: C_14  and  C_15
REMARK    8  A    between atoms: C_18  and  C_19
REMARK    9  A    between atoms: C_18  and  C_20
REMARK                            x       y       z     vdW  Elec       q    Type
REMARK                         _______ _______ _______ _____ _____    ______ ____
ROOT
ATOM      1  C   UNL     1       0.689   1.850  -0.331  0.00  0.00    -0.005 C 
ATOM      2  C   UNL     1       0.738   0.357   0.001  0.00  0.00    +0.002 C 
ENDROOT
BRANCH   2   3
ATOM      3  C   UNL     1       1.962   0.066   0.829  0.00  0.00    +0.150 C 
ATOM      4  O   UNL     1       2.951  -0.401   0.305  0.00  0.00    -0.294 OA
BRANCH   3   5
ATOM      5  C   UNL     1       1.958   0.349   2.272  0.00  0.00    +0.016 A 
ATOM      6  C   UNL     1       0.817   0.883   2.881  0.00  0.00    +0.012 A 
ATOM      7  C   UNL     1       0.821   1.145   4.234  0.00  0.00    +0.016 A 
ATOM      8  C   UNL     1       1.950   0.881   4.991  0.00  0.00    +0.018 A 
ATOM      9  C   UNL     1       3.084   0.353   4.396  0.00  0.00    +0.016 A 
ATOM     10  C   UNL     1       3.093   0.080   3.045  0.00  0.00    +0.012 A 
ATOM     11 BR   UNL     1       1.945   1.246   6.847  0.00  0.00    -0.050 Br
ENDBRANCH   3   5
ENDBRANCH   2   3
BRANCH   2  12
ATOM     12  N   UNL     1       0.793  -0.419  -1.245  0.00  0.00    +0.393 N 
ATOM     13  H   UNL     1       1.660  -0.226  -1.724  0.00  0.00    -0.080 HD
BRANCH  12  14
ATOM     14  C   UNL     1      -0.337  -0.044  -2.107  0.00  0.00    -0.073 C 
ATOM     15  C   UNL     1      -0.252  -0.818  -3.424  0.00  0.00    -0.013 C 
ATOM     16  C   UNL     1      -1.651  -0.383  -1.400  0.00  0.00    -0.013 C 
ENDBRANCH  12  14
BRANCH  12  17
ATOM     17  C   UNL     1       0.716  -1.852  -0.932  0.00  0.00    +0.020 C 
BRANCH  17  18
ATOM     18  C   UNL     1       1.285  -2.648  -2.079  0.00  0.00    +0.194 C 
ATOM     19  O   UNL     1       1.830  -2.079  -3.001  0.00  0.00    -0.278 OA
ATOM     20  N   UNL     1       1.188  -3.992  -2.080  0.00  0.00    -0.331 N 
ATOM     21  H   UNL     1       0.752  -4.448  -1.343  0.00  0.00    +0.145 HD
ATOM     22  H   UNL     1       1.554  -4.504  -2.818  0.00  0.00    +0.145 HD
ENDBRANCH  17  18
ENDBRANCH  12  17
ENDBRANCH   2  12
TORSDOF 6
