REMARK  Name = ZINC16556804
REMARK  11 active torsions:
REMARK  status: ('A' for Active; 'I' for Inactive)
REMARK    1  A    between atoms: C_1  and  C_2
REMARK    2  A    between atoms: C_2  and  N_3
REMARK    3  A    between atoms: N_3  and  C_4
REMARK    4  A    between atoms: N_3  and  C_18
REMARK    5  A    between atoms: C_4  and  C_5
REMARK    6  A    between atoms: N_7  and  C_8
REMARK    7  A    between atoms: C_11  and  N_14
REMARK    8  A    between atoms: C_15  and  C_17
REMARK    9  A    between atoms: C_18  and  C_20
REMARK   10  A    between atoms: C_18  and  C_21
REMARK   11  A    between atoms: N_23  and  C_24
REMARK                            x       y       z     vdW  Elec       q    Type
REMARK                         _______ _______ _______ _____ _____    ______ ____
ROOT
ATOM      1  N   UNL     1       0.137  -0.233  -0.901  0.00  0.00    +0.393 N 
ATOM      2  H   UNL     1      -0.306   0.036  -0.035  0.00  0.00    -0.080 HD
ENDROOT
BRANCH   1   4
ATOM      3  C   UNL     1       0.763  -2.322   0.211  0.00  0.00    -0.017 C 
ATOM      4  C   UNL     1       0.119  -1.696  -1.027  0.00  0.00    -0.081 C 
ENDBRANCH   1   4
BRANCH   1   5
ATOM      5  C   UNL     1       1.527   0.243  -0.909  0.00  0.00    +0.017 C 
ATOM      6  C   UNL     1       2.147  -0.018  -2.283  0.00  0.00    -0.004 C 
BRANCH   5   7
ATOM      7  C   UNL     1       1.554   1.721  -0.618  0.00  0.00    +0.200 C 
ATOM      8  O   UNL     1       0.522   2.310  -0.372  0.00  0.00    -0.278 OA
ATOM      9  N   UNL     1       2.724   2.389  -0.630  0.00  0.00    -0.311 N 
ATOM     10  H   UNL     1       3.549   1.919  -0.827  0.00  0.00    +0.149 HD
BRANCH   9  11
ATOM     11  C   UNL     1       2.750   3.826  -0.347  0.00  0.00    +0.035 C 
ATOM     12  C   UNL     1       2.195   4.080   1.056  0.00  0.00    +0.029 C 
ATOM     13  C   UNL     1       2.222   5.581   1.352  0.00  0.00    -0.008 C 
ATOM     14  C   UNL     1       3.663   6.090   1.273  0.00  0.00    +0.007 C 
ATOM     15  C   UNL     1       4.218   5.837  -0.130  0.00  0.00    -0.008 C 
ATOM     16  C   UNL     1       4.191   4.336  -0.425  0.00  0.00    +0.029 C 
ATOM     17  C   UNL     1       3.360   6.575  -1.159  0.00  0.00    +0.007 C 
ATOM     18  C   UNL     1       1.919   6.066  -1.081  0.00  0.00    -0.008 C 
ATOM     19  C   UNL     1       1.364   6.319   0.323  0.00  0.00    +0.007 C 
ATOM     20  C   UNL     1       1.892   4.565  -1.376  0.00  0.00    +0.029 C 
ENDBRANCH   9  11
ENDBRANCH   5   7
ENDBRANCH   1   5
BRANCH   1  21
ATOM     21  C   UNL     1      -0.591   0.365  -2.029  0.00  0.00    +0.020 C 
BRANCH  21  22
ATOM     22  C   UNL     1      -2.045  -0.025  -1.951  0.00  0.00    +0.201 C 
ATOM     23  O   UNL     1      -2.436  -0.730  -1.045  0.00  0.00    -0.278 OA
ATOM     24  N   UNL     1      -2.910   0.411  -2.888  0.00  0.00    -0.287 N 
ATOM     25  H   UNL     1      -2.612   1.030  -3.573  0.00  0.00    +0.155 HD
BRANCH  24  26
ATOM     26  C   UNL     1      -4.240  -0.028  -2.871  0.00  0.00    +0.033 A 
ATOM     27  C   UNL     1      -4.883  -0.253  -1.661  0.00  0.00    +0.025 A 
ATOM     28  C   UNL     1      -6.193  -0.686  -1.645  0.00  0.00    +0.025 A 
ATOM     29  C   UNL     1      -6.869  -0.898  -2.839  0.00  0.00    +0.033 A 
ATOM     30  C   UNL     1      -6.227  -0.673  -4.050  0.00  0.00    +0.025 A 
ATOM     31  C   UNL     1      -4.918  -0.235  -4.066  0.00  0.00    +0.025 A 
BRANCH  29  32
ATOM     32  N   UNL     1      -8.199  -1.338  -2.823  0.00  0.00    -0.286 N 
ATOM     33  C   UNL     1      -8.646  -2.169  -3.785  0.00  0.00    +0.214 C 
ATOM     34  O   UNL     1      -7.876  -2.606  -4.615  0.00  0.00    -0.276 OA
ATOM     35  C   UNL     1     -10.101  -2.555  -3.831  0.00  0.00    +0.109 C 
ATOM     36  H   UNL     1      -8.798  -1.044  -2.119  0.00  0.00    +0.155 HD
ENDBRANCH  29  32
ENDBRANCH  24  26
ENDBRANCH  21  22
ENDBRANCH   1  21
TORSDOF 8
