REMARK  Name = ZINC64197438
REMARK  9 active torsions:
REMARK  status: ('A' for Active; 'I' for Inactive)
REMARK    1  A    between atoms: C_1  and  C_2
REMARK    2  A    between atoms: C_2  and  C_3
REMARK    3  A    between atoms: C_2  and  C_4
REMARK    4  A    between atoms: C_4  and  C_6
REMARK    5  A    between atoms: C_4  and  N_15
REMARK    6  A    between atoms: C_16  and  C_18
REMARK    7  A    between atoms: C_18  and  S_19
REMARK    8  A    between atoms: S_19  and  C_20
REMARK    9  A    between atoms: N_25  and  C_26
REMARK                            x       y       z     vdW  Elec       q    Type
REMARK                         _______ _______ _______ _____ _____    ______ ____
ROOT
ATOM      1  N   UNL     1       0.709   0.123  -2.408  0.00  0.00    -0.308 N 
ATOM      2  C   UNL     1       1.181   1.354  -2.688  0.00  0.00    +0.223 C 
ATOM      3  O   UNL     1       1.793   1.974  -1.845  0.00  0.00    -0.275 OA
ATOM      4  H   UNL     1       0.219  -0.374  -3.082  0.00  0.00    +0.149 HD
ENDROOT
BRANCH   1   5
ATOM      5  C   UNL     1       0.936  -0.466  -1.086  0.00  0.00    +0.118 C 
BRANCH   5   6
ATOM      6  C   UNL     1       0.891  -1.991  -1.192  0.00  0.00    +0.195 C 
ATOM      7  N   UNL     1      -0.373  -2.417  -1.806  0.00  0.00    -0.362 N 
ATOM      8  C   UNL     1      -0.080  -3.055  -2.902  0.00  0.00    +0.060 A 
ATOM      9  C   UNL     1      -0.903  -3.706  -3.930  0.00  0.00    +0.027 A 
ATOM     10  C   UNL     1      -0.306  -4.302  -4.981  0.00  0.00    +0.002 A 
ATOM     11  C   UNL     1       1.090  -4.332  -5.144  0.00  0.00    +0.002 A 
ATOM     12  C   UNL     1       1.937  -3.766  -4.260  0.00  0.00    +0.027 A 
ATOM     13  C   UNL     1       1.399  -3.086  -3.074  0.00  0.00    +0.060 A 
ATOM     14  N   UNL     1       1.962  -2.467  -2.077  0.00  0.00    -0.362 N 
ATOM     15  H   UNL     1      -1.263  -2.253  -1.458  0.00  0.00    +0.162 HD
ATOM     16  H   UNL     1       2.915  -2.341  -1.944  0.00  0.00    +0.162 HD
ENDBRANCH   5   6
BRANCH   5  18
ATOM     17  C   UNL     1       0.056  -0.643   1.246  0.00  0.00    +0.009 C 
ATOM     18  C   UNL     1      -0.152   0.011  -0.122  0.00  0.00    +0.007 C 
ATOM     19  C   UNL     1      -0.075   1.532   0.024  0.00  0.00    +0.009 C 
ENDBRANCH   5  18
ENDBRANCH   1   5
BRANCH   2  20
ATOM     20  C   UNL     1       0.947   1.959  -4.048  0.00  0.00    +0.168 C 
BRANCH  20  21
ATOM     21  S   UNL     1       1.697   3.609  -4.113  0.00  0.00    -0.103 S 
BRANCH  21  22
ATOM     22  C   UNL     1       1.332   4.192  -5.791  0.00  0.00    +0.294 C 
ATOM     23  N   UNL     1      -0.117   4.179  -6.033  0.00  0.00    -0.135 NA
ATOM     24  N   UNL     1      -0.374   3.415  -6.964  0.00  0.00    -0.066 NA
ATOM     25  N   UNL     1       0.762   2.806  -7.499  0.00  0.00    -0.164 N 
ATOM     26  N   UNL     1       1.891   3.264  -6.791  0.00  0.00    -0.199 N 
ATOM     27  H   UNL     1       0.773   2.174  -8.235  0.00  0.00    +0.195 HD
BRANCH  26  28
ATOM     28  C   UNL     1       3.231   2.918  -6.988  0.00  0.00    +0.087 A 
ATOM     29  C   UNL     1       3.983   2.414  -5.935  0.00  0.00    +0.028 A 
ATOM     30  C   UNL     1       5.307   2.074  -6.133  0.00  0.00    +0.002 A 
ATOM     31  C   UNL     1       5.885   2.233  -7.379  0.00  0.00    +0.003 A 
ATOM     32  C   UNL     1       5.141   2.735  -8.431  0.00  0.00    +0.040 A 
ATOM     33  C   UNL     1       3.813   3.073  -8.242  0.00  0.00    +0.146 A 
ATOM     34  F   UNL     1       3.085   3.557  -9.271  0.00  0.00    -0.203 F 
ENDBRANCH  26  28
ENDBRANCH  21  22
ENDBRANCH  20  21
ENDBRANCH   2  20
TORSDOF 7
