REMARK  Name = ZINC37645694
REMARK  6 active torsions:
REMARK  status: ('A' for Active; 'I' for Inactive)
REMARK    1  A    between atoms: C_1  and  N_2
REMARK    2  A    between atoms: C_5  and  C_8
REMARK    3  A    between atoms: C_8  and  N_9
REMARK    4  A    between atoms: N_9  and  S_10
REMARK    5  A    between atoms: S_10  and  C_13
REMARK    6  A    between atoms: C_16  and  N_20
REMARK                            x       y       z     vdW  Elec       q    Type
REMARK                         _______ _______ _______ _____ _____    ______ ____
ROOT
ATOM      1  S   UNL     1       1.669  -5.552   2.069  0.00  0.00    +0.061 S 
ATOM      2  O   UNL     1       2.493  -6.515   1.426  0.00  0.00    -0.153 OA
ATOM      3  O   UNL     1       1.879  -5.148   3.415  0.00  0.00    -0.153 OA
ENDROOT
BRANCH   1   4
ATOM      4  C   UNL     1       0.018  -6.160   1.977  0.00  0.00    +0.133 A 
ATOM      5  C   UNL     1      -0.926  -5.736   2.895  0.00  0.00    +0.047 A 
ATOM      6  C   UNL     1      -2.222  -6.211   2.826  0.00  0.00    +0.040 A 
ATOM      7  C   UNL     1      -2.576  -7.115   1.833  0.00  0.00    +0.027 A 
ATOM      8  C   UNL     1      -1.627  -7.539   0.913  0.00  0.00    +0.040 A 
ATOM      9  C   UNL     1      -0.334  -7.056   0.984  0.00  0.00    +0.047 A 
ATOM     10 BR   UNL     1       0.958  -7.628  -0.274  0.00  0.00    -0.048 Br
ATOM     11 BR   UNL     1      -0.443  -4.504   4.247  0.00  0.00    -0.048 Br
BRANCH   7  12
ATOM     12  N   UNL     1      -3.885  -7.598   1.761  0.00  0.00    -0.358 N 
ATOM     13  H   UNL     1      -4.548  -7.301   2.405  0.00  0.00    +0.142 HD
ATOM     14  H   UNL     1      -4.131  -8.229   1.067  0.00  0.00    +0.142 HD
ENDBRANCH   7  12
ENDBRANCH   1   4
BRANCH   1  15
ATOM     15  N   UNL     1       1.738  -4.179   1.146  0.00  0.00    -0.190 NA
ATOM     16  H   UNL     1       2.289  -4.158   0.348  0.00  0.00    +0.148 HD
BRANCH  15  17
ATOM     17  C   UNL     1       0.965  -2.996   1.534  0.00  0.00    +0.107 C 
BRANCH  17  22
ATOM     18  C   UNL     1      -0.018   1.465   0.010  0.00  0.00    -0.096 C 
ATOM     19  N   UNL     1       0.002  -0.004   0.002  0.00  0.00    +0.378 N 
ATOM     20  C   UNL     1       0.770  -0.499  -1.169  0.00  0.00    -0.079 C 
ATOM     21  C   UNL     1       1.175  -1.934  -0.746  0.00  0.00    -0.016 C 
ATOM     22  C   UNL     1       1.476  -1.778   0.762  0.00  0.00    -0.014 C 
ATOM     23  C   UNL     1       0.715  -0.511   1.195  0.00  0.00    -0.075 C 
ATOM     24  H   UNL     1      -0.940  -0.365  -0.020  0.00  0.00    -0.082 HD
ENDBRANCH  17  22
ENDBRANCH  15  17
ENDBRANCH   1  15
TORSDOF 5
