REMARK  Name = ZINC22912969
REMARK  13 active torsions:
REMARK  status: ('A' for Active; 'I' for Inactive)
REMARK    1  A    between atoms: C_1  and  C_2
REMARK    2  A    between atoms: C_2  and  C_3
REMARK    3  A    between atoms: C_2  and  C_4
REMARK    4  A    between atoms: C_4  and  C_6
REMARK    5  A    between atoms: C_4  and  N_17
REMARK    6  A    between atoms: C_18  and  C_20
REMARK    7  A    between atoms: C_20  and  N_21
REMARK    8  A    between atoms: N_25  and  C_28
REMARK    9  A    between atoms: C_28  and  C_29
REMARK   10  A    between atoms: N_31  and  C_32
REMARK   11  A    between atoms: C_32  and  C_33
REMARK   12  A    between atoms: C_32  and  C_34
REMARK   13  A    between atoms: C_32  and  C_35
REMARK                            x       y       z     vdW  Elec       q    Type
REMARK                         _______ _______ _______ _____ _____    ______ ____
ROOT
ATOM      1  N   UNL     1       1.294   1.525   2.274  0.00  0.00    -0.307 N 
ATOM      2  C   UNL     1       2.273   0.813   1.682  0.00  0.00    +0.228 C 
ATOM      3  O   UNL     1       2.050  -0.309   1.281  0.00  0.00    -0.274 OA
ATOM      4  H   UNL     1       1.497   2.543   2.638  0.00  0.00    +0.149 HD
ENDROOT
BRANCH   1   5
ATOM      5  C   UNL     1      -0.041   0.943   2.432  0.00  0.00    +0.106 C 
BRANCH   5   6
ATOM      6  C   UNL     1      -0.742   1.601   3.592  0.00  0.00    -0.023 A 
ATOM      7  C   UNL     1      -0.614   2.963   3.792  0.00  0.00    +0.009 A 
ATOM      8  C   UNL     1      -1.254   3.575   4.855  0.00  0.00    +0.050 A 
ATOM      9  C   UNL     1      -2.024   2.816   5.721  0.00  0.00    +0.162 A 
ATOM     10  C   UNL     1      -2.152   1.449   5.520  0.00  0.00    +0.162 A 
ATOM     11  C   UNL     1      -1.516   0.842   4.452  0.00  0.00    +0.055 A 
ATOM     12  O   UNL     1      -2.913   0.711   6.379  0.00  0.00    -0.488 OA
ATOM     13  C   UNL     1      -4.321   0.956   6.336  0.00  0.00    +0.232 C 
ATOM     14  C   UNL     1      -4.688   2.144   7.210  0.00  0.00    +0.082 C 
ATOM     15  C   UNL     1      -4.086   3.445   6.701  0.00  0.00    +0.232 C 
ATOM     16  O   UNL     1      -2.660   3.406   6.774  0.00  0.00    -0.488 OA
ENDBRANCH   5   6
BRANCH   5  18
ATOM     17  C   UNL     1      -0.139   0.500  -0.025  0.00  0.00    +0.009 C 
ATOM     18  C   UNL     1      -0.851   1.169   1.153  0.00  0.00    +0.008 C 
ATOM     19  C   UNL     1      -2.245   0.561   1.318  0.00  0.00    +0.009 C 
ENDBRANCH   5  18
ENDBRANCH   1   5
BRANCH   2  20
ATOM     20  C   UNL     1       3.647   1.412   1.520  0.00  0.00    +0.180 C 
BRANCH  20  21
ATOM     21  N   UNL     1       4.527   0.444   0.851  0.00  0.00    -0.296 NA
ATOM     22  C   UNL     1       4.681  -0.782   1.664  0.00  0.00    +0.083 C 
ATOM     23  C   UNL     1       5.003  -1.931   0.742  0.00  0.00    -0.003 C 
ATOM     24  C   UNL     1       6.518  -2.139   0.584  0.00  0.00    -0.077 C 
ATOM     25  N   UNL     1       7.254  -0.861   0.454  0.00  0.00    +0.386 N 
ATOM     26  C   UNL     1       6.599   0.108  -0.396  0.00  0.00    -0.063 C 
ATOM     27  C   UNL     1       5.739   1.040   0.481  0.00  0.00    +0.066 C 
ATOM     28  H   UNL     1       7.260  -0.394   1.450  0.00  0.00    -0.081 HD
BRANCH  25  29
ATOM     29  C   UNL     1       8.638  -1.092   0.019  0.00  0.00    +0.019 C 
BRANCH  29  30
ATOM     30  C   UNL     1       8.636  -1.702  -1.359  0.00  0.00    +0.197 C 
ATOM     31  O   UNL     1       7.593  -1.828  -1.965  0.00  0.00    -0.278 OA
ATOM     32  N   UNL     1       9.794  -2.107  -1.918  0.00  0.00    -0.312 N 
ATOM     33  H   UNL     1      10.740  -1.992  -1.369  0.00  0.00    +0.149 HD
BRANCH  32  34
ATOM     34  C   UNL     1       9.792  -2.700  -3.258  0.00  0.00    +0.026 C 
ATOM     35  C   UNL     1       9.230  -1.691  -4.261  0.00  0.00    +0.031 C 
ATOM     36  C   UNL     1      11.223  -3.069  -3.654  0.00  0.00    +0.031 C 
ATOM     37  C   UNL     1       8.921  -3.958  -3.257  0.00  0.00    +0.031 C 
ENDBRANCH  32  34
ENDBRANCH  29  30
ENDBRANCH  25  29
ENDBRANCH  20  21
ENDBRANCH   2  20
TORSDOF 8
