REMARK  Name = ZINC49073912
REMARK  8 active torsions:
REMARK  status: ('A' for Active; 'I' for Inactive)
REMARK    1  A    between atoms: C_1  and  C_2
REMARK    2  A    between atoms: C_2  and  C_4
REMARK    3  A    between atoms: C_2  and  N_10
REMARK    4  A    between atoms: C_4  and  N_5
REMARK    5  A    between atoms: N_13  and  C_14
REMARK    6  A    between atoms: C_14  and  C_15
REMARK    7  A    between atoms: C_15  and  C_17
REMARK    8  A    between atoms: C_15  and  N_25
REMARK                            x       y       z     vdW  Elec       q    Type
REMARK                         _______ _______ _______ _____ _____    ______ ____
ROOT
ATOM      1  C   UNL     1      -0.019  -1.241   4.718  0.00  0.00    +0.095 C 
ENDROOT
BRANCH   1   5
ATOM      2  N   UNL     1      -2.105   1.784   4.849  0.00  0.00    -0.295 N 
ATOM      3  C   UNL     1      -1.535   0.642   4.415  0.00  0.00    +0.300 C 
ATOM      4  O   UNL     1      -1.830   0.191   3.325  0.00  0.00    -0.253 OA
ATOM      5  N   UNL     1      -0.638   0.000   5.190  0.00  0.00    -0.301 N 
ATOM      6  H   UNL     1      -1.870   2.143   5.719  0.00  0.00    +0.151 HD
ATOM      7  H   UNL     1      -0.403   0.359   6.060  0.00  0.00    +0.150 HD
BRANCH   2   9
ATOM      8  C   UNL     1      -4.468   1.877   4.226  0.00  0.00    +0.029 C 
ATOM      9  C   UNL     1      -3.080   2.482   4.007  0.00  0.00    +0.091 C 
BRANCH   9  10
ATOM     10  C   UNL     1      -3.105   3.966   4.379  0.00  0.00    +0.144 C 
BRANCH  10  11
ATOM     11  N   UNL     1      -1.811   4.571   4.057  0.00  0.00    -0.337 N 
ATOM     12  C   UNL     1      -0.725   4.655   4.886  0.00  0.00    +0.104 A 
ATOM     13  C   UNL     1       0.246   5.283   4.194  0.00  0.00    +0.101 A 
ATOM     14  N   UNL     1      -0.235   5.574   2.976  0.00  0.00    -0.352 N 
ATOM     15  C   UNL     1      -1.464   5.146   2.885  0.00  0.00    +0.173 A 
ATOM     16  H   UNL     1       0.256   6.027   2.272  0.00  0.00    +0.166 HD
ENDBRANCH  10  11
ENDBRANCH   9  10
ENDBRANCH   2   9
ENDBRANCH   1   5
BRANCH   1  17
ATOM     17  C   UNL     1       1.042  -1.695   5.723  0.00  0.00    -0.016 C 
BRANCH  17  18
ATOM     18  C   UNL     1       0.377  -2.064   7.024  0.00  0.00    -0.006 A 
ATOM     19  C   UNL     1      -0.319  -3.256   7.133  0.00  0.00    +0.126 A 
ATOM     20  C   UNL     1      -0.929  -3.594   8.329  0.00  0.00    +0.038 A 
ATOM     21  C   UNL     1      -0.845  -2.740   9.413  0.00  0.00    +0.004 A 
ATOM     22  C   UNL     1      -0.151  -1.550   9.304  0.00  0.00    +0.020 A 
ATOM     23  C   UNL     1       0.465  -1.214   8.111  0.00  0.00    +0.045 A 
ATOM     24 CL   UNL     1       1.342   0.278   7.978  0.00  0.00    -0.083 Cl
ATOM     25  F   UNL     1      -0.401  -4.090   6.073  0.00  0.00    -0.205 F 
ENDBRANCH  17  18
BRANCH  17  26
ATOM     26  N   UNL     1       1.754  -2.864   5.189  0.00  0.00    +0.385 N 
ATOM     27  C   UNL     1       2.589  -2.467   4.026  0.00  0.00    -0.078 C 
ATOM     28  C   UNL     1       3.651  -3.594   3.952  0.00  0.00    -0.020 C 
ATOM     29  C   UNL     1       3.936  -3.898   5.440  0.00  0.00    -0.020 C 
ATOM     30  C   UNL     1       2.695  -3.393   6.199  0.00  0.00    -0.078 C 
ATOM     31  H   UNL     1       1.096  -3.579   4.918  0.00  0.00    -0.081 HD
ENDBRANCH  17  26
ENDBRANCH   1  17
TORSDOF 7
