REMARK  Name = ZINC01078311
REMARK  9 active torsions:
REMARK  status: ('A' for Active; 'I' for Inactive)
REMARK    1  A    between atoms: C_4  and  C_7
REMARK    2  A    between atoms: C_7  and  C_8
REMARK    3  A    between atoms: C_8  and  N_9
REMARK    4  A    between atoms: C_10  and  N_28
REMARK    5  A    between atoms: C_15  and  S_16
REMARK    6  A    between atoms: S_16  and  C_17
REMARK    7  A    between atoms: C_17  and  C_18
REMARK    8  A    between atoms: N_20  and  C_21
REMARK    9  A    between atoms: C_21  and  C_22
REMARK                            x       y       z     vdW  Elec       q    Type
REMARK                         _______ _______ _______ _____ _____    ______ ____
ROOT
ATOM      1  N   UNL     1       5.450  -1.678   1.382  0.00  0.00    -0.310 N 
ATOM      2  C   UNL     1       5.466  -3.049   1.369  0.00  0.00    +0.103 A 
ATOM      3  C   UNL     1       6.667  -3.698   1.353  0.00  0.00    +0.111 A 
ATOM      4  C   UNL     1       7.852  -2.936   1.350  0.00  0.00    +0.254 A 
ATOM      5  O   UNL     1       8.940  -3.494   1.335  0.00  0.00    -0.268 OA
ATOM      6  N   UNL     1       7.782  -1.596   1.363  0.00  0.00    -0.303 N 
ATOM      7  C   UNL     1       6.619  -0.979   1.373  0.00  0.00    +0.151 A 
ATOM      8  H   UNL     1       8.600  -1.074   1.361  0.00  0.00    +0.171 HD
ENDROOT
BRANCH   2   9
ATOM      9  N   UNL     1       4.288  -3.760   1.373  0.00  0.00    -0.344 N 
ATOM     10  H   UNL     1       3.439  -3.292   1.385  0.00  0.00    +0.144 HD
ATOM     11  H   UNL     1       4.308  -4.730   1.364  0.00  0.00    +0.144 HD
ENDBRANCH   2   9
BRANCH   1  12
ATOM     12  C   UNL     1       4.171  -0.963   1.399  0.00  0.00    +0.130 C 
BRANCH  12  13
ATOM     13  C   UNL     1       3.711  -0.707  -0.038  0.00  0.00    +0.057 C 
BRANCH  13  17
ATOM     14  C   UNL     1      -0.017   1.378   0.010  0.00  0.00    +0.000 A 
ATOM     15  C   UNL     1       1.171   2.086   0.002  0.00  0.00    +0.000 A 
ATOM     16  C   UNL     1       2.377   1.411  -0.013  0.00  0.00    +0.004 A 
ATOM     17  C   UNL     1       2.396   0.029  -0.020  0.00  0.00    -0.046 A 
ATOM     18  C   UNL     1       1.208  -0.679  -0.012  0.00  0.00    +0.004 A 
ATOM     19  C   UNL     1       0.002  -0.004   0.002  0.00  0.00    +0.000 A 
ENDBRANCH  13  17
ENDBRANCH  12  13
ENDBRANCH   1  12
BRANCH   7  20
ATOM     20  S   UNL     1       6.574   0.782   1.383  0.00  0.00    -0.080 S 
BRANCH  20  21
ATOM     21  C   UNL     1       8.322   1.266   1.367  0.00  0.00    +0.173 C 
BRANCH  21  22
ATOM     22  C   UNL     1       8.427   2.770   1.374  0.00  0.00    +0.224 C 
ATOM     23  O   UNL     1       7.422   3.448   1.388  0.00  0.00    -0.275 OA
ATOM     24  N   UNL     1       9.639   3.361   1.364  0.00  0.00    -0.311 N 
ATOM     25  H   UNL     1      10.443   2.818   1.353  0.00  0.00    +0.149 HD
BRANCH  24  26
ATOM     26  C   UNL     1       9.741   4.822   1.371  0.00  0.00    +0.139 C 
BRANCH  26  27
ATOM     27  C   UNL     1      11.193   5.224   1.357  0.00  0.00    -0.030 A 
ATOM     28  C   UNL     1      11.873   5.396   2.548  0.00  0.00    +0.005 A 
ATOM     29  C   UNL     1      13.206   5.765   2.536  0.00  0.00    +0.000 A 
ATOM     30  C   UNL     1      13.857   5.961   1.333  0.00  0.00    +0.000 A 
ATOM     31  C   UNL     1      13.177   5.788   0.142  0.00  0.00    +0.000 A 
ATOM     32  C   UNL     1      11.846   5.415   0.154  0.00  0.00    +0.005 A 
ENDBRANCH  26  27
ENDBRANCH  24  26
ENDBRANCH  21  22
ENDBRANCH  20  21
ENDBRANCH   7  20
TORSDOF 9
