REMARK  Name = ZINC05377842
REMARK  7 active torsions:
REMARK  status: ('A' for Active; 'I' for Inactive)
REMARK    1  A    between atoms: C_1  and  C_2
REMARK    2  A    between atoms: C_2  and  C_3
REMARK    3  A    between atoms: C_3  and  N_5
REMARK    4  A    between atoms: N_7  and  C_18
REMARK    5  A    between atoms: C_19  and  C_26
REMARK    6  A    between atoms: C_21  and  C_25
REMARK    7  A    between atoms: C_23  and  C_24
REMARK                            x       y       z     vdW  Elec       q    Type
REMARK                         _______ _______ _______ _____ _____    ______ ____
ROOT
ATOM      1  N   UNL     1      -0.284  -0.189  -2.323  0.00  0.00    -0.159 NA
ATOM      2  C   UNL     1      -0.185  -0.697  -1.101  0.00  0.00    +0.154 C 
ATOM      3  N   UNL     1      -0.046  -0.004   0.057  0.00  0.00    -0.275 N 
ATOM      4  C   UNL     1       0.092  -0.712   1.316  0.00  0.00    +0.116 C 
ATOM      5  C   UNL     1       1.411  -0.280   2.000  0.00  0.00    +0.190 C 
ATOM      6  S   UNL     1       1.938  -1.843   2.824  0.00  0.00    -0.028 S 
ATOM      7  O   UNL     1       1.254  -1.976   4.063  0.00  0.00    -0.174 OA
ATOM      8  O   UNL     1       3.355  -1.942   2.787  0.00  0.00    -0.174 OA
ATOM      9  C   UNL     1       1.211  -3.014   1.596  0.00  0.00    +0.182 C 
ATOM     10  C   UNL     1      -0.035  -2.229   1.143  0.00  0.00    +0.097 C 
ATOM     11  S   UNL     1      -0.205  -2.374  -0.674  0.00  0.00    -0.086 S 
ENDROOT
BRANCH   3  12
ATOM     12  C   UNL     1      -0.041   1.394   0.037  0.00  0.00    +0.042 A 
ATOM     13  C   UNL     1      -1.182   2.100   0.395  0.00  0.00    -0.029 A 
ATOM     14  C   UNL     1      -1.172   3.481   0.381  0.00  0.00    +0.008 A 
ATOM     15  C   UNL     1      -0.031   4.161  -0.002  0.00  0.00    -0.050 A 
ATOM     16  C   UNL     1       1.106   3.462  -0.365  0.00  0.00    +0.008 A 
ATOM     17  C   UNL     1       1.104   2.081  -0.347  0.00  0.00    -0.029 A 
ATOM     18  C   UNL     1       2.343   1.320  -0.742  0.00  0.00    +0.046 C 
ATOM     19  C   UNL     1      -0.025   5.668  -0.023  0.00  0.00    +0.044 C 
ATOM     20  C   UNL     1      -2.429   1.359   0.806  0.00  0.00    +0.046 C 
ENDBRANCH   3  12
BRANCH   1  21
ATOM     21  C   UNL     1      -0.417  -0.998  -3.372  0.00  0.00    +0.238 C 
ATOM     22  O   UNL     1      -0.448  -2.202  -3.210  0.00  0.00    -0.274 OA
BRANCH  21  24
ATOM     23  C   UNL     1      -0.673  -1.556  -5.774  0.00  0.00    +0.013 C 
ATOM     24  C   UNL     1      -0.530  -0.420  -4.759  0.00  0.00    +0.094 C 
ENDBRANCH  21  24
ENDBRANCH   1  21
TORSDOF 3
