REMARK  Name = ZINC03529277
REMARK  11 active torsions:
REMARK  status: ('A' for Active; 'I' for Inactive)
REMARK    1  A    between atoms: C_3  and  S_29
REMARK    2  A    between atoms: C_6  and  C_7
REMARK    3  A    between atoms: C_7  and  C_8
REMARK    4  A    between atoms: C_8  and  N_9
REMARK    5  A    between atoms: C_10  and  C_12
REMARK    6  A    between atoms: C_12  and  O_13
REMARK    7  A    between atoms: O_13  and  C_14
REMARK    8  A    between atoms: C_14  and  C_16
REMARK    9  A    between atoms: C_19  and  C_22
REMARK   10  A    between atoms: C_25  and  O_28
REMARK   11  A    between atoms: S_29  and  N_32
REMARK                            x       y       z     vdW  Elec       q    Type
REMARK                         _______ _______ _______ _____ _____    ______ ____
ROOT
ATOM      1  N   UNL     1       4.806   1.562  -0.035  0.00  0.00    -0.312 N 
ATOM      2  C   UNL     1       3.554   2.060  -0.021  0.00  0.00    +0.251 C 
ATOM      3  O   UNL     1       3.379   3.260  -0.013  0.00  0.00    -0.272 OA
ATOM      4  H   UNL     1       4.946   0.602  -0.042  0.00  0.00    +0.149 HD
ENDROOT
BRANCH   1   5
ATOM      5  C   UNL     1       5.956   2.470  -0.042  0.00  0.00    +0.109 C 
BRANCH   5   6
ATOM      6  C   UNL     1       7.250   1.655  -0.058  0.00  0.00    +0.054 C 
BRANCH   6  12
ATOM      7  C   UNL     1       8.967   3.019  -1.265  0.00  0.00    +0.005 A 
ATOM      8  C   UNL     1      10.049   3.880  -1.270  0.00  0.00    +0.029 A 
ATOM      9  C   UNL     1      10.602   4.302  -0.076  0.00  0.00    +0.105 A 
ATOM     10  C   UNL     1      10.071   3.868   1.124  0.00  0.00    +0.029 A 
ATOM     11  C   UNL     1       8.986   3.011   1.130  0.00  0.00    +0.005 A 
ATOM     12  C   UNL     1       8.433   2.589  -0.065  0.00  0.00    -0.046 A 
BRANCH   9  13
ATOM     13  S   UNL     1      11.984   5.396  -0.083  0.00  0.00    +0.056 S 
ATOM     14  O   UNL     1      11.950   6.085  -1.325  0.00  0.00    -0.153 OA
ATOM     15  O   UNL     1      11.972   6.074   1.165  0.00  0.00    -0.153 OA
BRANCH  13  16
ATOM     16  N   UNL     1      13.350   4.459  -0.100  0.00  0.00    -0.204 NA
ATOM     17  H   UNL     1      14.157   4.786  -0.526  0.00  0.00    +0.144 HD
ATOM     18  H   UNL     1      13.342   3.582   0.316  0.00  0.00    +0.144 HD
ENDBRANCH  13  16
ENDBRANCH   9  13
ENDBRANCH   6  12
ENDBRANCH   5   6
ENDBRANCH   1   5
BRANCH   2  19
ATOM     19  C   UNL     1       2.372   1.126  -0.015  0.00  0.00    +0.328 C 
BRANCH  19  20
ATOM     20  O   UNL     1       1.143   1.900   0.001  0.00  0.00    -0.452 OA
BRANCH  20  21
ATOM     21  C   UNL     1      -0.014   1.211   0.009  0.00  0.00    +0.340 C 
ATOM     22  O   UNL     1       0.002  -0.004   0.002  0.00  0.00    -0.245 OA
BRANCH  21  23
ATOM     23  C   UNL     1      -1.302   1.931   0.019  0.00  0.00    +0.059 A 
ATOM     24  C   UNL     1      -1.322   3.329   0.032  0.00  0.00    +0.015 A 
ATOM     25  C   UNL     1      -2.523   3.999   0.037  0.00  0.00    +0.009 A 
ATOM     26  C   UNL     1      -3.722   3.285   0.038  0.00  0.00    -0.018 A 
ATOM     27  C   UNL     1      -3.704   1.889   0.030  0.00  0.00    +0.009 A 
ATOM     28  C   UNL     1      -2.503   1.216   0.021  0.00  0.00    +0.015 A 
BRANCH  26  29
ATOM     29  C   UNL     1      -5.015   4.008   0.048  0.00  0.00    -0.018 A 
ATOM     30  C   UNL     1      -6.215   3.296   0.044  0.00  0.00    +0.012 A 
ATOM     31  C   UNL     1      -7.416   3.972   0.059  0.00  0.00    +0.046 A 
ATOM     32  C   UNL     1      -7.433   5.361   0.067  0.00  0.00    +0.117 A 
ATOM     33  C   UNL     1      -6.241   6.073   0.065  0.00  0.00    +0.046 A 
ATOM     34  C   UNL     1      -5.036   5.403   0.056  0.00  0.00    +0.012 A 
BRANCH  32  35
ATOM     35  O   UNL     1      -8.618   6.024   0.076  0.00  0.00    -0.507 OA
ATOM     36  H   UNL     1      -8.966   6.221  -0.804  0.00  0.00    +0.292 HD
ENDBRANCH  32  35
ENDBRANCH  26  29
ENDBRANCH  21  23
ENDBRANCH  20  21
ENDBRANCH  19  20
ENDBRANCH   2  19
TORSDOF 11
