REMARK  Name = ZINC42399437
REMARK  7 active torsions:
REMARK  status: ('A' for Active; 'I' for Inactive)
REMARK    1  A    between atoms: C_1  and  C_2
REMARK    2  A    between atoms: C_3  and  C_21
REMARK    3  A    between atoms: C_7  and  C_8
REMARK    4  A    between atoms: N_9  and  O_10
REMARK    5  A    between atoms: N_12  and  C_13
REMARK    6  A    between atoms: N_12  and  C_14
REMARK    7  A    between atoms: C_14  and  C_15
REMARK                            x       y       z     vdW  Elec       q    Type
REMARK                         _______ _______ _______ _____ _____    ______ ____
ROOT
ATOM      1  C   UNL     1       0.072   1.501   0.047  0.00  0.00    +0.046 C 
ATOM      2  C   UNL     1       0.046  -0.005   0.019  0.00  0.00    -0.016 A 
ATOM      3  C   UNL     1      -0.050  -0.696  -1.178  0.00  0.00    +0.035 A 
ATOM      4  N   UNL     1      -0.071  -2.015  -1.181  0.00  0.00    -0.280 N 
ATOM      5  N   UNL     1      -0.007  -2.711  -0.106  0.00  0.00    -0.158 NA
ATOM      6  C   UNL     1       0.087  -2.152   1.092  0.00  0.00    +0.152 A 
ATOM      7  C   UNL     1       0.123  -0.750   1.201  0.00  0.00    +0.064 A 
ATOM      8  N   UNL     1       0.154  -2.943   2.228  0.00  0.00    -0.311 N 
ATOM      9  C   UNL     1       1.455  -3.392   2.732  0.00  0.00    +0.131 C 
ATOM     10  C   UNL     1      -0.129   0.061  -2.478  0.00  0.00    +0.065 C 
ATOM     11  H   UNL     1      -0.139  -2.477  -2.032  0.00  0.00    +0.189 HD
ENDROOT
BRANCH   7  12
ATOM     12  C   UNL     1       0.233  -0.087   2.519  0.00  0.00    +0.166 C 
ATOM     13  N   UNL     1      -0.841   0.179   3.205  0.00  0.00    -0.071 NA
ATOM     14  N   UNL     1       1.478   0.251   3.022  0.00  0.00    -0.340 N 
ATOM     15  H   UNL     1       2.278   0.053   2.511  0.00  0.00    +0.144 HD
ATOM     16  H   UNL     1       1.550   0.686   3.886  0.00  0.00    +0.144 HD
BRANCH  13  17
ATOM     17  O   UNL     1      -0.736   0.814   4.466  0.00  0.00    -0.408 OA
ATOM     18  H   UNL     1      -1.586   0.970   4.900  0.00  0.00    +0.328 HD
ENDBRANCH  13  17
ENDBRANCH   7  12
BRANCH   8  19
ATOM     19  C   UNL     1      -1.075  -3.330   2.925  0.00  0.00    +0.148 C 
BRANCH  19  20
ATOM     20  C   UNL     1      -1.586  -4.629   2.358  0.00  0.00    +0.008 A 
ATOM     21  C   UNL     1      -1.311  -5.898   2.747  0.00  0.00    +0.028 A 
ATOM     22  C   UNL     1      -1.903  -6.950   2.072  0.00  0.00    +0.025 A 
ATOM     23  C   UNL     1      -2.740  -6.681   1.040  0.00  0.00    +0.060 A 
ATOM     24  S   UNL     1      -2.718  -4.896   1.003  0.00  0.00    -0.099 S 
ATOM     25 BR   UNL     1      -1.548  -8.737   2.579  0.00  0.00    -0.050 Br
ENDBRANCH  19  20
ENDBRANCH   8  19
TORSDOF 4
