REMARK  Name = ZINC61595149
REMARK  10 active torsions:
REMARK  status: ('A' for Active; 'I' for Inactive)
REMARK    1  A    between atoms: C_1  and  C_2
REMARK    2  A    between atoms: C_2  and  C_3
REMARK    3  A    between atoms: C_3  and  C_5
REMARK    4  A    between atoms: C_3  and  N_24
REMARK    5  A    between atoms: C_5  and  C_7
REMARK    6  A    between atoms: C_5  and  S_13
REMARK    7  A    between atoms: S_13  and  C_14
REMARK    8  A    between atoms: N_20  and  C_21
REMARK    9  A    between atoms: C_21  and  C_22
REMARK   10  A    between atoms: C_21  and  C_23
REMARK                            x       y       z     vdW  Elec       q    Type
REMARK                         _______ _______ _______ _____ _____    ______ ____
ROOT
ATOM      1  C   UNL     1      -1.367  -2.032  -0.116  0.00  0.00    +0.076 C 
ENDROOT
BRANCH   1   2
ATOM      2  C   UNL     1      -0.708  -2.577  -1.356  0.00  0.00    +0.003 A 
ATOM      3  C   UNL     1       0.439  -3.292  -1.469  0.00  0.00    +0.027 A 
ATOM      4  C   UNL     1       0.858  -3.692  -2.724  0.00  0.00    +0.025 A 
ATOM      5  C   UNL     1       0.110  -3.359  -3.804  0.00  0.00    +0.060 A 
ATOM      6  S   UNL     1      -1.238  -2.458  -3.056  0.00  0.00    -0.099 S 
ATOM      7 BR   UNL     1       2.451  -4.690  -2.930  0.00  0.00    -0.050 Br
ENDBRANCH   1   2
BRANCH   1   8
ATOM      8  C   UNL     1      -1.478  -0.509  -0.225  0.00  0.00    -0.057 C 
BRANCH   8   9
ATOM      9  N   UNL     1      -0.153   0.059  -0.506  0.00  0.00    +0.381 N 
ATOM     10  H   UNL     1      -0.208   1.066  -0.487  0.00  0.00    -0.090 HD
ATOM     11  H   UNL     1       0.503  -0.256   0.193  0.00  0.00    -0.090 HD
ATOM     12  H   UNL     1       0.156  -0.244  -1.418  0.00  0.00    -0.090 HD
ENDBRANCH   8   9
BRANCH   8  14
ATOM     13  C   UNL     1      -2.647   1.368  -1.388  0.00  0.00    +0.002 C 
ATOM     14  C   UNL     1      -2.439  -0.148  -1.359  0.00  0.00    -0.018 C 
ENDBRANCH   8  14
ENDBRANCH   1   8
BRANCH   1  15
ATOM     15  S   UNL     1      -3.026  -2.748   0.052  0.00  0.00    -0.079 S 
BRANCH  15  16
ATOM     16  C   UNL     1      -3.550  -2.237   1.655  0.00  0.00    +0.193 A 
ATOM     17  N   UNL     1      -2.824  -1.591   2.522  0.00  0.00    -0.145 NA
ATOM     18  N   UNL     1      -3.604  -1.375   3.666  0.00  0.00    -0.226 N 
ATOM     19  H   UNL     1      -3.324  -0.918   4.474  0.00  0.00    +0.194 HD
ATOM     20  C   UNL     1      -4.817  -1.919   3.436  0.00  0.00    +0.345 A 
ATOM     21  O   UNL     1      -5.761  -1.926   4.207  0.00  0.00    -0.245 OA
ATOM     22  N   UNL     1      -4.798  -2.449   2.197  0.00  0.00    -0.268 N 
BRANCH  22  23
ATOM     23  C   UNL     1      -5.913  -3.136   1.540  0.00  0.00    +0.088 C 
ATOM     24  C   UNL     1      -6.320  -4.355   2.370  0.00  0.00    +0.031 C 
ATOM     25  C   UNL     1      -7.101  -2.180   1.421  0.00  0.00    +0.031 C 
ENDBRANCH  22  23
ENDBRANCH  15  16
ENDBRANCH   1  15
TORSDOF 7
