REMARK  Name = ZINC33114808
REMARK  5 active torsions:
REMARK  status: ('A' for Active; 'I' for Inactive)
REMARK    1  A    between atoms: C_1  and  O_2
REMARK    2  A    between atoms: O_2  and  C_3
REMARK    3  A    between atoms: C_7  and  C_9
REMARK    4  A    between atoms: N_13  and  C_14
REMARK    5  A    between atoms: C_17  and  C_20
REMARK                            x       y       z     vdW  Elec       q    Type
REMARK                         _______ _______ _______ _____ _____    ______ ____
ROOT
ATOM      1  C   UNL     1       4.113   2.059   0.160  0.00  0.00    +0.047 A 
ATOM      2  C   UNL     1       5.117   1.621   1.017  0.00  0.00    +0.027 A 
ATOM      3  C   UNL     1       5.382   0.275   1.139  0.00  0.00    +0.015 A 
ATOM      4  C   UNL     1       4.649  -0.650   0.392  0.00  0.00    +0.037 A 
ATOM      5  C   UNL     1       3.645  -0.206  -0.473  0.00  0.00    +0.015 A 
ATOM      6  C   UNL     1       3.381   1.141  -0.586  0.00  0.00    +0.027 A 
ENDROOT
BRANCH   4   7
ATOM      7  C   UNL     1       4.935  -2.093   0.515  0.00  0.00    +0.247 C 
ATOM      8  O   UNL     1       4.807  -2.823  -0.449  0.00  0.00    -0.270 OA
ATOM      9  N   UNL     1       5.338  -2.602   1.696  0.00  0.00    -0.295 N 
ATOM     10  C   UNL     1       5.571  -1.727   2.855  0.00  0.00    +0.127 C 
ATOM     11  C   UNL     1       4.794  -2.295   4.052  0.00  0.00    +0.125 C 
ATOM     12  N   UNL     1       5.170  -3.701   4.251  0.00  0.00    -0.314 N 
ATOM     13  C   UNL     1       4.791  -4.523   3.094  0.00  0.00    +0.125 C 
ATOM     14  C   UNL     1       5.563  -4.046   1.858  0.00  0.00    +0.127 C 
ATOM     15  C   UNL     1       4.616  -4.205   5.422  0.00  0.00    +0.099 A 
ATOM     16  C   UNL     1       4.860  -3.562   6.632  0.00  0.00    +0.042 A 
ATOM     17  C   UNL     1       4.302  -4.074   7.790  0.00  0.00    +0.005 A 
ATOM     18  C   UNL     1       3.516  -5.215   7.698  0.00  0.00    +0.018 A 
ATOM     19  C   UNL     1       3.316  -5.801   6.465  0.00  0.00    +0.084 A 
ATOM     20  N   UNL     1       3.856  -5.288   5.376  0.00  0.00    -0.350 N 
ATOM     21  H   UNL     1       3.662  -5.783   4.412  0.00  0.00    +0.166 HD
ENDBRANCH   4   7
BRANCH   1  26
ATOM     22  C   UNL     1       2.696   4.060   0.464  0.00  0.00    +0.054 A 
ATOM     23  C   UNL     1       2.818   5.387   0.165  0.00  0.00    +0.032 A 
ATOM     24  C   UNL     1       4.068   5.557  -0.440  0.00  0.00    -0.026 A 
ATOM     25  C   UNL     1       4.669   4.357  -0.508  0.00  0.00    +0.028 A 
ATOM     26  N   UNL     1       3.843   3.425   0.043  0.00  0.00    -0.313 N 
ATOM     27  C   UNL     1       6.044   4.117  -1.109  0.00  0.00    +0.054 C 
ATOM     28  C   UNL     1       5.942   4.435  -2.608  0.00  0.00    +0.006 C 
ATOM     29  C   UNL     1       6.011   5.922  -2.854  0.00  0.00    +0.001 C 
ATOM     30  C   UNL     1       4.794   6.728  -2.474  0.00  0.00    +0.005 C 
ATOM     31  C   UNL     1       4.671   6.856  -0.948  0.00  0.00    +0.037 C 
BRANCH  22  36
ATOM     32  C   UNL     1       0.590   1.585   2.353  0.00  0.00    +0.121 A 
ATOM     33  C   UNL     1      -0.644   2.221   2.343  0.00  0.00    +0.045 A 
ATOM     34  C   UNL     1      -0.792   3.445   1.718  0.00  0.00    +0.004 A 
ATOM     35  C   UNL     1       0.290   4.048   1.108  0.00  0.00    +0.010 A 
ATOM     36  C   UNL     1       1.535   3.418   1.117  0.00  0.00    +0.002 A 
ATOM     37  C   UNL     1       1.681   2.180   1.744  0.00  0.00    +0.055 A 
BRANCH  32  39
ATOM     38  C   UNL     1      -0.440  -0.177   3.573  0.00  0.00    +0.277 C 
ATOM     39  O   UNL     1       0.728   0.379   2.965  0.00  0.00    -0.495 OA
ENDBRANCH  32  39
ENDBRANCH  22  36
ENDBRANCH   1  26
TORSDOF 4
