REMARK  Name = ZINC21258296
REMARK  9 active torsions:
REMARK  status: ('A' for Active; 'I' for Inactive)
REMARK    1  A    between atoms: C_1  and  C_2
REMARK    2  A    between atoms: C_2  and  C_3
REMARK    3  A    between atoms: C_2  and  O_4
REMARK    4  A    between atoms: O_4  and  C_5
REMARK    5  A    between atoms: C_8  and  C_13
REMARK    6  A    between atoms: C_10  and  O_11
REMARK    7  A    between atoms: O_11  and  C_12
REMARK    8  A    between atoms: C_18  and  C_28
REMARK    9  A    between atoms: C_32  and  N_34
REMARK                            x       y       z     vdW  Elec       q    Type
REMARK                         _______ _______ _______ _____ _____    ______ ____
ROOT
ATOM      1  C   UNL     1       1.986  -4.018   2.006  0.00  0.00    +0.032 C 
ATOM      2  C   UNL     1       2.376  -3.729   0.557  0.00  0.00    +0.059 C 
ATOM      3  C   UNL     1       1.597  -2.530   0.042  0.00  0.00    +0.017 C 
ATOM      4  C   UNL     1       0.350  -2.287   0.481  0.00  0.00    +0.036 C 
ATOM      5  C   UNL     1      -0.533  -1.141   0.048  0.00  0.00    +0.136 C 
ATOM      6  N   UNL     1      -0.053  -0.414  -1.107  0.00  0.00    -0.331 N 
ATOM      7  C   UNL     1       1.138   0.309  -1.057  0.00  0.00    +0.049 A 
ATOM      8  C   UNL     1       1.149   1.692  -1.132  0.00  0.00    +0.025 A 
ATOM      9  C   UNL     1       2.344   2.372  -0.977  0.00  0.00    +0.002 A 
ATOM     10  C   UNL     1       3.519   1.679  -0.748  0.00  0.00    +0.002 A 
ATOM     11  C   UNL     1       3.514   0.295  -0.689  0.00  0.00    +0.025 A 
ATOM     12  C   UNL     1       2.322  -0.387  -0.861  0.00  0.00    +0.052 A 
ATOM     13  N   UNL     1       2.254  -1.775  -0.875  0.00  0.00    -0.316 N 
ATOM     14  C   UNL     1      -0.243  -3.136   1.444  0.00  0.00    +0.163 C 
ATOM     15  O   UNL     1      -1.381  -2.907   1.806  0.00  0.00    -0.292 OA
ATOM     16  C   UNL     1       0.481  -4.308   2.035  0.00  0.00    +0.088 C 
ATOM     17  H   UNL     1      -0.631  -0.425  -2.043  0.00  0.00    +0.147 HD
ATOM     18  H   UNL     1       2.786  -2.259  -1.708  0.00  0.00    +0.152 HD
ENDROOT
BRANCH   1  22
ATOM     19  C   UNL     1       4.145  -7.423   3.433  0.00  0.00    +0.162 A 
ATOM     20  C   UNL     1       3.329  -7.534   2.318  0.00  0.00    +0.050 A 
ATOM     21  C   UNL     1       2.632  -6.431   1.859  0.00  0.00    +0.008 A 
ATOM     22  C   UNL     1       2.748  -5.217   2.510  0.00  0.00    -0.040 A 
ATOM     23  C   UNL     1       3.563  -5.099   3.620  0.00  0.00    +0.053 A 
ATOM     24  C   UNL     1       4.260  -6.201   4.088  0.00  0.00    +0.162 A 
BRANCH  24  25
ATOM     25  O   UNL     1       5.059  -6.088   5.183  0.00  0.00    -0.491 OA
ATOM     26  C   UNL     1       5.129  -4.803   5.805  0.00  0.00    +0.277 C 
ENDBRANCH  24  25
BRANCH  19  27
ATOM     27  O   UNL     1       4.831  -8.507   3.885  0.00  0.00    -0.486 OA
BRANCH  27  29
ATOM     28  C   UNL     1       5.459  -9.868   1.990  0.00  0.00    +0.051 C 
ATOM     29  C   UNL     1       4.577  -9.753   3.234  0.00  0.00    +0.167 C 
ATOM     30  C   UNL     1       4.896 -10.903   4.193  0.00  0.00    +0.051 C 
ENDBRANCH  27  29
ENDBRANCH  19  27
ENDBRANCH   1  22
BRANCH   5  31
ATOM     31  C   UNL     1      -0.663  -0.177   1.199  0.00  0.00    -0.021 A 
ATOM     32  C   UNL     1      -1.899   0.047   1.777  0.00  0.00    +0.006 A 
ATOM     33  C   UNL     1      -2.017   0.931   2.833  0.00  0.00    +0.003 A 
ATOM     34  C   UNL     1      -0.900   1.591   3.312  0.00  0.00    +0.033 A 
ATOM     35  C   UNL     1       0.335   1.365   2.734  0.00  0.00    +0.127 A 
ATOM     36  C   UNL     1       0.455   0.478   1.681  0.00  0.00    +0.038 A 
BRANCH  35  37
ATOM     37  N   UNL     1       1.531   2.070   3.247  0.00  0.00    +0.056 N 
ATOM     38  O   UNL     1       1.427   2.849   4.178  0.00  0.00    -0.126 OA
ATOM     39  O   UNL     1       2.620   1.872   2.739  0.00  0.00    -0.126 OA
ENDBRANCH  35  37
ENDBRANCH   5  31
TORSDOF 6
