REMARK  Name = ZINC20328803
REMARK  4 active torsions:
REMARK  status: ('A' for Active; 'I' for Inactive)
REMARK    1  A    between atoms: C_6  and  N_7
REMARK    2  A    between atoms: N_7  and  N_8
REMARK    3  A    between atoms: C_9  and  C_11
REMARK    4  A    between atoms: C_12  and  C_13
REMARK                            x       y       z     vdW  Elec       q    Type
REMARK                         _______ _______ _______ _____ _____    ______ ____
ROOT
ATOM      1  N   UNL     1      -2.394   1.152   0.020  0.00  0.00    -0.264 N 
ATOM      2  H   UNL     1      -2.379   0.052   0.014  0.00  0.00    +0.170 HD
ENDROOT
BRANCH   1   8
ATOM      3  C   UNL     1      -3.635   3.223   0.043  0.00  0.00    +0.027 A 
ATOM      4  C   UNL     1      -4.841   3.896   0.045  0.00  0.00    +0.040 A 
ATOM      5  C   UNL     1      -6.030   3.186   0.047  0.00  0.00    +0.124 A 
ATOM      6  C   UNL     1      -6.013   1.801   0.040  0.00  0.00    +0.040 A 
ATOM      7  C   UNL     1      -4.808   1.125   0.031  0.00  0.00    +0.027 A 
ATOM      8  C   UNL     1      -3.615   1.835   0.029  0.00  0.00    +0.045 A 
ATOM      9  F   UNL     1      -7.209   3.845   0.056  0.00  0.00    -0.205 F 
ENDBRANCH   1   8
BRANCH   1  10
ATOM     10  N   UNL     1      -1.191   1.869   0.018  0.00  0.00    -0.233 N 
ATOM     11  C   UNL     1      -0.014   1.211   0.009  0.00  0.00    +0.253 C 
ATOM     12  O   UNL     1       0.002  -0.004   0.002  0.00  0.00    -0.269 OA
ATOM     13  H   UNL     1      -1.206   2.969   0.024  0.00  0.00    +0.173 HD
BRANCH  11  14
ATOM     14  C   UNL     1       1.254   1.967   0.001  0.00  0.00    +0.076 C 
ATOM     15  C   UNL     1       2.426   1.312  -0.014  0.00  0.00    +0.101 C 
BRANCH  15  16
ATOM     16  C   UNL     1       3.693   2.067  -0.022  0.00  0.00    +0.380 C 
ATOM     17  O   UNL     1       3.677   3.281  -0.015  0.00  0.00    -0.241 OA
ATOM     18  O   UNL     1       4.870   1.409  -0.037  0.00  0.00    -0.241 OA
ENDBRANCH  15  16
ENDBRANCH  11  14
ENDBRANCH   1  10
TORSDOF 4
