REMARK  Name = ZINC05285439
REMARK  9 active torsions:
REMARK  status: ('A' for Active; 'I' for Inactive)
REMARK    1  A    between atoms: C_1  and  C_2
REMARK    2  A    between atoms: C_2  and  O_3
REMARK    3  A    between atoms: O_3  and  C_4
REMARK    4  A    between atoms: C_4  and  C_6
REMARK    5  A    between atoms: C_7  and  C_25
REMARK    6  A    between atoms: N_17  and  C_18
REMARK    7  A    between atoms: C_18  and  C_19
REMARK    8  A    between atoms: C_25  and  S_26
REMARK    9  A    between atoms: S_26  and  C_27
REMARK                            x       y       z     vdW  Elec       q    Type
REMARK                         _______ _______ _______ _____ _____    ______ ____
ROOT
ATOM      1  C   UNL     1      -2.785  -1.386   4.105  0.00  0.00    +0.156 A 
ATOM      2  C   UNL     1      -1.992  -2.146   3.267  0.00  0.00    +0.086 A 
ATOM      3  N   UNL     1      -1.896  -1.506   2.106  0.00  0.00    -0.215 NA
ATOM      4  C   UNL     1      -2.589  -0.379   2.152  0.00  0.00    +0.217 A 
ATOM      5  N   UNL     1      -3.151  -0.262   3.374  0.00  0.00    -0.270 N 
ATOM      6  C   UNL     1      -3.874   0.927   3.421  0.00  0.00    +0.074 A 
ATOM      7  C   UNL     1      -4.638   1.532   4.410  0.00  0.00    +0.028 A 
ATOM      8  C   UNL     1      -5.253   2.742   4.160  0.00  0.00    +0.002 A 
ATOM      9  C   UNL     1      -5.112   3.356   2.927  0.00  0.00    +0.002 A 
ATOM     10  C   UNL     1      -4.355   2.763   1.937  0.00  0.00    +0.028 A 
ATOM     11  C   UNL     1      -3.732   1.546   2.178  0.00  0.00    +0.069 A 
ATOM     12  N   UNL     1      -2.927   0.722   1.401  0.00  0.00    -0.305 N 
ENDROOT
BRANCH   1  13
ATOM     13  C   UNL     1      -3.150  -1.691   5.439  0.00  0.00    +0.358 C 
ATOM     14  O   UNL     1      -2.755  -2.718   5.958  0.00  0.00    -0.243 OA
BRANCH  13  15
ATOM     15  O   UNL     1      -3.937  -0.842   6.134  0.00  0.00    -0.460 OA
BRANCH  15  17
ATOM     16  C   UNL     1      -5.157  -0.137   8.097  0.00  0.00    +0.048 C 
ATOM     17  C   UNL     1      -4.266  -1.213   7.474  0.00  0.00    +0.229 C 
ENDBRANCH  15  17
ENDBRANCH  13  15
ENDBRANCH   1  13
BRANCH  12  18
ATOM     18  C   UNL     1      -2.514   0.980   0.019  0.00  0.00    +0.160 C 
BRANCH  18  19
ATOM     19  C   UNL     1      -1.219   1.751   0.017  0.00  0.00    -0.028 A 
ATOM     20  C   UNL     1      -0.013   1.076   0.008  0.00  0.00    +0.005 A 
ATOM     21  C   UNL     1       1.175   1.783   0.000  0.00  0.00    +0.000 A 
ATOM     22  C   UNL     1       1.156   3.165   0.008  0.00  0.00    +0.000 A 
ATOM     23  C   UNL     1      -0.050   3.840   0.022  0.00  0.00    +0.000 A 
ATOM     24  C   UNL     1      -1.238   3.133   0.030  0.00  0.00    +0.005 A 
ENDBRANCH  18  19
ENDBRANCH  12  18
BRANCH   2  25
ATOM     25  C   UNL     1      -1.351  -3.466   3.609  0.00  0.00    +0.135 C 
BRANCH  25  26
ATOM     26  S   UNL     1      -2.480  -4.814   3.178  0.00  0.00    -0.087 S 
BRANCH  26  27
ATOM     27  C   UNL     1      -1.505  -6.198   3.669  0.00  0.00    +0.123 C 
ATOM     28  N   UNL     1      -0.319  -6.012   4.178  0.00  0.00    -0.382 N 
ATOM     29  N   UNL     1      -1.995  -7.474   3.514  0.00  0.00    -0.340 N 
ATOM     30  H   UNL     1       0.289  -6.875   4.484  0.00  0.00    +0.158 HD
ATOM     31  H   UNL     1      -1.387  -8.337   3.820  0.00  0.00    +0.144 HD
ATOM     32  H   UNL     1      -2.996  -7.630   3.084  0.00  0.00    +0.144 HD
ATOM     33  H   UNL     1       0.073  -4.991   4.302  0.00  0.00    +0.158 HD
ENDBRANCH  26  27
ENDBRANCH  25  26
ENDBRANCH   2  25
TORSDOF 8
