REMARK  Name = ZINC20814837
REMARK  9 active torsions:
REMARK  status: ('A' for Active; 'I' for Inactive)
REMARK    1  A    between atoms: C_1  and  C_2
REMARK    2  A    between atoms: C_2  and  N_3
REMARK    3  A    between atoms: N_3  and  C_4
REMARK    4  A    between atoms: N_3  and  C_11
REMARK    5  A    between atoms: C_4  and  C_5
REMARK    6  A    between atoms: C_11  and  C_12
REMARK    7  A    between atoms: N_14  and  C_15
REMARK    8  A    between atoms: C_18  and  S_21
REMARK    9  A    between atoms: S_21  and  N_24
REMARK                            x       y       z     vdW  Elec       q    Type
REMARK                         _______ _______ _______ _____ _____    ______ ____
ROOT
ATOM      1  C   UNL     1       6.272  -0.740  -2.745  0.00  0.00    +0.201 C 
ATOM      2  O   UNL     1       5.540  -0.401  -3.650  0.00  0.00    -0.278 OA
ATOM      3  N   UNL     1       7.510  -1.198  -3.016  0.00  0.00    -0.287 N 
ATOM      4  H   UNL     1       8.144  -1.582  -2.203  0.00  0.00    +0.155 HD
ENDROOT
BRANCH   3   5
ATOM      5  C   UNL     1       7.988  -1.187  -4.331  0.00  0.00    +0.033 A 
ATOM      6  C   UNL     1       7.127  -1.451  -5.387  0.00  0.00    +0.025 A 
ATOM      7  C   UNL     1       7.600  -1.433  -6.684  0.00  0.00    +0.030 A 
ATOM      8  C   UNL     1       8.934  -1.164  -6.931  0.00  0.00    +0.105 A 
ATOM      9  C   UNL     1       9.796  -0.906  -5.881  0.00  0.00    +0.030 A 
ATOM     10  C   UNL     1       9.327  -0.917  -4.582  0.00  0.00    +0.025 A 
BRANCH   8  11
ATOM     11  S   UNL     1       9.537  -1.149  -8.586  0.00  0.00    +0.056 S 
ATOM     12  O   UNL     1       8.419  -0.882  -9.423  0.00  0.00    -0.153 OA
ATOM     13  O   UNL     1      10.701  -0.334  -8.588  0.00  0.00    -0.153 OA
BRANCH  11  14
ATOM     14  N   UNL     1      10.035  -2.688  -8.940  0.00  0.00    -0.204 NA
ATOM     15  H   UNL     1      10.420  -2.721  -9.970  0.00  0.00    +0.144 HD
ATOM     16  H   UNL     1       9.186  -3.380  -8.844  0.00  0.00    +0.144 HD
ENDBRANCH  11  14
ENDBRANCH   8  11
ENDBRANCH   3   5
BRANCH   1  17
ATOM     17  C   UNL     1       5.798  -0.648  -1.317  0.00  0.00    +0.019 C 
BRANCH  17  18
ATOM     18  N   UNL     1       4.478  -0.004  -1.280  0.00  0.00    +0.388 N 
ATOM     19  H   UNL     1       3.856  -0.462  -2.063  0.00  0.00    -0.081 HD
BRANCH  18  21
ATOM     20  C   UNL     1       5.365   2.123  -0.452  0.00  0.00    -0.017 C 
ATOM     21  C   UNL     1       4.585   1.432  -1.572  0.00  0.00    -0.081 C 
ENDBRANCH  18  21
BRANCH  18  22
ATOM     22  C   UNL     1       3.818  -0.231   0.012  0.00  0.00    -0.035 C 
BRANCH  22  23
ATOM     23  C   UNL     1       2.384   0.225  -0.070  0.00  0.00    -0.026 A 
ATOM     24  C   UNL     1       1.284  -0.478  -0.432  0.00  0.00    +0.010 A 
ATOM     25  C   UNL     1       0.054   0.154  -0.434  0.00  0.00    +0.023 A 
ATOM     26  C   UNL     1      -0.014   1.460  -0.073  0.00  0.00    +0.055 A 
ATOM     27  S   UNL     1       1.694   1.833   0.286  0.00  0.00    -0.088 S 
ATOM     28 BR   UNL     1      -1.526   2.592   0.018  0.00  0.00    -0.043 Br
ENDBRANCH  22  23
ENDBRANCH  18  22
ENDBRANCH  17  18
ENDBRANCH   1  17
TORSDOF 8
