REMARK  Name = ZINC43222781
REMARK  11 active torsions:
REMARK  status: ('A' for Active; 'I' for Inactive)
REMARK    1  A    between atoms: C_1  and  C_2
REMARK    2  A    between atoms: C_2  and  C_4
REMARK    3  A    between atoms: C_2  and  N_8
REMARK    4  A    between atoms: C_4  and  C_5
REMARK    5  A    between atoms: C_5  and  C_6
REMARK    6  A    between atoms: C_5  and  C_7
REMARK    7  A    between atoms: C_9  and  C_11
REMARK    8  A    between atoms: C_16  and  C_18
REMARK    9  A    between atoms: N_20  and  C_21
REMARK   10  A    between atoms: C_21  and  C_23
REMARK   11  A    between atoms: C_21  and  C_24
REMARK                            x       y       z     vdW  Elec       q    Type
REMARK                         _______ _______ _______ _____ _____    ______ ____
ROOT
ATOM      1  C   UNL     1       0.055  -1.900   3.713  0.00  0.00    +0.068 C 
ATOM      2  C   UNL     1       0.994  -0.690   3.903  0.00  0.00    -0.069 C 
ATOM      3  N   UNL     1       0.207   0.270   4.719  0.00  0.00    +0.380 N 
ATOM      4  C   UNL     1      -0.506  -0.586   5.702  0.00  0.00    -0.069 C 
ATOM      5  C   UNL     1      -0.932  -1.834   4.896  0.00  0.00    +0.068 C 
ATOM      6  H   UNL     1       0.821   0.916   5.193  0.00  0.00    -0.086 HD
ATOM      7  H   UNL     1      -0.453   0.768   4.141  0.00  0.00    -0.086 HD
ENDROOT
BRANCH   1   9
ATOM      8  N   UNL     1      -0.007  -1.792   1.242  0.00  0.00    -0.313 N 
ATOM      9  C   UNL     1      -0.687  -1.786   2.406  0.00  0.00    +0.215 C 
ATOM     10  O   UNL     1      -1.896  -1.690   2.401  0.00  0.00    -0.276 OA
ATOM     11  H   UNL     1       0.960  -1.870   1.246  0.00  0.00    +0.149 HD
BRANCH   8  13
ATOM     12  C   UNL     1      -0.974  -0.206  -0.349  0.00  0.00    +0.028 C 
ATOM     13  C   UNL     1      -0.728  -1.682  -0.028  0.00  0.00    +0.070 C 
BRANCH  13  14
ATOM     14  C   UNL     1       0.106  -2.314  -1.145  0.00  0.00    +0.025 C 
BRANCH  14  15
ATOM     15  C   UNL     1       0.250  -3.815  -0.885  0.00  0.00    -0.015 C 
ATOM     16  C   UNL     1      -1.119  -4.487  -1.003  0.00  0.00    +0.007 C 
ATOM     17  C   UNL     1       1.206  -4.421  -1.915  0.00  0.00    +0.007 C 
ENDBRANCH  14  15
ENDBRANCH  13  14
ENDBRANCH   8  13
ENDBRANCH   1   9
BRANCH   5  18
ATOM     18  C   UNL     1      -0.814  -3.073   5.746  0.00  0.00    +0.215 C 
ATOM     19  O   UNL     1      -0.020  -3.939   5.447  0.00  0.00    -0.276 OA
ATOM     20  N   UNL     1      -1.592  -3.219   6.837  0.00  0.00    -0.309 N 
ATOM     21  H   UNL     1      -2.227  -2.526   7.076  0.00  0.00    +0.149 HD
BRANCH  20  22
ATOM     22  C   UNL     1      -1.477  -4.423   7.663  0.00  0.00    +0.101 C 
ATOM     23  C   UNL     1      -0.372  -4.226   8.703  0.00  0.00    +0.033 C 
BRANCH  22  24
ATOM     24  C   UNL     1      -2.787  -4.679   8.363  0.00  0.00    -0.020 A 
ATOM     25  C   UNL     1      -3.638  -3.648   8.620  0.00  0.00    +0.006 A 
ATOM     26  C   UNL     1      -4.853  -3.865   9.266  0.00  0.00    +0.001 A 
ATOM     27  C   UNL     1      -5.224  -5.114   9.661  0.00  0.00    +0.008 A 
ATOM     28  C   UNL     1      -4.371  -6.203   9.413  0.00  0.00    -0.018 A 
ATOM     29  C   UNL     1      -3.138  -5.983   8.750  0.00  0.00    -0.013 A 
ATOM     30  C   UNL     1      -2.288  -7.074   8.497  0.00  0.00    +0.009 A 
ATOM     31  C   UNL     1      -2.661  -8.323   8.886  0.00  0.00    +0.001 A 
ATOM     32  C   UNL     1      -3.877  -8.540   9.532  0.00  0.00    +0.001 A 
ATOM     33  C   UNL     1      -4.720  -7.507   9.806  0.00  0.00    +0.008 A 
ENDBRANCH  22  24
ENDBRANCH  20  22
ENDBRANCH   5  18
TORSDOF 7
