REMARK  Name = ZINC66939360
REMARK  9 active torsions:
REMARK  status: ('A' for Active; 'I' for Inactive)
REMARK    1  A    between atoms: C_1  and  C_2
REMARK    2  A    between atoms: N_5  and  C_11
REMARK    3  A    between atoms: C_7  and  C_10
REMARK    4  A    between atoms: C_11  and  C_12
REMARK    5  A    between atoms: C_15  and  C_18
REMARK    6  A    between atoms: C_18  and  N_19
REMARK    7  A    between atoms: N_19  and  C_20
REMARK    8  A    between atoms: C_20  and  C_22
REMARK    9  A    between atoms: C_20  and  C_29
REMARK                            x       y       z     vdW  Elec       q    Type
REMARK                         _______ _______ _______ _____ _____    ______ ____
ROOT
ATOM      1  C   UNL     1       7.987   2.148  -2.623  0.00  0.00    -0.045 C 
ENDROOT
BRANCH   1   5
ATOM      2  C   UNL     1       4.176   0.223  -2.490  0.00  0.00    -0.033 A 
ATOM      3  C   UNL     1       4.306   1.458  -3.097  0.00  0.00    +0.005 A 
ATOM      4  C   UNL     1       5.539   2.081  -3.139  0.00  0.00    +0.002 A 
ATOM      5  C   UNL     1       6.643   1.469  -2.575  0.00  0.00    -0.064 A 
ATOM      6  C   UNL     1       6.513   0.234  -1.967  0.00  0.00    +0.002 A 
ATOM      7  C   UNL     1       5.279  -0.386  -1.921  0.00  0.00    +0.005 A 
BRANCH   2   8
ATOM      8  C   UNL     1       2.832  -0.456  -2.443  0.00  0.00    +0.119 C 
BRANCH   8  12
ATOM      9  C   UNL     1      -0.019   1.526   0.010  0.00  0.00    +0.039 C 
ATOM     10  C   UNL     1       0.002  -0.004   0.002  0.00  0.00    +0.130 C 
ATOM     11  C   UNL     1       0.720  -0.499  -1.256  0.00  0.00    +0.116 C 
ATOM     12  N   UNL     1       2.120  -0.050  -1.224  0.00  0.00    -0.293 NA
ATOM     13  C   UNL     1       2.801  -0.554  -0.023  0.00  0.00    +0.116 C 
ATOM     14  C   UNL     1       2.062  -0.059   1.223  0.00  0.00    +0.130 C 
ATOM     15  O   UNL     1       0.695  -0.479   1.159  0.00  0.00    -0.371 OA
ATOM     16  C   UNL     1       2.719  -0.646   2.474  0.00  0.00    +0.039 C 
ENDBRANCH   8  12
ENDBRANCH   2   8
ENDBRANCH   1   5
BRANCH   1  17
ATOM     17  N   UNL     1       8.152   2.991  -1.431  0.00  0.00    +0.392 N 
ATOM     18  H   UNL     1       7.424   3.689  -1.410  0.00  0.00    -0.084 HD
ATOM     19  H   UNL     1       8.094   2.419  -0.603  0.00  0.00    -0.084 HD
BRANCH  17  20
ATOM     20  C   UNL     1       9.463   3.653  -1.478  0.00  0.00    +0.047 C 
BRANCH  20  21
ATOM     21  C   UNL     1       9.584   4.612  -0.321  0.00  0.00    -0.053 A 
ATOM     22  C   UNL     1       9.100   4.255   0.924  0.00  0.00    +0.005 A 
ATOM     23  C   UNL     1       9.210   5.133   1.986  0.00  0.00    +0.038 A 
ATOM     24  C   UNL     1       9.805   6.370   1.802  0.00  0.00    +0.123 A 
ATOM     25  C   UNL     1      10.289   6.726   0.554  0.00  0.00    +0.038 A 
ATOM     26  C   UNL     1      10.182   5.844  -0.505  0.00  0.00    +0.005 A 
ATOM     27  F   UNL     1       9.913   7.229   2.839  0.00  0.00    -0.205 F 
ENDBRANCH  20  21
BRANCH  20  28
ATOM     28  C   UNL     1      10.553   2.616  -1.386  0.00  0.00    +0.201 C 
ATOM     29  O   UNL     1      10.266   1.442  -1.291  0.00  0.00    -0.277 OA
ATOM     30  N   UNL     1      11.846   2.994  -1.409  0.00  0.00    -0.330 N 
ATOM     31  H   UNL     1      12.076   3.933  -1.485  0.00  0.00    +0.145 HD
ATOM     32  H   UNL     1      12.548   2.326  -1.350  0.00  0.00    +0.145 HD
ENDBRANCH  20  28
ENDBRANCH  17  20
ENDBRANCH   1  17
TORSDOF 7
