REMARK  Name = ZINC58853910
REMARK  12 active torsions:
REMARK  status: ('A' for Active; 'I' for Inactive)
REMARK    1  A    between atoms: C_1  and  C_2
REMARK    2  A    between atoms: C_4  and  C_16
REMARK    3  A    between atoms: C_5  and  C_15
REMARK    4  A    between atoms: N_6  and  C_7
REMARK    5  A    between atoms: N_17  and  N_18
REMARK    6  A    between atoms: C_19  and  C_21
REMARK    7  A    between atoms: C_21  and  N_22
REMARK    8  A    between atoms: N_22  and  C_23
REMARK    9  A    between atoms: N_22  and  S_31
REMARK   10  A    between atoms: C_26  and  O_29
REMARK   11  A    between atoms: O_29  and  C_30
REMARK   12  A    between atoms: S_31  and  C_34
REMARK                            x       y       z     vdW  Elec       q    Type
REMARK                         _______ _______ _______ _____ _____    ______ ____
ROOT
ATOM      1  N   UNL     1       0.074  -5.710  -1.697  0.00  0.00    -0.206 N 
ATOM      2  C   UNL     1       0.093  -6.927  -1.117  0.00  0.00    +0.251 C 
ATOM      3  O   UNL     1       0.100  -7.021   0.093  0.00  0.00    -0.272 OA
ATOM      4  H   UNL     1       0.068  -5.635  -2.664  0.00  0.00    +0.177 HD
ENDROOT
BRANCH   1   6
ATOM      5  C   UNL     1       0.043  -3.384  -1.463  0.00  0.00    +0.140 C 
ATOM      6  N   UNL     1       0.061  -4.556  -0.904  0.00  0.00    -0.188 NA
BRANCH   5  10
ATOM      7  C   UNL     1      -0.018   1.503   0.010  0.00  0.00    +0.064 C 
ATOM      8  C   UNL     1       0.002  -0.004   0.002  0.00  0.00    +0.022 A 
ATOM      9  C   UNL     1       0.008  -0.781  -1.097  0.00  0.00    +0.032 A 
ATOM     10  C   UNL     1       0.030  -2.170  -0.628  0.00  0.00    +0.016 A 
ATOM     11  C   UNL     1       0.035  -2.113   0.736  0.00  0.00    +0.030 A 
ATOM     12  N   UNL     1       0.024  -0.804   1.109  0.00  0.00    -0.317 N 
ATOM     13  C   UNL     1       0.056  -3.296   1.669  0.00  0.00    +0.064 C 
BRANCH  12  14
ATOM     14  C   UNL     1       0.029  -0.345   2.433  0.00  0.00    +0.049 A 
ATOM     15  C   UNL     1       1.132  -0.577   3.244  0.00  0.00    +0.046 A 
ATOM     16  C   UNL     1       1.135  -0.122   4.550  0.00  0.00    +0.044 A 
ATOM     17  C   UNL     1       0.041   0.562   5.048  0.00  0.00    +0.040 A 
ATOM     18  C   UNL     1      -1.059   0.794   4.242  0.00  0.00    +0.044 A 
ATOM     19  C   UNL     1      -1.065   0.347   2.933  0.00  0.00    +0.046 A 
ATOM     20 CL   UNL     1      -2.430   1.653   4.871  0.00  0.00    -0.083 Cl
ATOM     21 CL   UNL     1       2.514  -0.412   5.565  0.00  0.00    -0.083 Cl
ENDBRANCH  12  14
ENDBRANCH   5  10
ENDBRANCH   1   6
BRANCH   2  22
ATOM     22  C   UNL     1       0.106  -8.169  -1.970  0.00  0.00    +0.228 C 
BRANCH  22  23
ATOM     23  N   UNL     1       0.126  -9.353  -1.108  0.00  0.00    -0.199 N 
BRANCH  23  24
ATOM     24  C   UNL     1      -1.072  -9.873  -0.606  0.00  0.00    +0.052 A 
ATOM     25  C   UNL     1      -1.069 -10.612   0.570  0.00  0.00    +0.028 A 
ATOM     26  C   UNL     1      -2.252 -11.124   1.066  0.00  0.00    +0.047 A 
ATOM     27  C   UNL     1      -3.442 -10.902   0.389  0.00  0.00    +0.120 A 
ATOM     28  C   UNL     1      -3.445 -10.165  -0.786  0.00  0.00    +0.047 A 
ATOM     29  C   UNL     1      -2.264  -9.646  -1.280  0.00  0.00    +0.028 A 
BRANCH  27  30
ATOM     30  O   UNL     1      -4.607 -11.407   0.877  0.00  0.00    -0.495 OA
ATOM     31  C   UNL     1      -5.794 -11.139   0.129  0.00  0.00    +0.277 C 
ENDBRANCH  27  30
ENDBRANCH  23  24
BRANCH  23  32
ATOM     32  S   UNL     1       1.567 -10.076  -0.729  0.00  0.00    +0.043 S 
ATOM     33  O   UNL     1       1.247 -11.449  -0.548  0.00  0.00    -0.155 OA
ATOM     34  O   UNL     1       2.459  -9.670  -1.757  0.00  0.00    -0.155 OA
ATOM     35  C   UNL     1       2.058  -9.336   0.853  0.00  0.00    +0.218 C 
ENDBRANCH  23  32
ENDBRANCH  22  23
ENDBRANCH   2  22
TORSDOF 8
