REMARK  Name = ZINC58224593
REMARK  9 active torsions:
REMARK  status: ('A' for Active; 'I' for Inactive)
REMARK    1  A    between atoms: C_1  and  C_2
REMARK    2  A    between atoms: C_2  and  C_3
REMARK    3  A    between atoms: C_2  and  C_4
REMARK    4  A    between atoms: C_7  and  C_10
REMARK    5  A    between atoms: C_10  and  C_26
REMARK    6  A    between atoms: N_13  and  C_17
REMARK    7  A    between atoms: C_17  and  C_18
REMARK    8  A    between atoms: C_18  and  C_19
REMARK    9  A    between atoms: N_24  and  C_25
REMARK                            x       y       z     vdW  Elec       q    Type
REMARK                         _______ _______ _______ _____ _____    ______ ____
ROOT
ATOM      1  C   UNL     1      -5.419  -2.005   0.043  0.00  0.00    +0.135 C 
ATOM      2  C   UNL     1      -5.969  -2.086  -1.367  0.00  0.00    +0.251 C 
ATOM      3  O   UNL     1      -5.542  -2.758  -2.281  0.00  0.00    -0.272 OA
ATOM      4  N   UNL     1      -7.031  -1.256  -1.393  0.00  0.00    -0.224 N 
ATOM      5  C   UNL     1      -7.226  -0.668  -0.207  0.00  0.00    +0.310 C 
ATOM      6  O   UNL     1      -8.123   0.121   0.016  0.00  0.00    -0.252 OA
ATOM      7  N   UNL     1      -6.319  -1.049   0.711  0.00  0.00    -0.281 N 
ATOM      8  C   UNL     1      -5.481  -3.371   0.728  0.00  0.00    +0.047 C 
ATOM      9  H   UNL     1      -6.269  -0.752   1.633  0.00  0.00    +0.152 HD
ENDROOT
BRANCH   1  13
ATOM     10  C   UNL     1      -1.412  -0.526   0.013  0.00  0.00    -0.045 A 
ATOM     11  C   UNL     1      -2.259  -0.204   1.056  0.00  0.00    +0.004 A 
ATOM     12  C   UNL     1      -3.556  -0.683   1.066  0.00  0.00    +0.006 A 
ATOM     13  C   UNL     1      -4.006  -1.482   0.032  0.00  0.00    -0.015 A 
ATOM     14  C   UNL     1      -3.159  -1.803  -1.012  0.00  0.00    +0.006 A 
ATOM     15  C   UNL     1      -1.863  -1.321  -1.024  0.00  0.00    +0.004 A 
BRANCH  10  17
ATOM     16  C   UNL     1      -0.019   1.526   0.010  0.00  0.00    +0.012 C 
ATOM     17  C   UNL     1       0.002  -0.004   0.002  0.00  0.00    +0.013 C 
ATOM     18  C   UNL     1       0.742  -0.511   1.242  0.00  0.00    +0.012 C 
ENDBRANCH  10  17
ENDBRANCH   1  13
BRANCH   4  19
ATOM     19  C   UNL     1      -7.867  -1.026  -2.573  0.00  0.00    +0.127 C 
BRANCH  19  20
ATOM     20  C   UNL     1      -9.018  -2.034  -2.587  0.00  0.00    +0.115 C 
BRANCH  20  21
ATOM     21  C   UNL     1      -9.878  -1.798  -3.802  0.00  0.00    +0.222 C 
ATOM     22  O   UNL     1      -9.598  -0.910  -4.579  0.00  0.00    -0.275 OA
ATOM     23  N   UNL     1     -10.959  -2.572  -4.024  0.00  0.00    -0.240 N 
ATOM     24  C   UNL     1     -11.728  -2.361  -5.110  0.00  0.00    +0.306 C 
ATOM     25  O   UNL     1     -11.448  -1.471  -5.889  0.00  0.00    -0.252 OA
ATOM     26  N   UNL     1     -12.808  -3.135  -5.332  0.00  0.00    -0.302 N 
ATOM     27  C   UNL     1     -13.645  -2.905  -6.512  0.00  0.00    +0.129 C 
ATOM     28  H   UNL     1     -11.182  -3.282  -3.402  0.00  0.00    +0.159 HD
ATOM     29  H   UNL     1     -13.032  -3.845  -4.710  0.00  0.00    +0.150 HD
ENDBRANCH  20  21
ENDBRANCH  19  20
ENDBRANCH   4  19
TORSDOF 5
