REMARK  Name = ZINC20599080
REMARK  10 active torsions:
REMARK  status: ('A' for Active; 'I' for Inactive)
REMARK    1  A    between atoms: C_1  and  C_2
REMARK    2  A    between atoms: C_2  and  C_4
REMARK    3  A    between atoms: C_6  and  C_9
REMARK    4  A    between atoms: C_9  and  N_10
REMARK    5  A    between atoms: N_10  and  C_11
REMARK    6  A    between atoms: N_10  and  C_19
REMARK    7  A    between atoms: C_11  and  C_12
REMARK    8  A    between atoms: C_12  and  N_13
REMARK    9  A    between atoms: C_19  and  C_20
REMARK   10  A    between atoms: N_25  and  C_27
REMARK                            x       y       z     vdW  Elec       q    Type
REMARK                         _______ _______ _______ _____ _____    ______ ____
ROOT
ATOM      1  N   UNL     1       1.269   4.215   1.464  0.00  0.00    -0.300 NA
ENDROOT
BRANCH   1   2
ATOM      2  C   UNL     1       0.883   3.592   0.191  0.00  0.00    +0.120 C 
BRANCH   2   5
ATOM      3  C   UNL     1       0.319  -0.073   0.774  0.00  0.00    +0.055 A 
ATOM      4  C   UNL     1       0.062   1.293   0.718  0.00  0.00    +0.024 A 
ATOM      5  C   UNL     1       1.079   2.100   0.282  0.00  0.00    -0.026 A 
ATOM      6  C   UNL     1       2.269   1.540  -0.070  0.00  0.00    +0.050 A 
ATOM      7  S   UNL     1       2.006  -0.152   0.200  0.00  0.00    -0.093 S 
BRANCH   3   9
ATOM      8  C   UNL     1      -0.039  -2.546   1.159  0.00  0.00    +0.092 C 
ATOM      9  C   UNL     1      -0.534  -1.123   1.179  0.00  0.00    +0.167 C 
ATOM     10  O   UNL     1      -1.666  -0.880   1.544  0.00  0.00    -0.292 OA
ENDBRANCH   3   9
ENDBRANCH   2   5
ENDBRANCH   1   2
BRANCH   1  11
ATOM     11  C   UNL     1       0.267   3.950   2.505  0.00  0.00    +0.066 C 
BRANCH  11  12
ATOM     12  C   UNL     1       0.866   4.255   3.880  0.00  0.00    -0.063 C 
BRANCH  12  13
ATOM     13  N   UNL     1      -0.093   3.877   4.926  0.00  0.00    +0.381 N 
ATOM     14  C   UNL     1      -1.294   4.719   4.869  0.00  0.00    -0.079 C 
ATOM     15  C   UNL     1      -2.328   4.206   5.873  0.00  0.00    -0.019 C 
ATOM     16  C   UNL     1      -1.725   4.240   7.281  0.00  0.00    -0.004 C 
ATOM     17  C   UNL     1      -0.449   3.394   7.301  0.00  0.00    -0.019 C 
ATOM     18  C   UNL     1       0.530   3.931   6.255  0.00  0.00    -0.079 C 
ATOM     19  H   UNL     1      -0.403   2.837   4.744  0.00  0.00    -0.082 HD
ENDBRANCH  12  13
ENDBRANCH  11  12
ENDBRANCH   1  11
BRANCH   1  20
ATOM     20  C   UNL     1       1.488   5.658   1.300  0.00  0.00    +0.086 C 
BRANCH  20  21
ATOM     21  C   UNL     1       2.942   5.910   0.895  0.00  0.00    -0.014 C 
ATOM     22  C   UNL     1       3.210   5.275  -0.472  0.00  0.00    +0.001 C 
ATOM     23  C   UNL     1       4.648   5.584  -0.896  0.00  0.00    -0.018 C 
ATOM     24  C   UNL     1       4.851   7.100  -0.929  0.00  0.00    -0.078 C 
ATOM     25  N   UNL     1       4.583   7.660   0.402  0.00  0.00    +0.382 N 
ATOM     26  C   UNL     1       3.194   7.418   0.810  0.00  0.00    -0.074 C 
ATOM     27  H   UNL     1       5.239   7.146   1.120  0.00  0.00    -0.081 HD
BRANCH  25  28
ATOM     28  C   UNL     1       4.901   9.094   0.443  0.00  0.00    -0.069 C 
ATOM     29  C   UNL     1       4.019   9.860  -0.564  0.00  0.00    -0.015 C 
ATOM     30  C   UNL     1       4.955  10.955  -1.133  0.00  0.00    -0.002 C 
ATOM     31  C   UNL     1       6.313  10.220  -1.242  0.00  0.00    -0.002 C 
ATOM     32  C   UNL     1       6.360   9.323   0.011  0.00  0.00    -0.015 C 
ENDBRANCH  25  28
ENDBRANCH  20  21
ENDBRANCH   1  20
TORSDOF 9
