REMARK  Name = ZINC20463919
REMARK  6 active torsions:
REMARK  status: ('A' for Active; 'I' for Inactive)
REMARK    1  A    between atoms: C_3  and  C_34
REMARK    2  A    between atoms: C_5  and  N_7
REMARK    3  A    between atoms: N_10  and  C_11
REMARK    4  A    between atoms: C_20  and  N_25
REMARK    5  A    between atoms: C_22  and  O_24
REMARK    6  A    between atoms: C_28  and  C_31
REMARK                            x       y       z     vdW  Elec       q    Type
REMARK                         _______ _______ _______ _____ _____    ______ ____
ROOT
ATOM      1  C   UNL     1       2.028   1.044   1.998  0.00  0.00    +0.132 C 
ATOM      2  C   UNL     1       1.998   0.872   0.470  0.00  0.00    +0.169 C 
ATOM      3  C   UNL     1       2.833  -0.382   0.121  0.00  0.00    +0.196 C 
ATOM      4  O   UNL     1       1.893  -1.472   0.146  0.00  0.00    -0.350 OA
ATOM      5  C   UNL     1       0.619  -0.918   0.522  0.00  0.00    +0.240 C 
ATOM      6  O   UNL     1       0.653   0.467   0.113  0.00  0.00    -0.345 OA
ATOM      7  C   UNL     1       0.515  -0.946   2.054  0.00  0.00    +0.019 C 
ATOM      8  C   UNL     1       1.784  -0.324   2.647  0.00  0.00    +0.129 C 
ENDROOT
BRANCH   7   9
ATOM      9  N   UNL     1      -0.658  -0.173   2.483  0.00  0.00    +0.387 N 
ATOM     10  C   UNL     1      -1.813  -0.446   1.617  0.00  0.00    -0.077 C 
ATOM     11  C   UNL     1      -2.969   0.480   2.000  0.00  0.00    -0.006 C 
ATOM     12  C   UNL     1      -3.340   0.245   3.467  0.00  0.00    +0.071 C 
ATOM     13  C   UNL     1      -2.108   0.489   4.343  0.00  0.00    -0.006 C 
ATOM     14  C   UNL     1      -0.977  -0.437   3.892  0.00  0.00    -0.077 C 
ATOM     15  H   UNL     1      -0.414   0.896   2.389  0.00  0.00    -0.081 HD
BRANCH  12  16
ATOM     16  C   UNL     1      -4.439   1.196   3.868  0.00  0.00    +0.213 C 
ATOM     17  O   UNL     1      -4.256   1.990   4.766  0.00  0.00    -0.276 OA
ATOM     18  N   UNL     1      -5.625   1.162   3.229  0.00  0.00    -0.329 N 
ATOM     19  H   UNL     1      -6.428   1.856   3.522  0.00  0.00    +0.145 HD
ATOM     20  H   UNL     1      -5.792   0.441   2.415  0.00  0.00    +0.145 HD
ENDBRANCH  12  16
ENDBRANCH   7   9
BRANCH   1  24
ATOM     21  N   UNL     1       0.295   4.165   2.872  0.00  0.00    -0.269 N 
ATOM     22  C   UNL     1       1.221   3.308   2.398  0.00  0.00    +0.304 C 
ATOM     23  O   UNL     1       2.274   3.731   1.961  0.00  0.00    -0.252 OA
ATOM     24  N   UNL     1       0.981   1.982   2.409  0.00  0.00    -0.291 N 
ATOM     25  H   UNL     1      -0.709   3.800   3.134  0.00  0.00    +0.156 HD
ATOM     26  H   UNL     1      -0.002   1.604   2.727  0.00  0.00    +0.151 HD
BRANCH  21  31
ATOM     27  C   UNL     1       1.821   7.465   2.326  0.00  0.00    +0.002 A 
ATOM     28  C   UNL     1       1.234   8.196   3.342  0.00  0.00    +0.012 A 
ATOM     29  C   UNL     1       0.335   7.592   4.202  0.00  0.00    +0.057 A 
ATOM     30  C   UNL     1       0.018   6.257   4.046  0.00  0.00    +0.035 A 
ATOM     31  C   UNL     1       0.610   5.519   3.030  0.00  0.00    +0.035 A 
ATOM     32  C   UNL     1       1.512   6.129   2.168  0.00  0.00    +0.023 A 
BRANCH  29  33
ATOM     33  C   UNL     1      -0.303   8.393   5.308  0.00  0.00    +0.417 C 
ATOM     34  F   UNL     1       0.167   9.710   5.262  0.00  0.00    -0.166 F 
ATOM     35  F   UNL     1      -1.692   8.387   5.146  0.00  0.00    -0.166 F 
ATOM     36  F   UNL     1       0.025   7.824   6.544  0.00  0.00    -0.166 F 
ENDBRANCH  29  33
ENDBRANCH  21  31
ENDBRANCH   1  24
BRANCH   8  37
ATOM     37  O   UNL     1       2.900  -1.179   2.391  0.00  0.00    -0.391 OA
ATOM     38  H   UNL     1       2.905  -2.207   2.781  0.00  0.00    +0.210 HD
ENDBRANCH   8  37
TORSDOF 6
