REMARK  Name = ZINC04118873
REMARK  13 active torsions:
REMARK  status: ('A' for Active; 'I' for Inactive)
REMARK    1  A    between atoms: C_1  and  O_2
REMARK    2  A    between atoms: O_2  and  C_3
REMARK    3  A    between atoms: C_5  and  C_14
REMARK    4  A    between atoms: C_8  and  O_9
REMARK    5  A    between atoms: O_9  and  C_10
REMARK    6  A    between atoms: C_10  and  C_11
REMARK    7  A    between atoms: C_15  and  C_16
REMARK    8  A    between atoms: C_15  and  C_18
REMARK    9  A    between atoms: C_19  and  C_27
REMARK   10  A    between atoms: C_20  and  N_26
REMARK   11  A    between atoms: N_21  and  C_23
REMARK   12  A    between atoms: C_23  and  C_24
REMARK   13  A    between atoms: C_24  and  O_25
REMARK                            x       y       z     vdW  Elec       q    Type
REMARK                         _______ _______ _______ _____ _____    ______ ____
ROOT
ATOM      1  C   UNL     1       1.512   0.040   6.113  0.00  0.00    +0.029 C 
ATOM      2  C   UNL     1       1.038  -1.060   6.760  0.00  0.00    +0.081 C 
ENDROOT
BRANCH   1   5
ATOM      3  C   UNL     1       1.113   1.502   2.683  0.00  0.00    +0.163 A 
ATOM      4  C   UNL     1       1.688   1.107   3.875  0.00  0.00    +0.057 A 
ATOM      5  C   UNL     1       0.908   0.463   4.844  0.00  0.00    -0.019 A 
ATOM      6  C   UNL     1      -0.450   0.224   4.599  0.00  0.00    +0.026 A 
ATOM      7  C   UNL     1      -1.016   0.628   3.409  0.00  0.00    +0.059 A 
ATOM      8  C   UNL     1      -0.239   1.261   2.446  0.00  0.00    +0.176 A 
ATOM      9  I   UNL     1      -3.049   0.278   3.047  0.00  0.00    -0.040 I 
BRANCH   3  11
ATOM     10  C   UNL     1       3.246   2.342   2.048  0.00  0.00    +0.277 C 
ATOM     11  O   UNL     1       1.867   2.127   1.739  0.00  0.00    -0.491 OA
ENDBRANCH   3  11
BRANCH   8  12
ATOM     12  O   UNL     1      -0.802   1.651   1.272  0.00  0.00    -0.475 OA
BRANCH  12  13
ATOM     13  C   UNL     1      -0.779   0.710   0.198  0.00  0.00    +0.317 C 
BRANCH  13  14
ATOM     14  C   UNL     1      -1.427   1.300  -0.985  0.00  0.00    -0.065 C 
ATOM     15  C   UNL     1      -1.943   1.770  -1.929  0.00  0.00    +0.007 C 
ENDBRANCH  13  14
ENDBRANCH  12  13
ENDBRANCH   8  12
ENDBRANCH   1   5
BRANCH   2  16
ATOM     16  C   UNL     1       1.538  -1.398   8.111  0.00  0.00    +0.122 A 
ATOM     17  C   UNL     1       1.122  -2.539   8.934  0.00  0.00    +0.119 A 
ATOM     18  C   UNL     1       1.855  -2.455  10.114  0.00  0.00    +0.133 A 
ATOM     19  N   UNL     1       2.639  -1.361  10.030  0.00  0.00    -0.247 N 
ATOM     20  N   UNL     1       2.433  -0.728   8.801  0.00  0.00    -0.167 NA
BRANCH  18  21
ATOM     21  N   UNL     1       1.787  -3.329  11.182  0.00  0.00    -0.342 N 
ATOM     22  H   UNL     1       2.338  -3.181  11.966  0.00  0.00    +0.144 HD
ATOM     23  H   UNL     1       1.188  -4.091  11.147  0.00  0.00    +0.144 HD
ENDBRANCH  18  21
BRANCH  17  24
ATOM     24  C   UNL     1       0.158  -3.541   8.591  0.00  0.00    +0.105 C 
ATOM     25  N   UNL     1      -0.606  -4.336   8.319  0.00  0.00    -0.191 NA
ENDBRANCH  17  24
BRANCH  19  26
ATOM     26  C   UNL     1       3.567  -0.906  11.068  0.00  0.00    +0.173 C 
BRANCH  26  27
ATOM     27  C   UNL     1       2.841   0.050  12.017  0.00  0.00    +0.179 C 
BRANCH  27  28
ATOM     28  O   UNL     1       3.746   0.494  13.030  0.00  0.00    -0.393 OA
ATOM     29  H   UNL     1       3.353   1.105  13.669  0.00  0.00    +0.209 HD
ENDBRANCH  27  28
ENDBRANCH  26  27
ENDBRANCH  19  26
ENDBRANCH   2  16
BRANCH   2  30
ATOM     30  C   UNL     1       0.054  -1.891   6.132  0.00  0.00    +0.101 C 
ATOM     31  N   UNL     1      -0.726  -2.550   5.635  0.00  0.00    -0.191 NA
ENDBRANCH   2  30
TORSDOF 12
