REMARK  Name = ZINC61795117
REMARK  10 active torsions:
REMARK  status: ('A' for Active; 'I' for Inactive)
REMARK    1  A    between atoms: C_1  and  C_2
REMARK    2  A    between atoms: C_2  and  N_3
REMARK    3  A    between atoms: N_3  and  C_4
REMARK    4  A    between atoms: N_3  and  C_5
REMARK    5  A    between atoms: C_5  and  C_6
REMARK    6  A    between atoms: C_10  and  C_12
REMARK    7  A    between atoms: C_12  and  N_13
REMARK    8  A    between atoms: N_16  and  C_17
REMARK    9  A    between atoms: C_17  and  C_18
REMARK   10  A    between atoms: N_20  and  C_21
REMARK                            x       y       z     vdW  Elec       q    Type
REMARK                         _______ _______ _______ _____ _____    ______ ____
ROOT
ATOM      1  N   UNL     1       5.321  -2.308  -4.282  0.00  0.00    -0.295 N 
ATOM      2  C   UNL     1       6.661  -2.372  -4.408  0.00  0.00    +0.300 C 
ATOM      3  O   UNL     1       7.242  -3.421  -4.205  0.00  0.00    -0.253 OA
ATOM      4  N   UNL     1       7.358  -1.274  -4.759  0.00  0.00    -0.291 N 
ATOM      5  H   UNL     1       4.858  -1.472  -4.444  0.00  0.00    +0.151 HD
ATOM      6  H   UNL     1       6.895  -0.437  -4.921  0.00  0.00    +0.151 HD
ENDROOT
BRANCH   1   7
ATOM      7  C   UNL     1       4.563  -3.503  -3.900  0.00  0.00    +0.141 C 
BRANCH   7  12
ATOM      8  C   UNL     1       1.199  -2.413  -2.577  0.00  0.00    -0.064 A 
ATOM      9  C   UNL     1       0.404  -2.549  -3.700  0.00  0.00    +0.002 A 
ATOM     10  C   UNL     1       0.955  -2.994  -4.887  0.00  0.00    +0.001 A 
ATOM     11  C   UNL     1       2.301  -3.303  -4.952  0.00  0.00    +0.005 A 
ATOM     12  C   UNL     1       3.096  -3.166  -3.830  0.00  0.00    -0.030 A 
ATOM     13  C   UNL     1       2.546  -2.717  -2.643  0.00  0.00    +0.007 A 
BRANCH   8  14
ATOM     14  C   UNL     1       0.599  -1.928  -1.283  0.00  0.00    -0.043 C 
BRANCH  14  15
ATOM     15  N   UNL     1       0.681  -0.462  -1.224  0.00  0.00    +0.380 N 
ATOM     16  C   UNL     1       2.091  -0.052  -1.176  0.00  0.00    -0.096 C 
ATOM     17  H   UNL     1       0.244  -0.068  -2.043  0.00  0.00    -0.082 HD
BRANCH  15  19
ATOM     18  C   UNL     1      -0.033   1.549  -0.023  0.00  0.00    -0.017 C 
ATOM     19  C   UNL     1      -0.010   0.019  -0.020  0.00  0.00    -0.082 C 
ENDBRANCH  15  19
ENDBRANCH  14  15
ENDBRANCH   8  14
ENDBRANCH   7  12
ENDBRANCH   1   7
BRANCH   4  20
ATOM     20  C   UNL     1       8.815  -1.343  -4.896  0.00  0.00    +0.202 C 
BRANCH  20  21
ATOM     21  C   UNL     1       9.347   0.009  -5.293  0.00  0.00    +0.234 C 
ATOM     22  O   UNL     1       8.585   0.940  -5.447  0.00  0.00    -0.274 OA
ATOM     23  N   UNL     1      10.671   0.185  -5.478  0.00  0.00    -0.284 N 
ATOM     24  H   UNL     1      11.287  -0.540  -5.290  0.00  0.00    +0.155 HD
BRANCH  23  25
ATOM     25  C   UNL     1      11.156   1.415  -5.941  0.00  0.00    +0.036 A 
ATOM     26  C   UNL     1      12.250   1.453  -6.795  0.00  0.00    +0.026 A 
ATOM     27  C   UNL     1      12.728   2.666  -7.251  0.00  0.00    +0.043 A 
ATOM     28  C   UNL     1      12.118   3.844  -6.858  0.00  0.00    +0.159 A 
ATOM     29  C   UNL     1      11.025   3.809  -6.005  0.00  0.00    +0.160 A 
ATOM     30  C   UNL     1      10.540   2.596  -5.551  0.00  0.00    +0.064 A 
ATOM     31  F   UNL     1      10.430   4.960  -5.622  0.00  0.00    -0.202 F 
ATOM     32  F   UNL     1      12.587   5.029  -7.305  0.00  0.00    -0.202 F 
ENDBRANCH  23  25
ENDBRANCH  20  21
ENDBRANCH   4  20
TORSDOF 8
