REMARK  Name = ZINC27521663
REMARK  6 active torsions:
REMARK  status: ('A' for Active; 'I' for Inactive)
REMARK    1  A    between atoms: C_5  and  C_7
REMARK    2  A    between atoms: N_9  and  C_10
REMARK    3  A    between atoms: C_10  and  C_21
REMARK    4  A    between atoms: C_11  and  C_12
REMARK    5  A    between atoms: C_15  and  N_18
REMARK    6  A    between atoms: N_23  and  C_24
REMARK                            x       y       z     vdW  Elec       q    Type
REMARK                         _______ _______ _______ _____ _____    ______ ____
ROOT
ATOM      1  C   UNL     1       0.040  -0.188   0.368  0.00  0.00    +0.097 C 
ATOM      2  C   UNL     1      -0.103   1.013  -0.239  0.00  0.00    +0.036 C 
ENDROOT
BRANCH   2   3
ATOM      3  C   UNL     1      -1.431   1.454  -0.692  0.00  0.00    -0.023 A 
ATOM      4  C   UNL     1      -2.299   0.549  -1.312  0.00  0.00    +0.010 A 
ATOM      5  C   UNL     1      -3.544   0.970  -1.730  0.00  0.00    +0.033 A 
ATOM      6  C   UNL     1      -3.932   2.286  -1.546  0.00  0.00    +0.126 A 
ATOM      7  C   UNL     1      -3.077   3.188  -0.938  0.00  0.00    +0.033 A 
ATOM      8  C   UNL     1      -1.831   2.782  -0.510  0.00  0.00    +0.010 A 
BRANCH   6   9
ATOM      9  N   UNL     1      -5.268   2.730  -2.003  0.00  0.00    +0.056 N 
ATOM     10  O   UNL     1      -5.612   3.887  -1.843  0.00  0.00    -0.126 OA
ATOM     11  O   UNL     1      -6.023   1.938  -2.539  0.00  0.00    -0.126 OA
ENDBRANCH   6   9
ENDBRANCH   2   3
BRANCH   1  14
ATOM     12  C   UNL     1       1.783  -1.008   1.763  0.00  0.00    +0.249 C 
ATOM     13  O   UNL     1       1.068  -0.845   2.733  0.00  0.00    -0.270 OA
ATOM     14  N   UNL     1       1.313  -0.743   0.528  0.00  0.00    -0.277 N 
ATOM     15  H   UNL     1       1.931  -0.963  -0.355  0.00  0.00    +0.155 HD
BRANCH  12  20
ATOM     16  C   UNL     1       5.279  -2.144   0.997  0.00  0.00    +0.001 A 
ATOM     17  C   UNL     1       5.759  -2.415   2.266  0.00  0.00    +0.001 A 
ATOM     18  C   UNL     1       4.950  -2.230   3.373  0.00  0.00    +0.016 A 
ATOM     19  C   UNL     1       3.656  -1.773   3.217  0.00  0.00    +0.030 A 
ATOM     20  C   UNL     1       3.166  -1.497   1.938  0.00  0.00    +0.051 A 
ATOM     21  C   UNL     1       3.987  -1.692   0.826  0.00  0.00    +0.014 A 
ATOM     22 BR   UNL     1       2.550  -1.522   4.730  0.00  0.00    -0.050 Br
ENDBRANCH  12  20
ENDBRANCH   1  14
BRANCH   1  23
ATOM     23  C   UNL     1      -1.143  -0.908   0.861  0.00  0.00    +0.262 C 
ATOM     24  O   UNL     1      -2.232  -0.366   0.853  0.00  0.00    -0.268 OA
ATOM     25  N   UNL     1      -1.021  -2.169   1.321  0.00  0.00    -0.279 N 
ATOM     26  H   UNL     1      -0.028  -2.640   1.378  0.00  0.00    +0.155 HD
BRANCH  25  27
ATOM     27  C   UNL     1      -2.156  -2.878   1.726  0.00  0.00    +0.052 A 
ATOM     28  C   UNL     1      -3.276  -2.197   2.184  0.00  0.00    +0.025 A 
ATOM     29  C   UNL     1      -4.397  -2.900   2.579  0.00  0.00    +0.002 A 
ATOM     30  C   UNL     1      -4.402  -4.282   2.529  0.00  0.00    +0.002 A 
ATOM     31  C   UNL     1      -3.287  -4.965   2.079  0.00  0.00    +0.022 A 
ATOM     32  C   UNL     1      -2.163  -4.267   1.678  0.00  0.00    +0.062 A 
ATOM     33 CL   UNL     1      -0.763  -5.125   1.114  0.00  0.00    -0.082 Cl
ENDBRANCH  25  27
ENDBRANCH   1  23
TORSDOF 6
