REMARK  Name = ZINC25518379
REMARK  7 active torsions:
REMARK  status: ('A' for Active; 'I' for Inactive)
REMARK    1  A    between atoms: C_1  and  C_2
REMARK    2  A    between atoms: C_2  and  O_3
REMARK    3  A    between atoms: O_3  and  C_4
REMARK    4  A    between atoms: N_9  and  C_12
REMARK    5  A    between atoms: C_12  and  C_14
REMARK    6  A    between atoms: C_12  and  C_15
REMARK    7  A    between atoms: C_21  and  C_24
REMARK                            x       y       z     vdW  Elec       q    Type
REMARK                         _______ _______ _______ _____ _____    ______ ____
ROOT
ATOM      1  C   UNL     1      -4.447   3.702  -1.915  0.00  0.00    +0.016 C 
ATOM      2  C   UNL     1      -3.671   3.474  -3.214  0.00  0.00    -0.004 C 
ENDROOT
BRANCH   1   8
ATOM      3  C   UNL     1      -1.385  -0.018   0.580  0.00  0.00    +0.403 C 
ATOM      4  O   UNL     1      -1.765  -1.172   0.558  0.00  0.00    -0.226 OA
ATOM      5  N   UNL     1      -2.272   0.986   0.431  0.00  0.00    -0.271 N 
ATOM      6  C   UNL     1      -1.834   2.390   0.460  0.00  0.00    +0.092 C 
ATOM      7  C   UNL     1      -2.393   3.095  -0.785  0.00  0.00    -0.058 C 
ATOM      8  N   UNL     1      -3.848   2.900  -0.840  0.00  0.00    +0.389 N 
ATOM      9  C   UNL     1      -4.190   1.479  -0.990  0.00  0.00    -0.058 C 
ATOM     10  C   UNL     1      -3.703   0.707   0.241  0.00  0.00    +0.092 C 
ATOM     11  H   UNL     1      -4.269   3.246   0.116  0.00  0.00    -0.081 HD
BRANCH   3  12
ATOM     12  O   UNL     1      -0.078   0.257   0.748  0.00  0.00    -0.451 OA
BRANCH  12  14
ATOM     13  C   UNL     1       2.253  -0.368   1.074  0.00  0.00    +0.048 C 
ATOM     14  C   UNL     1       0.820  -0.875   0.896  0.00  0.00    +0.230 C 
ENDBRANCH  12  14
ENDBRANCH   3  12
ENDBRANCH   1   8
BRANCH   1  15
ATOM     15  C   UNL     1      -4.389   5.162  -1.545  0.00  0.00    +0.202 C 
ATOM     16  O   UNL     1      -3.637   5.536  -0.671  0.00  0.00    -0.277 OA
ATOM     17  N   UNL     1      -5.173   6.051  -2.186  0.00  0.00    -0.302 N 
ATOM     18  C   UNL     1      -6.005   5.633  -3.323  0.00  0.00    +0.108 C 
ATOM     19  C   UNL     1      -7.456   6.054  -3.049  0.00  0.00    +0.020 C 
ATOM     20  C   UNL     1      -7.498   7.556  -2.758  0.00  0.00    +0.016 C 
ATOM     21  C   UNL     1      -6.665   7.860  -1.511  0.00  0.00    +0.092 C 
ATOM     22  C   UNL     1      -5.209   7.458  -1.765  0.00  0.00    +0.120 C 
BRANCH  21  23
ATOM     23  C   UNL     1      -6.734   9.335  -1.207  0.00  0.00    +0.215 C 
ATOM     24  O   UNL     1      -5.719   9.999  -1.194  0.00  0.00    -0.276 OA
ATOM     25  N   UNL     1      -7.922   9.915  -0.949  0.00  0.00    -0.329 N 
ATOM     26  H   UNL     1      -7.972  10.991  -0.727  0.00  0.00    +0.145 HD
ATOM     27  H   UNL     1      -8.842   9.312  -0.961  0.00  0.00    +0.145 HD
ENDBRANCH  21  23
ENDBRANCH   1  15
TORSDOF 5
