REMARK  Name = ZINC31173389
REMARK  8 active torsions:
REMARK  status: ('A' for Active; 'I' for Inactive)
REMARK    1  A    between atoms: C_1  and  C_2
REMARK    2  A    between atoms: C_2  and  N_3
REMARK    3  A    between atoms: N_3  and  C_4
REMARK    4  A    between atoms: N_3  and  C_16
REMARK    5  A    between atoms: C_4  and  C_5
REMARK    6  A    between atoms: C_16  and  C_17
REMARK    7  A    between atoms: N_19  and  C_20
REMARK    8  A    between atoms: C_23  and  C_27
REMARK                            x       y       z     vdW  Elec       q    Type
REMARK                         _______ _______ _______ _____ _____    ______ ____
ROOT
ATOM      1  N   UNL     1      -1.207   0.209   1.125  0.00  0.00    +0.388 N 
ATOM      2  H   UNL     1      -1.702   1.157   1.383  0.00  0.00    -0.081 HD
ENDROOT
BRANCH   1   4
ATOM      3  C   UNL     1      -3.261  -0.749   2.052  0.00  0.00    -0.017 C 
ATOM      4  C   UNL     1      -2.252  -0.799   0.904  0.00  0.00    -0.081 C 
ENDBRANCH   1   4
BRANCH   1   5
ATOM      5  C   UNL     1      -0.340  -0.168   2.250  0.00  0.00    -0.030 C 
BRANCH   5   6
ATOM      6  C   UNL     1       0.470   1.049   2.700  0.00  0.00    +0.195 C 
ATOM      7  C   UNL     1       1.391   0.656   3.864  0.00  0.00    +0.271 C 
ATOM      8  O   UNL     1       2.122   1.818   4.268  0.00  0.00    -0.485 OA
ATOM      9  C   UNL     1       1.409   2.968   4.420  0.00  0.00    +0.162 A 
ATOM     10  C   UNL     1       1.958   4.019   5.138  0.00  0.00    +0.049 A 
ATOM     11  C   UNL     1       1.248   5.194   5.298  0.00  0.00    +0.004 A 
ATOM     12  C   UNL     1      -0.012   5.324   4.742  0.00  0.00    +0.004 A 
ATOM     13  C   UNL     1      -0.564   4.280   4.026  0.00  0.00    +0.049 A 
ATOM     14  C   UNL     1       0.143   3.098   3.862  0.00  0.00    +0.162 A 
ATOM     15  O   UNL     1      -0.416   2.076   3.157  0.00  0.00    -0.484 OA
ENDBRANCH   5   6
ENDBRANCH   1   5
BRANCH   1  16
ATOM     16  C   UNL     1      -0.419   0.428  -0.095  0.00  0.00    +0.019 C 
BRANCH  16  17
ATOM     17  C   UNL     1      -1.296   1.046  -1.154  0.00  0.00    +0.201 C 
ATOM     18  O   UNL     1      -2.462   1.281  -0.915  0.00  0.00    -0.278 OA
ATOM     19  N   UNL     1      -0.784   1.338  -2.366  0.00  0.00    -0.285 N 
ATOM     20  H   UNL     1       0.290   1.201  -2.558  0.00  0.00    +0.155 HD
BRANCH  19  21
ATOM     21  C   UNL     1      -1.621   1.816  -3.382  0.00  0.00    +0.062 A 
ATOM     22  C   UNL     1      -1.631   1.196  -4.625  0.00  0.00    +0.040 A 
ATOM     23  C   UNL     1      -2.461   1.667  -5.624  0.00  0.00    +0.020 A 
ATOM     24  C   UNL     1      -3.273   2.762  -5.391  0.00  0.00    -0.048 A 
ATOM     25  C   UNL     1      -3.261   3.385  -4.157  0.00  0.00    +0.020 A 
ATOM     26  C   UNL     1      -2.438   2.916  -3.152  0.00  0.00    +0.040 A 
ATOM     27 BR   UNL     1      -2.422   3.770  -1.465  0.00  0.00    -0.048 Br
ATOM     28  C   UNL     1      -4.173   3.277  -6.485  0.00  0.00    +0.044 C 
ATOM     29 BR   UNL     1      -0.516  -0.297  -4.947  0.00  0.00    -0.048 Br
ENDBRANCH  19  21
ENDBRANCH  16  17
ENDBRANCH   1  16
TORSDOF 6
