REMARK  Name = ZINC43735688
REMARK  13 active torsions:
REMARK  status: ('A' for Active; 'I' for Inactive)
REMARK    1  A    between atoms: C_1  and  C_2
REMARK    2  A    between atoms: C_5  and  O_40
REMARK    3  A    between atoms: C_7  and  C_38
REMARK    4  A    between atoms: C_7  and  C_39
REMARK    5  A    between atoms: C_12  and  C_37
REMARK    6  A    between atoms: C_20  and  C_30
REMARK    7  A    between atoms: C_20  and  C_31
REMARK    8  A    between atoms: C_24  and  C_29
REMARK    9  A    between atoms: C_27  and  C_28
REMARK   10  A    between atoms: C_31  and  O_33
REMARK   11  A    between atoms: O_33  and  C_34
REMARK   12  A    between atoms: C_34  and  C_35
REMARK   13  A    between atoms: C_35  and  N_36
REMARK                            x       y       z     vdW  Elec       q    Type
REMARK                         _______ _______ _______ _____ _____    ______ ____
ROOT
ATOM      1  C   UNL     1      -0.859   1.427   0.016  0.00  0.00    +0.012 C 
ATOM      2  C   UNL     1      -0.649  -0.083  -0.030  0.00  0.00    -0.022 C 
ATOM      3  C   UNL     1      -0.569  -0.474  -1.519  0.00  0.00    +0.010 C 
ATOM      4  C   UNL     1       0.620   0.239  -2.160  0.00  0.00    +0.032 C 
ATOM      5  C   UNL     1       1.924  -0.197  -1.508  0.00  0.00    +0.120 C 
ATOM      6  C   UNL     1       1.918  -0.040   0.010  0.00  0.00    -0.006 C 
ATOM      7  C   UNL     1       0.636  -0.538   0.642  0.00  0.00    +0.004 C 
ATOM      8  C   UNL     1       0.565  -0.273   2.143  0.00  0.00    +0.005 C 
ATOM      9  C   UNL     1      -0.566  -1.139   2.729  0.00  0.00    +0.008 C 
ATOM     10  C   UNL     1      -1.911  -0.722   2.125  0.00  0.00    -0.016 C 
ATOM     11  C   UNL     1      -1.832  -0.817   0.606  0.00  0.00    +0.025 C 
ATOM     12  C   UNL     1      -1.722  -2.272   0.191  0.00  0.00    -0.022 C 
ATOM     13  C   UNL     1      -2.633  -3.125   0.688  0.00  0.00    +0.000 C 
ATOM     14  C   UNL     1      -3.622  -2.473   1.590  0.00  0.00    -0.041 C 
ATOM     15  C   UNL     1      -4.909  -2.716   1.399  0.00  0.00    -0.052 C 
ATOM     16  C   UNL     1      -5.313  -3.635   0.270  0.00  0.00    +0.050 C 
ATOM     17  C   UNL     1      -6.296  -4.692   0.767  0.00  0.00    +0.075 C 
ATOM     18  C   UNL     1      -7.519  -4.014   1.388  0.00  0.00    +0.093 C 
ATOM     19  C   UNL     1      -7.069  -3.118   2.514  0.00  0.00    +0.144 C 
ATOM     20  O   UNL     1      -7.588  -3.197   3.601  0.00  0.00    -0.296 OA
ATOM     21  C   UNL     1      -5.973  -2.112   2.272  0.00  0.00    +0.048 C 
ATOM     22  C   UNL     1      -5.378  -1.660   3.601  0.00  0.00    +0.019 C 
ATOM     23  C   UNL     1      -4.147  -0.782   3.339  0.00  0.00    +0.013 C 
ATOM     24  C   UNL     1      -3.053  -1.591   2.663  0.00  0.00    -0.001 C 
ATOM     25  C   UNL     1      -2.493  -2.535   3.734  0.00  0.00    +0.016 C 
ATOM     26  C   UNL     1      -6.584  -0.909   1.550  0.00  0.00    +0.024 C 
ATOM     27  C   UNL     1      -5.614  -5.579   1.811  0.00  0.00    +0.023 C 
ATOM     28  C   UNL     1      -2.184   0.719   2.583  0.00  0.00    +0.012 C 
ATOM     29  C   UNL     1       3.082  -0.916   0.540  0.00  0.00    +0.014 C 
ATOM     30  C   UNL     1       2.245   1.405   0.388  0.00  0.00    +0.014 C 
ENDROOT
BRANCH  17  31
ATOM     31  C   UNL     1      -6.737  -5.545  -0.397  0.00  0.00    +0.314 C 
ATOM     32  O   UNL     1      -6.307  -5.325  -1.504  0.00  0.00    -0.250 OA
BRANCH  31  33
ATOM     33  O   UNL     1      -7.608  -6.548  -0.202  0.00  0.00    -0.466 OA
BRANCH  33  34
ATOM     34  C   UNL     1      -7.982  -7.314  -1.349  0.00  0.00    +0.213 C 
BRANCH  34  35
ATOM     35  C   UNL     1      -8.973  -8.403  -0.933  0.00  0.00    -0.045 C 
BRANCH  35  36
ATOM     36  N   UNL     1     -10.216  -7.779  -0.461  0.00  0.00    +0.380 N 
ATOM     37  H   UNL     1     -10.016  -7.187   0.332  0.00  0.00    -0.090 HD
ATOM     38  H   UNL     1     -10.617  -7.224  -1.202  0.00  0.00    -0.090 HD
ATOM     39  H   UNL     1     -10.870  -8.497  -0.187  0.00  0.00    -0.090 HD
ENDBRANCH  35  36
ENDBRANCH  34  35
ENDBRANCH  33  34
ENDBRANCH  31  33
ENDBRANCH  17  31
BRANCH   5  40
ATOM     40  O   UNL     1       2.188  -1.566  -1.839  0.00  0.00    -0.391 OA
ATOM     41  H   UNL     1       2.273  -1.732  -2.788  0.00  0.00    +0.210 HD
ENDBRANCH   5  40
TORSDOF 6
