REMARK  Name = ZINC40687326
REMARK  8 active torsions:
REMARK  status: ('A' for Active; 'I' for Inactive)
REMARK    1  A    between atoms: C_1  and  C_2
REMARK    2  A    between atoms: C_2  and  C_3
REMARK    3  A    between atoms: C_3  and  C_4
REMARK    4  A    between atoms: C_4  and  O_5
REMARK    5  A    between atoms: O_5  and  C_6
REMARK    6  A    between atoms: C_9  and  N_12
REMARK    7  A    between atoms: C_14  and  N_28
REMARK    8  A    between atoms: C_15  and  N_19
REMARK                            x       y       z     vdW  Elec       q    Type
REMARK                         _______ _______ _______ _____ _____    ______ ____
ROOT
ATOM      1  N   UNL     1      -3.404  -8.050  -0.027  0.00  0.00    -0.299 N 
ATOM      2  C   UNL     1      -4.676  -8.599   0.090  0.00  0.00    +0.126 A 
ATOM      3  C   UNL     1      -4.844  -9.981   0.199  0.00  0.00    +0.104 A 
ATOM      4  C   UNL     1      -6.143 -10.479   0.314  0.00  0.00    +0.151 A 
ATOM      5  N   UNL     1      -7.164  -9.625   0.315  0.00  0.00    -0.220 NA
ATOM      6  C   UNL     1      -6.961  -8.328   0.210  0.00  0.00    +0.200 A 
ATOM      7  N   UNL     1      -5.752  -7.815   0.105  0.00  0.00    -0.333 N 
ATOM      8  H   UNL     1      -2.633  -8.629  -0.131  0.00  0.00    +0.154 HD
ATOM      9  H   UNL     1      -5.644  -6.854   0.034  0.00  0.00    +0.168 HD
ENDROOT
BRANCH   4  10
ATOM     10  N   UNL     1      -6.367 -11.847   0.425  0.00  0.00    -0.283 N 
ATOM     11  C   UNL     1      -6.336 -12.604   1.680  0.00  0.00    +0.117 C 
ATOM     12  C   UNL     1      -6.641 -14.057   1.281  0.00  0.00    +0.056 C 
ATOM     13  C   UNL     1      -6.827 -14.009  -0.219  0.00  0.00    -0.025 A 
ATOM     14  C   UNL     1      -6.660 -12.700  -0.642  0.00  0.00    +0.038 A 
ATOM     15  C   UNL     1      -6.791 -12.404  -2.000  0.00  0.00    +0.024 A 
ATOM     16  C   UNL     1      -7.088 -13.403  -2.903  0.00  0.00    +0.002 A 
ATOM     17  C   UNL     1      -7.257 -14.705  -2.470  0.00  0.00    +0.000 A 
ATOM     18  C   UNL     1      -7.119 -15.007  -1.128  0.00  0.00    +0.005 A 
ENDBRANCH   4  10
BRANCH   1  22
ATOM     19  C   UNL     1      -2.902  -3.912   0.072  0.00  0.00    +0.121 A 
ATOM     20  C   UNL     1      -3.809  -4.521   0.927  0.00  0.00    +0.047 A 
ATOM     21  C   UNL     1      -3.976  -5.892   0.895  0.00  0.00    +0.027 A 
ATOM     22  C   UNL     1      -3.236  -6.660   0.006  0.00  0.00    +0.033 A 
ATOM     23  C   UNL     1      -2.328  -6.050  -0.850  0.00  0.00    +0.027 A 
ATOM     24  C   UNL     1      -2.167  -4.679  -0.820  0.00  0.00    +0.047 A 
BRANCH  19  25
ATOM     25  O   UNL     1      -2.738  -2.563   0.105  0.00  0.00    -0.492 OA
BRANCH  25  26
ATOM     26  C   UNL     1      -3.528  -1.836   1.048  0.00  0.00    +0.229 C 
BRANCH  26  27
ATOM     27  C   UNL     1      -3.209  -0.344   0.938  0.00  0.00    +0.041 C 
BRANCH  27  29
ATOM     28  C   UNL     1      -3.735   1.927   1.838  0.00  0.00    +0.004 C 
ATOM     29  C   UNL     1      -4.054   0.435   1.948  0.00  0.00    -0.000 C 
ENDBRANCH  27  29
ENDBRANCH  26  27
ENDBRANCH  25  26
ENDBRANCH  19  25
ENDBRANCH   1  22
BRANCH   3  30
ATOM     30  N   UNL     1      -3.738 -10.845   0.193  0.00  0.00    -0.353 N 
ATOM     31  H   UNL     1      -2.838 -10.481   0.189  0.00  0.00    +0.143 HD
ATOM     32  H   UNL     1      -3.873 -11.806   0.194  0.00  0.00    +0.143 HD
ENDBRANCH   3  30
TORSDOF 7
