REMARK  Name = ZINC54937002
REMARK  3 active torsions:
REMARK  status: ('A' for Active; 'I' for Inactive)
REMARK    1  A    between atoms: C_1  and  C_2
REMARK    2  A    between atoms: C_6  and  N_8
REMARK    3  A    between atoms: N_11  and  C_14
REMARK                            x       y       z     vdW  Elec       q    Type
REMARK                         _______ _______ _______ _____ _____    ______ ____
ROOT
ATOM      1  N   UNL     1       0.051  -2.671   2.381  0.00  0.00    -0.312 N 
ATOM      2  C   UNL     1       0.058  -1.932   3.651  0.00  0.00    +0.125 C 
ATOM      3  C   UNL     1      -1.126  -2.409   4.502  0.00  0.00    +0.124 C 
ATOM      4  N   UNL     1      -1.117  -3.878   4.537  0.00  0.00    -0.326 N 
ATOM      5  C   UNL     1      -1.125  -4.617   3.266  0.00  0.00    +0.124 C 
ATOM      6  C   UNL     1       0.053  -4.140   2.415  0.00  0.00    +0.125 C 
ENDROOT
BRANCH   4   7
ATOM      7  C   UNL     1      -1.102  -4.562   5.759  0.00  0.00    +0.046 A 
ATOM      8  C   UNL     1      -1.222  -3.864   6.960  0.00  0.00    +0.028 A 
ATOM      9  C   UNL     1      -1.202  -4.580   8.143  0.00  0.00    +0.043 A 
ATOM     10  C   UNL     1      -1.064  -5.964   8.095  0.00  0.00    +0.094 A 
ATOM     11  N   UNL     1      -0.953  -6.593   6.937  0.00  0.00    -0.348 N 
ATOM     12  C   UNL     1      -0.974  -5.942   5.789  0.00  0.00    +0.107 A 
ATOM     13  N   UNL     1      -1.043  -6.694   9.281  0.00  0.00    -0.345 N 
ATOM     14  H   UNL     1      -1.124  -6.238  10.133  0.00  0.00    +0.144 HD
ATOM     15  H   UNL     1      -0.947  -7.659   9.255  0.00  0.00    +0.144 HD
ATOM     16  H   UNL     1      -0.858  -7.559   6.931  0.00  0.00    +0.167 HD
ENDBRANCH   4   7
BRANCH   1  22
ATOM     17  C   UNL     1       0.007   1.489   0.002  0.00  0.00    +0.086 C 
ATOM     18  C   UNL     1       0.014  -0.018  -0.006  0.00  0.00    +0.106 A 
ATOM     19  N   UNL     1       0.006  -0.652  -1.161  0.00  0.00    -0.350 N 
ATOM     20  C   UNL     1       0.011  -1.977  -1.213  0.00  0.00    +0.087 A 
ATOM     21  C   UNL     1       0.026  -2.697  -0.035  0.00  0.00    +0.061 A 
ATOM     22  C   UNL     1       0.035  -1.994   1.172  0.00  0.00    +0.125 A 
ATOM     23  N   UNL     1       0.034  -0.665   1.142  0.00  0.00    -0.220 NA
ATOM     24  H   UNL     1      -0.005  -0.142  -1.986  0.00  0.00    +0.166 HD
ENDBRANCH   1  22
TORSDOF 2
