REMARK  Name = ZINC05906461
REMARK  2 active torsions:
REMARK  status: ('A' for Active; 'I' for Inactive)
REMARK    1  A    between atoms: C_5  and  C_6
REMARK    2  A    between atoms: N_7  and  C_8
REMARK                            x       y       z     vdW  Elec       q    Type
REMARK                         _______ _______ _______ _____ _____    ______ ____
ROOT
ATOM      1  C   UNL     1       0.002  -0.004   0.002  0.00  0.00    +0.145 C 
ATOM      2  C   UNL     1      -0.638  -0.499  -1.315  0.00  0.00    +0.194 C 
ATOM      3  S   UNL     1      -1.531  -2.007  -0.737  0.00  0.00    -0.028 S 
ATOM      4  O   UNL     1      -0.620  -3.094  -0.661  0.00  0.00    -0.174 OA
ATOM      5  O   UNL     1      -2.740  -2.149  -1.470  0.00  0.00    -0.174 OA
ATOM      6  C   UNL     1      -1.918  -1.413   0.968  0.00  0.00    +0.187 C 
ATOM      7  C   UNL     1      -0.700  -0.506   1.255  0.00  0.00    +0.127 C 
ATOM      8 CL   UNL     1      -1.256   0.917   2.212  0.00  0.00    -0.118 Cl
ENDROOT
BRANCH   1  10
ATOM      9  C   UNL     1       1.095   2.123   0.003  0.00  0.00    +0.116 C 
ATOM     10  N   UNL     1      -0.018   1.461   0.010  0.00  0.00    -0.284 NA
BRANCH   9  15
ATOM     11  C   UNL     1       2.234   4.501   0.005  0.00  0.00    +0.050 A 
ATOM     12  C   UNL     1       1.731   5.745   0.016  0.00  0.00    +0.195 A 
ATOM     13  O   UNL     1       0.391   5.678   0.029  0.00  0.00    -0.470 OA
ATOM     14  C   UNL     1      -0.023   4.406   0.020  0.00  0.00    +0.204 A 
ATOM     15  C   UNL     1       1.075   3.596   0.011  0.00  0.00    +0.030 A 
ENDBRANCH   9  15
ENDBRANCH   1  10
TORSDOF 2
