REMARK  Name = ZINC59037932
REMARK  9 active torsions:
REMARK  status: ('A' for Active; 'I' for Inactive)
REMARK    1  A    between atoms: C_1  and  N_2
REMARK    2  A    between atoms: N_2  and  S_3
REMARK    3  A    between atoms: S_3  and  C_6
REMARK    4  A    between atoms: C_9  and  C_12
REMARK    5  A    between atoms: C_12  and  N_13
REMARK    6  A    between atoms: N_16  and  C_17
REMARK    7  A    between atoms: C_17  and  C_18
REMARK    8  A    between atoms: C_18  and  C_20
REMARK    9  A    between atoms: C_18  and  N_25
REMARK                            x       y       z     vdW  Elec       q    Type
REMARK                         _______ _______ _______ _____ _____    ______ ____
ROOT
ATOM      1  N   UNL     1      -3.398   1.214  -6.016  0.00  0.00    -0.295 N 
ATOM      2  C   UNL     1      -3.887   1.716  -7.167  0.00  0.00    +0.300 C 
ATOM      3  O   UNL     1      -5.023   1.454  -7.511  0.00  0.00    -0.253 OA
ATOM      4  N   UNL     1      -3.116   2.510  -7.937  0.00  0.00    -0.301 N 
ATOM      5  H   UNL     1      -2.491   1.423  -5.742  0.00  0.00    +0.151 HD
ATOM      6  H   UNL     1      -2.209   2.719  -7.662  0.00  0.00    +0.150 HD
ENDROOT
BRANCH   1   7
ATOM      7  C   UNL     1      -4.236   0.351  -5.179  0.00  0.00    +0.141 C 
BRANCH   7  11
ATOM      8  C   UNL     1      -2.036  -0.855  -1.722  0.00  0.00    +0.105 A 
ATOM      9  C   UNL     1      -2.791   0.303  -1.691  0.00  0.00    +0.029 A 
ATOM     10  C   UNL     1      -3.503   0.693  -2.810  0.00  0.00    +0.007 A 
ATOM     11  C   UNL     1      -3.459  -0.074  -3.959  0.00  0.00    -0.030 A 
ATOM     12  C   UNL     1      -2.703  -1.230  -3.990  0.00  0.00    +0.007 A 
ATOM     13  C   UNL     1      -1.988  -1.619  -2.873  0.00  0.00    +0.029 A 
BRANCH   8  14
ATOM     14  S   UNL     1      -1.129  -1.352  -0.295  0.00  0.00    +0.058 S 
ATOM     15  O   UNL     1      -0.933  -2.755  -0.407  0.00  0.00    -0.153 OA
ATOM     16  O   UNL     1      -1.774  -0.759   0.824  0.00  0.00    -0.153 OA
BRANCH  14  18
ATOM     17  C   UNL     1       0.506   0.802  -0.344  0.00  0.00    +0.127 C 
ATOM     18  N   UNL     1       0.370  -0.655  -0.401  0.00  0.00    -0.193 NA
ATOM     19  H   UNL     1       1.158  -1.212  -0.500  0.00  0.00    +0.148 HD
ENDBRANCH  14  18
ENDBRANCH   8  14
ENDBRANCH   7  11
ENDBRANCH   1   7
BRANCH   4  20
ATOM     20  C   UNL     1      -3.647   3.056  -9.188  0.00  0.00    +0.095 C 
BRANCH  20  21
ATOM     21  C   UNL     1      -2.627   4.020  -9.797  0.00  0.00    -0.013 C 
BRANCH  21  22
ATOM     22  N   UNL     1      -3.102   4.468 -11.113  0.00  0.00    +0.386 N 
ATOM     23  C   UNL     1      -3.269   3.301 -12.005  0.00  0.00    -0.078 C 
ATOM     24  C   UNL     1      -2.845   3.811 -13.406  0.00  0.00    -0.020 C 
ATOM     25  C   UNL     1      -1.667   4.755 -13.052  0.00  0.00    -0.020 C 
ATOM     26  C   UNL     1      -2.112   5.380 -11.714  0.00  0.00    -0.078 C 
ATOM     27  H   UNL     1      -3.985   4.945 -11.012  0.00  0.00    -0.081 HD
ENDBRANCH  21  22
BRANCH  21  28
ATOM     28  C   UNL     1      -2.458   5.212  -8.891  0.00  0.00    -0.022 A 
ATOM     29  C   UNL     1      -1.475   5.471  -7.995  0.00  0.00    +0.009 A 
ATOM     30  C   UNL     1      -1.525   6.644  -7.264  0.00  0.00    +0.008 A 
ATOM     31  C   UNL     1      -2.557   7.500  -7.466  0.00  0.00    +0.045 A 
ATOM     32  S   UNL     1      -3.498   6.654  -8.725  0.00  0.00    -0.103 S 
ENDBRANCH  21  28
ENDBRANCH  20  21
ENDBRANCH   4  20
TORSDOF 8
