REMARK  Name = ZINC32542337
REMARK  10 active torsions:
REMARK  status: ('A' for Active; 'I' for Inactive)
REMARK    1  A    between atoms: C_1  and  C_2
REMARK    2  A    between atoms: C_2  and  C_4
REMARK    3  A    between atoms: C_2  and  N_14
REMARK    4  A    between atoms: C_7  and  S_10
REMARK    5  A    between atoms: S_10  and  N_13
REMARK    6  A    between atoms: N_14  and  C_15
REMARK    7  A    between atoms: N_14  and  C_16
REMARK    8  A    between atoms: C_16  and  C_17
REMARK    9  A    between atoms: N_22  and  C_23
REMARK   10  A    between atoms: C_23  and  C_24
REMARK                            x       y       z     vdW  Elec       q    Type
REMARK                         _______ _______ _______ _____ _____    ______ ____
ROOT
ATOM      1  N   UNL     1      -3.419   4.511   4.839  0.00  0.00    +0.388 N 
ATOM      2  C   UNL     1      -2.182   5.289   4.689  0.00  0.00    -0.095 C 
ATOM      3  H   UNL     1      -4.130   4.854   4.073  0.00  0.00    -0.081 HD
ENDROOT
BRANCH   1   5
ATOM      4  C   UNL     1      -2.034   2.612   5.525  0.00  0.00    -0.008 C 
ATOM      5  C   UNL     1      -3.171   3.080   4.616  0.00  0.00    -0.041 C 
BRANCH   5   6
ATOM      6  C   UNL     1      -2.789   2.855   3.176  0.00  0.00    -0.061 A 
ATOM      7  C   UNL     1      -1.849   1.895   2.853  0.00  0.00    +0.004 A 
ATOM      8  C   UNL     1      -1.498   1.688   1.531  0.00  0.00    +0.029 A 
ATOM      9  C   UNL     1      -2.087   2.442   0.534  0.00  0.00    +0.105 A 
ATOM     10  C   UNL     1      -3.023   3.406   0.858  0.00  0.00    +0.029 A 
ATOM     11  C   UNL     1      -3.378   3.610   2.178  0.00  0.00    +0.004 A 
BRANCH   9  12
ATOM     12  S   UNL     1      -1.640   2.179  -1.150  0.00  0.00    +0.056 S 
ATOM     13  O   UNL     1      -0.341   1.603  -1.140  0.00  0.00    -0.153 OA
ATOM     14  O   UNL     1      -1.932   3.386  -1.841  0.00  0.00    -0.153 OA
BRANCH  12  15
ATOM     15  N   UNL     1      -2.664   1.027  -1.755  0.00  0.00    -0.204 NA
ATOM     16  H   UNL     1      -2.417   0.834  -2.809  0.00  0.00    +0.144 HD
ATOM     17  H   UNL     1      -3.702   1.385  -1.681  0.00  0.00    +0.144 HD
ENDBRANCH  12  15
ENDBRANCH   9  12
ENDBRANCH   5   6
ENDBRANCH   1   5
BRANCH   1  18
ATOM     18  C   UNL     1      -4.029   4.740   6.156  0.00  0.00    +0.019 C 
BRANCH  18  19
ATOM     19  C   UNL     1      -4.492   6.171   6.252  0.00  0.00    +0.204 C 
ATOM     20  O   UNL     1      -4.330   6.926   5.317  0.00  0.00    -0.277 OA
ATOM     21  N   UNL     1      -5.086   6.613   7.379  0.00  0.00    -0.242 N 
ATOM     22  C   UNL     1      -5.500   7.893   7.465  0.00  0.00    +0.306 C 
ATOM     23  O   UNL     1      -5.337   8.649   6.527  0.00  0.00    -0.252 OA
ATOM     24  N   UNL     1      -6.094   8.334   8.591  0.00  0.00    -0.295 N 
ATOM     25  H   UNL     1      -5.234   5.929   8.227  0.00  0.00    +0.159 HD
ATOM     26  H   UNL     1      -6.242   7.650   9.440  0.00  0.00    +0.151 HD
BRANCH  24  27
ATOM     27  C   UNL     1      -6.544   9.725   8.685  0.00  0.00    +0.141 C 
BRANCH  27  28
ATOM     28  C   UNL     1      -7.170   9.961  10.036  0.00  0.00    -0.030 A 
ATOM     29  C   UNL     1      -8.526   9.759  10.214  0.00  0.00    +0.005 A 
ATOM     30  C   UNL     1      -9.099   9.970  11.454  0.00  0.00    +0.000 A 
ATOM     31  C   UNL     1      -8.318  10.393  12.513  0.00  0.00    +0.000 A 
ATOM     32  C   UNL     1      -6.963  10.601  12.334  0.00  0.00    +0.000 A 
ATOM     33  C   UNL     1      -6.389  10.384  11.095  0.00  0.00    +0.005 A 
ENDBRANCH  27  28
ENDBRANCH  24  27
ENDBRANCH  18  19
ENDBRANCH   1  18
TORSDOF 8
