REMARK  Name = ZINC40661795
REMARK  11 active torsions:
REMARK  status: ('A' for Active; 'I' for Inactive)
REMARK    1  A    between atoms: C_1  and  C_2
REMARK    2  A    between atoms: C_2  and  N_3
REMARK    3  A    between atoms: N_3  and  C_4
REMARK    4  A    between atoms: C_8  and  C_10
REMARK    5  A    between atoms: C_12  and  N_29
REMARK    6  A    between atoms: C_13  and  N_17
REMARK    7  A    between atoms: N_17  and  C_18
REMARK    8  A    between atoms: C_21  and  C_24
REMARK    9  A    between atoms: C_24  and  O_26
REMARK   10  A    between atoms: O_26  and  C_27
REMARK   11  A    between atoms: C_27  and  C_28
REMARK                            x       y       z     vdW  Elec       q    Type
REMARK                         _______ _______ _______ _____ _____    ______ ____
ROOT
ATOM      1  N   UNL     1       0.215  -1.321  -0.617  0.00  0.00    -0.284 N 
ATOM      2  C   UNL     1      -0.529  -1.519  -1.774  0.00  0.00    +0.151 A 
ATOM      3  C   UNL     1      -1.712  -0.808  -1.988  0.00  0.00    +0.104 A 
ATOM      4  C   UNL     1      -2.420  -1.045  -3.167  0.00  0.00    +0.126 A 
ATOM      5  N   UNL     1      -1.944  -1.933  -4.037  0.00  0.00    -0.333 N 
ATOM      6  C   UNL     1      -0.824  -2.583  -3.797  0.00  0.00    +0.200 A 
ATOM      7  N   UNL     1      -0.122  -2.385  -2.699  0.00  0.00    -0.220 NA
ATOM      8  H   UNL     1      -2.429  -2.105  -4.859  0.00  0.00    +0.168 HD
ENDROOT
BRANCH   1   9
ATOM      9  C   UNL     1       0.029  -2.160   0.485  0.00  0.00    +0.035 A 
ATOM     10  C   UNL     1       0.693  -1.900   1.678  0.00  0.00    +0.023 A 
ATOM     11  C   UNL     1       0.507  -2.731   2.765  0.00  0.00    +0.002 A 
ATOM     12  C   UNL     1      -0.339  -3.822   2.667  0.00  0.00    +0.003 A 
ATOM     13  C   UNL     1      -1.000  -4.083   1.482  0.00  0.00    -0.049 A 
ATOM     14  C   UNL     1      -0.824  -3.252   0.393  0.00  0.00    +0.026 A 
ATOM     15  C   UNL     1      -1.920  -5.273   1.379  0.00  0.00    +0.044 C 
ENDBRANCH   1   9
BRANCH   3  16
ATOM     16  N   UNL     1      -2.177   0.119  -1.042  0.00  0.00    -0.353 N 
ATOM     17  H   UNL     1      -1.717   0.219  -0.194  0.00  0.00    +0.143 HD
ATOM     18  H   UNL     1      -2.958   0.660  -1.237  0.00  0.00    +0.143 HD
ENDBRANCH   3  16
BRANCH   1  20
ATOM     19  C   UNL     1       2.583  -0.774  -0.892  0.00  0.00    +0.025 C 
ATOM     20  C   UNL     1       1.193  -0.232  -0.552  0.00  0.00    +0.109 C 
ENDBRANCH   1  20
BRANCH   4  21
ATOM     21  N   UNL     1      -3.604  -0.365  -3.429  0.00  0.00    -0.299 N 
ATOM     22  H   UNL     1      -3.898   0.344  -2.836  0.00  0.00    +0.154 HD
BRANCH  21  23
ATOM     23  C   UNL     1      -4.368  -0.701  -4.542  0.00  0.00    +0.032 A 
ATOM     24  C   UNL     1      -4.533  -2.039  -4.893  0.00  0.00    +0.024 A 
ATOM     25  C   UNL     1      -5.285  -2.374  -5.989  0.00  0.00    +0.017 A 
ATOM     26  C   UNL     1      -5.888  -1.370  -6.755  0.00  0.00    +0.059 A 
ATOM     27  C   UNL     1      -5.721  -0.028  -6.399  0.00  0.00    +0.017 A 
ATOM     28  C   UNL     1      -4.971   0.300  -5.299  0.00  0.00    +0.024 A 
BRANCH  26  29
ATOM     29  C   UNL     1      -6.697  -1.727  -7.934  0.00  0.00    +0.339 C 
ATOM     30  O   UNL     1      -6.841  -2.893  -8.242  0.00  0.00    -0.245 OA
BRANCH  29  31
ATOM     31  O   UNL     1      -7.277  -0.759  -8.671  0.00  0.00    -0.461 OA
BRANCH  31  32
ATOM     32  C   UNL     1      -8.046  -1.176  -9.800  0.00  0.00    +0.229 C 
ATOM     33  C   UNL     1      -8.622   0.052 -10.508  0.00  0.00    +0.048 C 
ENDBRANCH  31  32
ENDBRANCH  29  31
ENDBRANCH  26  29
ENDBRANCH  21  23
ENDBRANCH   4  21
TORSDOF 8
