REMARK  Name = ZINC28059523
REMARK  6 active torsions:
REMARK  status: ('A' for Active; 'I' for Inactive)
REMARK    1  A    between atoms: C_1  and  O_2
REMARK    2  A    between atoms: O_2  and  C_3
REMARK    3  A    between atoms: C_6  and  C_11
REMARK    4  A    between atoms: C_8  and  O_9
REMARK    5  A    between atoms: O_9  and  C_10
REMARK    6  A    between atoms: C_22  and  C_24
REMARK                            x       y       z     vdW  Elec       q    Type
REMARK                         _______ _______ _______ _____ _____    ______ ____
ROOT
ATOM      1  C   UNL     1      -2.879   1.285   0.003  0.00  0.00    +0.174 C 
ATOM      2  C   UNL     1      -3.524   1.433  -1.353  0.00  0.00    +0.025 C 
ATOM      3  C   UNL     1      -4.677   2.082  -1.530  0.00  0.00    +0.050 C 
ATOM      4  C   UNL     1      -5.242   2.157  -2.898  0.00  0.00    +0.038 A 
ATOM      5  C   UNL     1      -6.234   3.073  -3.225  0.00  0.00    +0.013 A 
ATOM      6  C   UNL     1      -6.733   3.106  -4.513  0.00  0.00    +0.001 A 
ATOM      7  C   UNL     1      -6.250   2.232  -5.471  0.00  0.00    +0.004 A 
ATOM      8  C   UNL     1      -5.263   1.317  -5.154  0.00  0.00    +0.046 A 
ATOM      9  C   UNL     1      -4.754   1.274  -3.870  0.00  0.00    +0.131 A 
ATOM     10  O   UNL     1      -3.781   0.394  -3.520  0.00  0.00    -0.479 OA
ATOM     11  C   UNL     1      -2.827   0.832  -2.553  0.00  0.00    +0.234 C 
ATOM     12  N   UNL     1      -5.370   2.677  -0.469  0.00  0.00    -0.282 N 
ATOM     13  C   UNL     1      -4.979   2.335   0.816  0.00  0.00    +0.240 A 
ATOM     14  N   UNL     1      -3.815   1.678   1.046  0.00  0.00    -0.201 N 
ATOM     15  N   UNL     1      -3.759   1.495   2.430  0.00  0.00    -0.042 NA
ATOM     16  N   UNL     1      -4.831   2.034   2.915  0.00  0.00    -0.021 NA
ATOM     17  N   UNL     1      -5.551   2.531   1.968  0.00  0.00    -0.092 NA
ATOM     18  H   UNL     1      -6.188   3.383  -0.673  0.00  0.00    +0.155 HD
ENDROOT
BRANCH  11  19
ATOM     19  C   UNL     1      -1.927   1.868  -3.176  0.00  0.00    -0.002 A 
ATOM     20  C   UNL     1      -0.557   1.782  -3.013  0.00  0.00    +0.007 A 
ATOM     21  C   UNL     1       0.269   2.729  -3.589  0.00  0.00    +0.001 A 
ATOM     22  C   UNL     1      -0.275   3.769  -4.319  0.00  0.00    +0.015 A 
ATOM     23  C   UNL     1      -1.646   3.858  -4.479  0.00  0.00    +0.018 A 
ATOM     24  C   UNL     1      -2.472   2.907  -3.906  0.00  0.00    +0.022 A 
ATOM     25 BR   UNL     1      -2.392   5.280  -5.477  0.00  0.00    -0.050 Br
ENDBRANCH  11  19
BRANCH   1  29
ATOM     26  C   UNL     1       0.589   3.781   0.195  0.00  0.00    +0.162 A 
ATOM     27  C   UNL     1      -0.659   4.340  -0.026  0.00  0.00    +0.050 A 
ATOM     28  C   UNL     1      -1.779   3.531  -0.084  0.00  0.00    +0.010 A 
ATOM     29  C   UNL     1      -1.656   2.163   0.072  0.00  0.00    -0.015 A 
ATOM     30  C   UNL     1      -0.414   1.599   0.298  0.00  0.00    +0.055 A 
ATOM     31  C   UNL     1       0.712   2.404   0.357  0.00  0.00    +0.162 A 
BRANCH  26  33
ATOM     32  C   UNL     1       1.490   5.979   0.076  0.00  0.00    +0.277 C 
ATOM     33  O   UNL     1       1.691   4.575   0.251  0.00  0.00    -0.491 OA
ENDBRANCH  26  33
BRANCH  31  34
ATOM     34  O   UNL     1       1.935   1.850   0.574  0.00  0.00    -0.491 OA
ATOM     35  C   UNL     1       1.986   0.431   0.731  0.00  0.00    +0.277 C 
ENDBRANCH  31  34
ENDBRANCH   1  29
TORSDOF 4
