REMARK  Name = ZINC08767043
REMARK  11 active torsions:
REMARK  status: ('A' for Active; 'I' for Inactive)
REMARK    1  A    between atoms: C_1  and  C_2
REMARK    2  A    between atoms: C_2  and  O_3
REMARK    3  A    between atoms: O_3  and  C_4
REMARK    4  A    between atoms: C_4  and  C_6
REMARK    5  A    between atoms: C_7  and  C_38
REMARK    6  A    between atoms: C_14  and  C_15
REMARK    7  A    between atoms: C_18  and  N_20
REMARK    8  A    between atoms: C_25  and  N_67
REMARK    9  A    between atoms: C_27  and  C_29
REMARK   10  A    between atoms: C_32  and  O_36
REMARK   11  A    between atoms: O_36  and  C_37
REMARK                            x       y       z     vdW  Elec       q    Type
REMARK                         _______ _______ _______ _____ _____    ______ ____
ROOT
ATOM      1  C   UNL     1      -1.196   2.156  -0.203  0.00  0.00    +0.085 C 
ATOM      2  C   UNL     1      -0.023   1.504   0.063  0.00  0.00    +0.053 C 
ATOM      3  N   UNL     1       1.107   2.183   0.215  0.00  0.00    -0.228 NA
ATOM      4  C   UNL     1       1.212   3.487   0.134  0.00  0.00    +0.178 A 
ATOM      5  N   UNL     1       0.156   4.328  -0.120  0.00  0.00    -0.275 N 
ATOM      6  C   UNL     1       0.396   5.645  -0.177  0.00  0.00    +0.268 A 
ATOM      7  O   UNL     1      -0.503   6.437  -0.400  0.00  0.00    -0.266 OA
ATOM      8  C   UNL     1       1.725   6.090   0.029  0.00  0.00    +0.084 A 
ATOM      9  C   UNL     1       2.227   7.375   0.022  0.00  0.00    +0.067 C 
ATOM     10  S   UNL     1       2.574   4.544   0.299  0.00  0.00    -0.046 S 
ATOM     11  C   UNL     1      -1.163   3.664  -0.307  0.00  0.00    +0.162 C 
ATOM     12  C   UNL     1      -0.013   0.002   0.180  0.00  0.00    +0.066 C 
ENDROOT
BRANCH  11  13
ATOM     13  C   UNL     1      -2.114   4.223   0.720  0.00  0.00    -0.019 A 
ATOM     14  C   UNL     1      -3.425   4.491   0.372  0.00  0.00    +0.009 A 
ATOM     15  C   UNL     1      -4.299   5.004   1.312  0.00  0.00    +0.047 A 
ATOM     16  C   UNL     1      -3.861   5.250   2.604  0.00  0.00    +0.134 A 
ATOM     17  C   UNL     1      -2.544   4.980   2.951  0.00  0.00    +0.060 A 
ATOM     18  C   UNL     1      -1.675   4.462   2.009  0.00  0.00    +0.025 A 
ATOM     19 BR   UNL     1      -1.942   5.313   4.712  0.00  0.00    -0.047 Br
BRANCH  16  20
ATOM     20  O   UNL     1      -4.719   5.753   3.530  0.00  0.00    -0.494 OA
ATOM     21  C   UNL     1      -6.059   6.006   3.103  0.00  0.00    +0.277 C 
ENDBRANCH  16  20
ENDBRANCH  11  13
BRANCH   9  22
ATOM     22  C   UNL     1       1.352   8.472  -0.069  0.00  0.00    +0.131 A 
ATOM     23  C   UNL     1       1.722   9.803  -0.175  0.00  0.00    +0.051 A 
ATOM     24  C   UNL     1       0.539  10.543  -0.239  0.00  0.00    +0.066 A 
ATOM     25  C   UNL     1      -0.497   9.656  -0.171  0.00  0.00    +0.189 A 
ATOM     26  O   UNL     1       0.001   8.413  -0.075  0.00  0.00    -0.442 OA
BRANCH  25  27
ATOM     27  N   UNL     1      -1.837   9.984  -0.202  0.00  0.00    -0.305 N 
ATOM     28  C   UNL     1      -2.171  10.939   0.864  0.00  0.00    +0.089 C 
ATOM     29  C   UNL     1      -3.644  11.337   0.747  0.00  0.00    -0.060 C 
ATOM     30  C   UNL     1      -4.149   9.178  -0.226  0.00  0.00    -0.060 C 
ATOM     31  C   UNL     1      -2.676   8.781  -0.108  0.00  0.00    +0.089 C 
ATOM     32  C   UNL     1      -5.909  10.482   0.808  0.00  0.00    -0.096 C 
ATOM     33  N   UNL     1      -4.476  10.121   0.865  0.00  0.00    +0.380 N 
ATOM     34  H   UNL     1      -4.282   9.669   1.766  0.00  0.00    -0.082 HD
ENDBRANCH  25  27
ENDBRANCH   9  22
BRANCH   1  35
ATOM     35  C   UNL     1      -2.394   1.446  -0.371  0.00  0.00    +0.339 C 
ATOM     36  O   UNL     1      -2.400   0.231  -0.280  0.00  0.00    -0.245 OA
BRANCH  35  37
ATOM     37  O   UNL     1      -3.541   2.109  -0.634  0.00  0.00    -0.462 OA
BRANCH  37  39
ATOM     38  C   UNL     1      -5.912   2.241  -1.083  0.00  0.00    +0.048 C 
ATOM     39  C   UNL     1      -4.724   1.322  -0.793  0.00  0.00    +0.229 C 
ENDBRANCH  37  39
ENDBRANCH  35  37
ENDBRANCH   1  35
TORSDOF 7
