REMARK  Name = ZINC05415792
REMARK  4 active torsions:
REMARK  status: ('A' for Active; 'I' for Inactive)
REMARK    1  A    between atoms: C_8  and  C_10
REMARK    2  A    between atoms: N_17  and  C_20
REMARK    3  A    between atoms: C_20  and  C_21
REMARK    4  A    between atoms: C_21  and  O_22
REMARK                            x       y       z     vdW  Elec       q    Type
REMARK                         _______ _______ _______ _____ _____    ______ ____
ROOT
ATOM      1  C   UNL     1       3.946   0.116  -1.536  0.00  0.00    +0.127 C 
ATOM      2  C   UNL     1       3.599   1.025  -0.345  0.00  0.00    +0.129 C 
ATOM      3  N   UNL     1       2.158   0.906  -0.081  0.00  0.00    -0.271 N 
ATOM      4  C   UNL     1       1.463  -0.393   0.046  0.00  0.00    +0.181 C 
ATOM      5  C   UNL     1       1.829  -1.248  -1.174  0.00  0.00    +0.139 C 
ATOM      6  N   UNL     1       3.288  -1.184  -1.353  0.00  0.00    -0.299 N 
ATOM      7  C   UNL     1       4.019  -2.316  -1.350  0.00  0.00    +0.202 C 
ATOM      8  O   UNL     1       3.474  -3.389  -1.199  0.00  0.00    -0.277 OA
ATOM      9  C   UNL     1       0.002  -0.004   0.002  0.00  0.00    +0.245 C 
ATOM     10  O   UNL     1      -0.954  -0.749  -0.033  0.00  0.00    -0.273 OA
ATOM     11  N   UNL     1      -0.016   1.346   0.009  0.00  0.00    -0.222 N 
ATOM     12  C   UNL     1       1.224   1.857   0.000  0.00  0.00    +0.312 C 
ATOM     13  O   UNL     1       1.468   3.046   0.059  0.00  0.00    -0.252 OA
ENDROOT
BRANCH   7  14
ATOM     14  C   UNL     1       5.513  -2.249  -1.534  0.00  0.00    +0.027 C 
ATOM     15  C   UNL     1       5.838  -2.087  -3.042  0.00  0.00    +0.060 C 
ATOM     16  S   UNL     1       7.445  -2.979  -3.160  0.00  0.00    -0.181 S 
ATOM     17  C   UNL     1       7.562  -3.555  -1.412  0.00  0.00    -0.011 C 
ATOM     18  N   UNL     1       6.123  -3.486  -1.005  0.00  0.00    +0.393 N 
ATOM     19  H   UNL     1       5.623  -4.300  -1.381  0.00  0.00    -0.084 HD
ATOM     20  H   UNL     1       6.058  -3.487   0.019  0.00  0.00    -0.084 HD
ENDBRANCH   7  14
BRANCH  11  21
ATOM     21  C   UNL     1      -1.239   2.152   0.020  0.00  0.00    +0.146 C 
BRANCH  21  22
ATOM     22  C   UNL     1      -1.658   2.425   1.466  0.00  0.00    +0.175 C 
BRANCH  22  23
ATOM     23  O   UNL     1      -0.667   3.233   2.104  0.00  0.00    -0.393 OA
ATOM     24  H   UNL     1      -0.868   3.446   3.026  0.00  0.00    +0.209 HD
ENDBRANCH  22  23
ENDBRANCH  21  22
ENDBRANCH  11  21
TORSDOF 4
