REMARK  Name = ZINC12879876
REMARK  5 active torsions:
REMARK  status: ('A' for Active; 'I' for Inactive)
REMARK    1  A    between atoms: C_1  and  C_2
REMARK    2  A    between atoms: C_16  and  C_18
REMARK    3  A    between atoms: C_18  and  C_19
REMARK    4  A    between atoms: N_24  and  C_27
REMARK    5  A    between atoms: C_30  and  C_33
REMARK                            x       y       z     vdW  Elec       q    Type
REMARK                         _______ _______ _______ _____ _____    ______ ____
ROOT
ATOM      1  C   UNL     1       2.197   3.943   1.115  0.00  0.00    +0.047 C 
ATOM      2  C   UNL     1       0.949   3.157   0.804  0.00  0.00    -0.011 A 
ATOM      3  C   UNL     1       1.024   1.789   0.625  0.00  0.00    +0.046 A 
ATOM      4  C   UNL     1      -0.117   1.060   0.338  0.00  0.00    +0.020 A 
ATOM      5  C   UNL     1      -1.336   1.704   0.223  0.00  0.00    +0.006 A 
ATOM      6  C   UNL     1      -1.415   3.066   0.407  0.00  0.00    -0.027 A 
ATOM      7  C   UNL     1      -0.275   3.811   0.696  0.00  0.00    +0.040 A 
ATOM      8  N   UNL     1      -0.602   5.162   0.831  0.00  0.00    -0.286 N 
ATOM      9  C   UNL     1      -1.918   5.387   0.648  0.00  0.00    +0.211 C 
ATOM     10  O   UNL     1      -2.485   6.458   0.705  0.00  0.00    -0.277 OA
ATOM     11  C   UNL     1      -2.548   4.052   0.360  0.00  0.00    +0.050 C 
ATOM     12  C   UNL     1      -3.245   4.044  -1.006  0.00  0.00    +0.088 C 
ATOM     13  C   UNL     1      -4.496   3.144  -0.801  0.00  0.00    +0.074 C 
ATOM     14  C   UNL     1      -4.420   2.689   0.672  0.00  0.00    -0.049 C 
ATOM     15  C   UNL     1      -5.650   4.106  -0.968  0.00  0.00    +0.228 C 
ATOM     16  O   UNL     1      -6.823   3.815  -0.877  0.00  0.00    -0.275 OA
ATOM     17  N   UNL     1      -5.175   5.329  -1.231  0.00  0.00    -0.210 N 
ATOM     18  C   UNL     1      -3.840   5.407  -1.279  0.00  0.00    +0.229 C 
ATOM     19  O   UNL     1      -3.206   6.415  -1.506  0.00  0.00    -0.275 OA
ATOM     20 CL   UNL     1       2.554   0.982   0.762  0.00  0.00    -0.083 Cl
ATOM     21  H   UNL     1       0.043   5.858   1.033  0.00  0.00    +0.155 HD
ATOM     22  N   UNL     1      -3.587   3.709   1.315  0.00  0.00    +0.394 N 
ATOM     23  H   UNL     1      -4.151   4.537   1.540  0.00  0.00    -0.083 HD
ATOM     24  H   UNL     1      -3.170   3.335   2.175  0.00  0.00    -0.083 HD
ENDROOT
BRANCH  17  25
ATOM     25  C   UNL     1      -6.005   6.434  -1.439  0.00  0.00    +0.044 A 
ATOM     26  C   UNL     1      -6.068   7.027  -2.695  0.00  0.00    +0.025 A 
ATOM     27  C   UNL     1      -6.889   8.113  -2.905  0.00  0.00    +0.015 A 
ATOM     28  C   UNL     1      -7.651   8.624  -1.852  0.00  0.00    +0.037 A 
ATOM     29  C   UNL     1      -7.582   8.029  -0.590  0.00  0.00    +0.015 A 
ATOM     30  C   UNL     1      -6.763   6.940  -0.389  0.00  0.00    +0.025 A 
BRANCH  28  31
ATOM     31  C   UNL     1      -8.528   9.791  -2.071  0.00  0.00    +0.242 C 
ATOM     32  O   UNL     1      -9.191  10.235  -1.154  0.00  0.00    -0.270 OA
ATOM     33  N   UNL     1      -8.594  10.365  -3.289  0.00  0.00    -0.325 N 
ATOM     34  H   UNL     1      -8.065  10.011  -4.021  0.00  0.00    +0.145 HD
ATOM     35  H   UNL     1      -9.171  11.132  -3.434  0.00  0.00    +0.145 HD
ENDBRANCH  28  31
ENDBRANCH  17  25
BRANCH  14  36
ATOM     36  C   UNL     1      -5.820   2.642   1.287  0.00  0.00    +0.080 C 
BRANCH  36  37
ATOM     37  C   UNL     1      -5.727   2.152   2.709  0.00  0.00    +0.209 C 
ATOM     38  O   UNL     1      -4.648   1.868   3.184  0.00  0.00    -0.276 OA
ATOM     39  N   UNL     1      -6.844   2.029   3.454  0.00  0.00    -0.329 N 
ATOM     40  H   UNL     1      -7.707   2.256   3.074  0.00  0.00    +0.145 HD
ATOM     41  H   UNL     1      -6.784   1.713   4.369  0.00  0.00    +0.145 HD
ENDBRANCH  36  37
ENDBRANCH  14  36
TORSDOF 4
