REMARK  Name = ZINC09441854
REMARK  7 active torsions:
REMARK  status: ('A' for Active; 'I' for Inactive)
REMARK    1  A    between atoms: C_1  and  C_2
REMARK    2  A    between atoms: C_6  and  C_7
REMARK    3  A    between atoms: N_19  and  C_21
REMARK    4  A    between atoms: C_21  and  C_22
REMARK    5  A    between atoms: N_24  and  C_25
REMARK    6  A    between atoms: C_25  and  C_27
REMARK    7  A    between atoms: C_25  and  C_28
REMARK                            x       y       z     vdW  Elec       q    Type
REMARK                         _______ _______ _______ _____ _____    ______ ____
ROOT
ATOM      1  C   UNL     1      -6.583  -5.460  -4.738  0.00  0.00    +0.048 C 
ATOM      2  C   UNL     1      -8.072  -5.270  -4.875  0.00  0.00    +0.009 A 
ATOM      3  C   UNL     1      -8.817  -4.179  -4.439  0.00  0.00    +0.047 A 
ATOM      4  C   UNL     1     -10.130  -4.394  -4.802  0.00  0.00    +0.116 A 
ATOM      5  O   UNL     1     -10.196  -5.591  -5.383  0.00  0.00    -0.454 OA
ATOM      6  C   UNL     1      -8.960  -6.136  -5.453  0.00  0.00    +0.193 A 
ATOM      7  C   UNL     1     -11.220  -3.381  -4.579  0.00  0.00    +0.080 C 
ATOM      8  C   UNL     1     -10.972  -2.544  -3.324  0.00  0.00    +0.046 C 
ATOM      9  C   UNL     1      -9.530  -2.123  -3.225  0.00  0.00    -0.002 A 
ATOM     10  C   UNL     1      -8.466  -2.927  -3.732  0.00  0.00    +0.099 A 
ATOM     11  N   UNL     1      -7.345  -2.337  -3.468  0.00  0.00    -0.170 NA
ATOM     12  N   UNL     1      -7.635  -1.135  -2.798  0.00  0.00    -0.262 N 
ATOM     13  C   UNL     1      -8.980  -1.034  -2.674  0.00  0.00    +0.113 A 
ENDROOT
BRANCH   6  14
ATOM     14  C   UNL     1      -8.628  -7.435  -6.049  0.00  0.00    +0.282 C 
ATOM     15  O   UNL     1      -7.475  -7.825  -6.055  0.00  0.00    -0.267 OA
ATOM     16  N   UNL     1      -9.600  -8.197  -6.588  0.00  0.00    -0.295 N 
ATOM     17  C   UNL     1     -11.028  -7.853  -6.642  0.00  0.00    +0.108 C 
ATOM     18  C   UNL     1     -11.758  -9.029  -7.324  0.00  0.00    +0.020 C 
ATOM     19  C   UNL     1     -10.785 -10.216  -7.099  0.00  0.00    +0.020 C 
ATOM     20  C   UNL     1      -9.408  -9.517  -7.217  0.00  0.00    +0.108 C 
ENDBRANCH   6  14
BRANCH  12  21
ATOM     21  C   UNL     1      -6.653  -0.158  -2.322  0.00  0.00    +0.239 C 
BRANCH  21  22
ATOM     22  C   UNL     1      -5.660  -0.844  -1.419  0.00  0.00    +0.235 C 
ATOM     23  O   UNL     1      -5.762  -2.031  -1.195  0.00  0.00    -0.274 OA
ATOM     24  N   UNL     1      -4.657  -0.137  -0.860  0.00  0.00    -0.307 N 
ATOM     25  H   UNL     1      -4.575   0.813  -1.039  0.00  0.00    +0.149 HD
BRANCH  24  26
ATOM     26  C   UNL     1      -3.692  -0.803   0.018  0.00  0.00    +0.100 C 
ATOM     27  C   UNL     1      -4.250  -0.858   1.441  0.00  0.00    +0.033 C 
BRANCH  26  28
ATOM     28  C   UNL     1      -2.397  -0.033   0.016  0.00  0.00    -0.024 A 
ATOM     29  C   UNL     1      -2.415   1.349   0.025  0.00  0.00    +0.009 A 
ATOM     30  C   UNL     1      -1.229   2.059   0.019  0.00  0.00    +0.050 A 
ATOM     31  C   UNL     1      -0.017   1.385   0.010  0.00  0.00    +0.162 A 
ATOM     32  C   UNL     1       0.002  -0.004   0.002  0.00  0.00    +0.162 A 
ATOM     33  C   UNL     1      -1.192  -0.710   0.004  0.00  0.00    +0.055 A 
ATOM     34  O   UNL     1       1.181  -0.685  -0.007  0.00  0.00    -0.485 OA
ATOM     35  C   UNL     1       2.347   0.053  -0.387  0.00  0.00    +0.270 C 
ATOM     36  C   UNL     1       2.334   1.392   0.364  0.00  0.00    +0.270 C 
ATOM     37  O   UNL     1       1.143   2.098   0.002  0.00  0.00    -0.485 OA
ENDBRANCH  26  28
ENDBRANCH  24  26
ENDBRANCH  21  22
ENDBRANCH  12  21
TORSDOF 5
