REMARK  Name = ZINC27833434
REMARK  4 active torsions:
REMARK  status: ('A' for Active; 'I' for Inactive)
REMARK    1  A    between atoms: C_2  and  C_3
REMARK    2  A    between atoms: C_3  and  S_4
REMARK    3  A    between atoms: S_4  and  C_5
REMARK    4  A    between atoms: C_16  and  N_19
REMARK                            x       y       z     vdW  Elec       q    Type
REMARK                         _______ _______ _______ _____ _____    ______ ____
ROOT
ATOM      1  C   UNL     1      -3.071   1.758  -0.168  0.00  0.00    +0.154 C 
ATOM      2  N   UNL     1      -2.936   3.054   0.058  0.00  0.00    -0.219 NA
ATOM      3  C   UNL     1      -1.875   3.681  -0.491  0.00  0.00    +0.107 A 
ATOM      4  C   UNL     1      -0.801   3.055  -1.090  0.00  0.00    -0.009 A 
ATOM      5  C   UNL     1       0.206   3.864  -1.625  0.00  0.00    -0.032 A 
ATOM      6  C   UNL     1       0.055   5.211  -1.507  0.00  0.00    -0.005 A 
ATOM      7  S   UNL     1      -1.491   5.400  -0.655  0.00  0.00    -0.074 S 
ATOM      8  C   UNL     1       0.983   6.279  -1.989  0.00  0.00    +0.043 C 
ATOM      9  C   UNL     1       2.333   5.629  -2.329  0.00  0.00    +0.005 C 
ATOM     10  C   UNL     1       2.076   4.381  -3.178  0.00  0.00    +0.005 C 
ATOM     11  C   UNL     1       1.437   3.288  -2.321  0.00  0.00    +0.036 C 
ATOM     12  C   UNL     1      -0.795   1.527  -1.120  0.00  0.00    +0.045 C 
ATOM     13  N   UNL     1      -2.197   1.097  -1.000  0.00  0.00    -0.334 N 
ATOM     14  H   UNL     1      -2.560   0.237  -1.581  0.00  0.00    +0.146 HD
ENDROOT
BRANCH  12  15
ATOM     15  N   UNL     1      -0.012   1.005   0.008  0.00  0.00    +0.393 N 
ATOM     16  H   UNL     1      -0.013  -0.095  -0.023  0.00  0.00    -0.087 HD
ATOM     17  H   UNL     1      -0.457   1.346   0.954  0.00  0.00    -0.087 HD
ATOM     18  H   UNL     1       1.023   1.372  -0.064  0.00  0.00    -0.087 HD
ENDBRANCH  12  15
BRANCH   1  19
ATOM     19  S   UNL     1      -4.383   0.869   0.603  0.00  0.00    -0.085 S 
BRANCH  19  20
ATOM     20  C   UNL     1      -5.164   2.208   1.536  0.00  0.00    +0.119 C 
BRANCH  20  22
ATOM     21  C   UNL     1      -6.264   1.482   3.592  0.00  0.00    +0.021 C 
ATOM     22  C   UNL     1      -6.347   1.667   2.297  0.00  0.00    -0.001 C 
ATOM     23 BR   UNL     1      -7.951   1.254   1.383  0.00  0.00    -0.055 Br
ENDBRANCH  20  22
ENDBRANCH  19  20
ENDBRANCH   1  19
TORSDOF 4
