REMARK  Name = ZINC60361363
REMARK  5 active torsions:
REMARK  status: ('A' for Active; 'I' for Inactive)
REMARK    1  A    between atoms: C_1  and  C_2
REMARK    2  A    between atoms: C_2  and  C_4
REMARK    3  A    between atoms: C_2  and  N_15
REMARK    4  A    between atoms: N_6  and  C_7
REMARK    5  A    between atoms: C_8  and  C_12
REMARK                            x       y       z     vdW  Elec       q    Type
REMARK                         _______ _______ _______ _____ _____    ______ ____
ROOT
ATOM      1  C   UNL     1      -0.008   1.526   0.003  0.00  0.00    -0.004 C 
ATOM      2  C   UNL     1       0.002  -0.004   0.002  0.00  0.00    +0.017 C 
ENDROOT
BRANCH   2   3
ATOM      3  N   UNL     1       0.814  -0.489   1.126  0.00  0.00    +0.392 N 
ATOM      4  C   UNL     1       2.129   0.152   1.079  0.00  0.00    -0.041 C 
ATOM      5  C   UNL     1       2.996  -0.443   0.006  0.00  0.00    -0.056 A 
ATOM      6  C   UNL     1       3.187   0.204  -1.197  0.00  0.00    +0.002 A 
ATOM      7  C   UNL     1       4.007  -0.358  -2.160  0.00  0.00    +0.000 A 
ATOM      8  C   UNL     1       4.640  -1.565  -1.925  0.00  0.00    +0.001 A 
ATOM      9  C   UNL     1       4.451  -2.226  -0.726  0.00  0.00    +0.009 A 
ATOM     10  C   UNL     1       3.621  -1.669   0.238  0.00  0.00    -0.016 A 
ATOM     11  C   UNL     1       3.346  -2.359   1.521  0.00  0.00    -0.016 A 
ATOM     12  C   UNL     1       4.367  -2.884   2.302  0.00  0.00    +0.009 A 
ATOM     13  C   UNL     1       4.061  -3.501   3.499  0.00  0.00    +0.001 A 
ATOM     14  C   UNL     1       2.744  -3.593   3.916  0.00  0.00    +0.000 A 
ATOM     15  C   UNL     1       1.724  -3.078   3.136  0.00  0.00    +0.002 A 
ATOM     16  C   UNL     1       2.017  -2.469   1.934  0.00  0.00    -0.056 A 
ATOM     17  C   UNL     1       0.927  -1.945   1.042  0.00  0.00    -0.041 C 
ATOM     18  H   UNL     1       0.358  -0.243   1.992  0.00  0.00    -0.080 HD
ENDBRANCH   2   3
BRANCH   2  19
ATOM     19  C   UNL     1      -1.408  -0.516   0.143  0.00  0.00    +0.204 C 
ATOM     20  O   UNL     1      -1.708  -1.215   1.088  0.00  0.00    -0.277 OA
ATOM     21  N   UNL     1      -2.337  -0.196  -0.779  0.00  0.00    -0.281 N 
ATOM     22  H   UNL     1      -2.097   0.364  -1.535  0.00  0.00    +0.155 HD
BRANCH  21  23
ATOM     23  C   UNL     1      -3.635  -0.666  -0.649  0.00  0.00    +0.084 A 
ATOM     24  C   UNL     1      -4.711  -0.446  -1.497  0.00  0.00    +0.065 A 
ATOM     25  C   UNL     1      -5.964  -1.060  -1.122  0.00  0.00    +0.022 A 
ATOM     26  C   UNL     1      -5.948  -1.781   0.014  0.00  0.00    +0.048 A 
ATOM     27  S   UNL     1      -4.262  -1.639   0.565  0.00  0.00    -0.081 S 
BRANCH  24  28
ATOM     28  C   UNL     1      -4.583   0.368  -2.710  0.00  0.00    +0.244 C 
ATOM     29  O   UNL     1      -3.512   0.871  -2.995  0.00  0.00    -0.270 OA
ATOM     30  N   UNL     1      -5.651   0.559  -3.508  0.00  0.00    -0.325 N 
ATOM     31  H   UNL     1      -6.505   0.159  -3.281  0.00  0.00    +0.145 HD
ATOM     32  H   UNL     1      -5.567   1.098  -4.311  0.00  0.00    +0.145 HD
ENDBRANCH  24  28
ENDBRANCH  21  23
ENDBRANCH   2  19
TORSDOF 4
