REMARK  Name = ZINC39711669
REMARK  11 active torsions:
REMARK  status: ('A' for Active; 'I' for Inactive)
REMARK    1  A    between atoms: C_1  and  O_2
REMARK    2  A    between atoms: O_2  and  C_3
REMARK    3  A    between atoms: C_3  and  C_4
REMARK    4  A    between atoms: C_4  and  N_5
REMARK    5  A    between atoms: C_6  and  C_10
REMARK    6  A    between atoms: C_10  and  C_12
REMARK    7  A    between atoms: C_10  and  N_27
REMARK    8  A    between atoms: N_27  and  C_28
REMARK    9  A    between atoms: N_27  and  C_34
REMARK   10  A    between atoms: C_28  and  C_29
REMARK   11  A    between atoms: C_34  and  C_35
REMARK                            x       y       z     vdW  Elec       q    Type
REMARK                         _______ _______ _______ _____ _____    ______ ____
ROOT
ATOM      1  C   UNL     1       3.672  -2.383   1.600  0.00  0.00    +0.143 C 
ENDROOT
BRANCH   1   2
ATOM      2  C   UNL     1       3.632  -3.513   0.570  0.00  0.00    +0.123 C 
ATOM      3  C   UNL     1       2.221  -3.594   0.022  0.00  0.00    -0.003 C 
ATOM      4  C   UNL     1       1.564  -4.777   0.157  0.00  0.00    -0.003 A 
ATOM      5  C   UNL     1       0.198  -4.936  -0.344  0.00  0.00    +0.059 A 
ATOM      6  C   UNL     1      -0.431  -6.130  -0.193  0.00  0.00    +0.167 A 
ATOM      7  C   UNL     1       0.210  -7.219   0.439  0.00  0.00    +0.168 A 
ATOM      8  C   UNL     1       1.496  -7.120   0.927  0.00  0.00    +0.073 A 
ATOM      9  C   UNL     1       2.217  -5.925   0.814  0.00  0.00    +0.044 A 
ATOM     10  N   UNL     1       3.461  -5.850   1.294  0.00  0.00    -0.284 N 
ATOM     11  C   UNL     1       4.196  -4.755   1.222  0.00  0.00    +0.226 C 
ATOM     12  O   UNL     1       5.324  -4.747   1.679  0.00  0.00    -0.275 OA
ATOM     13  O   UNL     1      -0.654  -8.274   0.447  0.00  0.00    -0.453 OA
ATOM     14  C   UNL     1      -1.956  -7.713   0.203  0.00  0.00    +0.466 C 
ATOM     15  O   UNL     1      -1.685  -6.527  -0.566  0.00  0.00    -0.453 OA
ATOM     16  H   UNL     1       3.841  -6.636   1.716  0.00  0.00    +0.155 HD
ENDBRANCH   1   2
BRANCH   1  18
ATOM     17  N   UNL     1       1.752  -2.565   3.269  0.00  0.00    -0.225 N 
ATOM     18  C   UNL     1       3.009  -2.840   2.874  0.00  0.00    +0.170 A 
ATOM     19  N   UNL     1       3.543  -3.584   3.811  0.00  0.00    -0.112 NA
ATOM     20  N   UNL     1       2.660  -3.756   4.734  0.00  0.00    -0.023 NA
ATOM     21  N   UNL     1       1.579  -3.137   4.412  0.00  0.00    -0.044 NA
BRANCH  17  22
ATOM     22  C   UNL     1       0.767  -1.760   2.540  0.00  0.00    +0.175 C 
BRANCH  22  23
ATOM     23  C   UNL     1       0.901  -0.293   2.954  0.00  0.00    +0.183 C 
BRANCH  23  25
ATOM     24  C   UNL     1      -0.019   1.884   2.558  0.00  0.00    +0.194 C 
ATOM     25  O   UNL     1      -0.059   0.491   2.243  0.00  0.00    -0.381 OA
ENDBRANCH  23  25
ENDBRANCH  22  23
ENDBRANCH  17  22
ENDBRANCH   1  18
BRANCH   1  26
ATOM     26  N   UNL     1       5.069  -2.023   1.878  0.00  0.00    -0.280 NA
BRANCH  26  27
ATOM     27  C   UNL     1       5.146  -0.814   2.710  0.00  0.00    +0.159 C 
BRANCH  27  28
ATOM     28  C   UNL     1       4.573  -1.105   4.073  0.00  0.00    +0.119 A 
ATOM     29  C   UNL     1       5.262  -1.556   5.136  0.00  0.00    +0.046 A 
ATOM     30  C   UNL     1       4.338  -1.689   6.198  0.00  0.00    +0.041 A 
ATOM     31  C   UNL     1       3.138  -1.311   5.719  0.00  0.00    +0.195 A 
ATOM     32  O   UNL     1       3.288  -0.953   4.434  0.00  0.00    -0.467 OA
ENDBRANCH  27  28
ENDBRANCH  26  27
BRANCH  26  33
ATOM     33  C   UNL     1       5.827  -1.853   0.631  0.00  0.00    +0.128 C 
BRANCH  33  34
ATOM     34  C   UNL     1       6.489  -3.156   0.264  0.00  0.00    +0.004 A 
ATOM     35  C   UNL     1       6.173  -4.024  -0.728  0.00  0.00    +0.012 A 
ATOM     36  C   UNL     1       6.928  -5.171  -0.881  0.00  0.00    +0.008 A 
ATOM     37  C   UNL     1       7.963  -5.394  -0.035  0.00  0.00    +0.045 A 
ATOM     38  S   UNL     1       7.897  -3.954   1.018  0.00  0.00    -0.100 S 
ENDBRANCH  33  34
ENDBRANCH  26  33
ENDBRANCH   1  26
TORSDOF 10
