REMARK  Name = ZINC53201871
REMARK  3 active torsions:
REMARK  status: ('A' for Active; 'I' for Inactive)
REMARK    1  A    between atoms: C_1  and  N_2
REMARK    2  A    between atoms: N_2  and  C_3
REMARK    3  A    between atoms: N_8  and  C_10
REMARK                            x       y       z     vdW  Elec       q    Type
REMARK                         _______ _______ _______ _____ _____    ______ ____
ROOT
ATOM      1  C   UNL     1      -2.760  -3.997   0.363  0.00  0.00    +0.179 C 
ATOM      2  C   UNL     1      -2.054  -4.326   1.658  0.00  0.00    +0.035 A 
ATOM      3  C   UNL     1      -0.987  -5.149   1.323  0.00  0.00    +0.044 A 
ATOM      4  C   UNL     1      -0.149  -5.614   2.334  0.00  0.00    +0.062 A 
ATOM      5  C   UNL     1      -0.383  -5.258   3.648  0.00  0.00    +0.128 A 
ATOM      6  C   UNL     1      -1.450  -4.437   3.971  0.00  0.00    +0.077 A 
ATOM      7  C   UNL     1      -2.288  -3.971   2.970  0.00  0.00    +0.133 A 
ATOM      8  F   UNL     1      -3.330  -3.169   3.278  0.00  0.00    -0.205 F 
ATOM      9  F   UNL     1       0.433  -5.713   4.624  0.00  0.00    -0.205 F 
ATOM     10  N   UNL     1      -0.959  -5.365  -0.056  0.00  0.00    -0.283 N 
ATOM     11  C   UNL     1      -1.961  -4.730  -0.693  0.00  0.00    +0.239 C 
ATOM     12  O   UNL     1      -2.181  -4.741  -1.885  0.00  0.00    -0.273 OA
ATOM     13  H   UNL     1      -0.294  -5.912  -0.504  0.00  0.00    +0.155 HD
ENDROOT
BRANCH   1  18
ATOM     14  C   UNL     1      -1.360  -0.533  -0.104  0.00  0.00    -0.058 C 
ATOM     15  C   UNL     1      -2.168  -0.119  -1.337  0.00  0.00    -0.013 C 
ATOM     16  C   UNL     1      -3.587  -0.682  -1.221  0.00  0.00    +0.014 C 
ATOM     17  C   UNL     1      -3.516  -2.204  -1.078  0.00  0.00    +0.085 C 
ATOM     18  N   UNL     1      -2.734  -2.549   0.116  0.00  0.00    -0.289 NA
ATOM     19  C   UNL     1      -1.354  -2.059   0.007  0.00  0.00    +0.070 C 
BRANCH  14  21
ATOM     20  C   UNL     1       0.022   1.424  -0.224  0.00  0.00    -0.100 C 
ATOM     21  N   UNL     1       0.019  -0.045  -0.235  0.00  0.00    +0.380 N 
ATOM     22  H   UNL     1       0.412  -0.375  -1.104  0.00  0.00    -0.086 HD
ATOM     23  H   UNL     1       0.572  -0.388   0.535  0.00  0.00    -0.086 HD
ENDBRANCH  14  21
ENDBRANCH   1  18
TORSDOF 2
