REMARK  Name = ZINC59039064
REMARK  12 active torsions:
REMARK  status: ('A' for Active; 'I' for Inactive)
REMARK    1  A    between atoms: C_1  and  C_2
REMARK    2  A    between atoms: C_2  and  N_3
REMARK    3  A    between atoms: N_3  and  C_4
REMARK    4  A    between atoms: N_3  and  C_6
REMARK    5  A    between atoms: C_4  and  C_5
REMARK    6  A    between atoms: C_9  and  C_13
REMARK    7  A    between atoms: C_10  and  O_12
REMARK    8  A    between atoms: N_14  and  N_15
REMARK    9  A    between atoms: C_18  and  S_21
REMARK   10  A    between atoms: S_21  and  C_22
REMARK   11  A    between atoms: C_22  and  C_23
REMARK   12  A    between atoms: C_23  and  C_25
REMARK                            x       y       z     vdW  Elec       q    Type
REMARK                         _______ _______ _______ _____ _____    ______ ____
ROOT
ATOM      1  N   UNL     1      -2.385  -2.086  -8.163  0.00  0.00    -0.205 N 
ATOM      2  C   UNL     1      -1.742  -2.537  -9.301  0.00  0.00    +0.232 A 
ATOM      3  N   UNL     1      -0.455  -2.789  -9.415  0.00  0.00    -0.186 NA
ATOM      4  C   UNL     1      -0.186  -3.207 -10.656  0.00  0.00    +0.210 A 
ATOM      5  N   UNL     1      -1.300  -3.228 -11.349  0.00  0.00    -0.144 NA
ATOM      6  N   UNL     1      -2.325  -2.803 -10.490  0.00  0.00    -0.245 N 
ATOM      7  H   UNL     1      -3.343  -1.933  -8.176  0.00  0.00    +0.177 HD
ATOM      8  H   UNL     1      -3.266  -2.715 -10.707  0.00  0.00    +0.192 HD
ENDROOT
BRANCH   1  10
ATOM      9  C   UNL     1      -2.257  -1.427  -5.923  0.00  0.00    +0.142 C 
ATOM     10  N   UNL     1      -1.653  -1.851  -6.992  0.00  0.00    -0.187 NA
BRANCH   9  14
ATOM     11  C   UNL     1      -0.038  -0.713  -2.372  0.00  0.00    +0.033 A 
ATOM     12  C   UNL     1      -1.412  -0.493  -2.391  0.00  0.00    +0.024 A 
ATOM     13  C   UNL     1      -2.134  -0.723  -3.541  0.00  0.00    +0.015 A 
ATOM     14  C   UNL     1      -1.487  -1.179  -4.692  0.00  0.00    +0.036 A 
ATOM     15  C   UNL     1      -0.102  -1.400  -4.671  0.00  0.00    +0.127 A 
ATOM     16  C   UNL     1       0.615  -1.161  -3.513  0.00  0.00    +0.069 A 
BRANCH  15  17
ATOM     17  O   UNL     1       0.534  -1.843  -5.787  0.00  0.00    -0.506 OA
ATOM     18  H   UNL     1       0.855  -1.136  -6.363  0.00  0.00    +0.292 HD
ENDBRANCH  15  17
BRANCH  11  19
ATOM     19  N   UNL     1       0.688  -0.476  -1.203  0.00  0.00    -0.330 N 
BRANCH  19  21
ATOM     20  C   UNL     1      -0.019   1.526   0.010  0.00  0.00    +0.024 C 
ATOM     21  C   UNL     1       0.002  -0.004   0.002  0.00  0.00    +0.102 C 
ENDBRANCH  19  21
BRANCH  19  22
ATOM     22  C   UNL     1       2.135  -0.701  -1.182  0.00  0.00    +0.102 C 
ATOM     23  C   UNL     1       2.421  -2.145  -0.763  0.00  0.00    +0.024 C 
ENDBRANCH  19  22
ENDBRANCH  11  19
ENDBRANCH   9  14
ENDBRANCH   1  10
BRANCH   4  24
ATOM     24  S   UNL     1       1.406  -3.658 -11.262  0.00  0.00    -0.076 S 
BRANCH  24  25
ATOM     25  C   UNL     1       1.101  -4.126 -12.988  0.00  0.00    +0.157 C 
BRANCH  25  26
ATOM     26  C   UNL     1       2.399  -4.539 -13.633  0.00  0.00    +0.173 C 
ATOM     27  O   UNL     1       3.428  -4.519 -12.992  0.00  0.00    -0.291 OA
BRANCH  26  28
ATOM     28  C   UNL     1       2.418  -4.966 -15.041  0.00  0.00    +0.018 A 
ATOM     29  C   UNL     1       1.234  -4.984 -15.786  0.00  0.00    +0.012 A 
ATOM     30  C   UNL     1       1.260  -5.385 -17.104  0.00  0.00    +0.016 A 
ATOM     31  C   UNL     1       2.454  -5.769 -17.692  0.00  0.00    +0.018 A 
ATOM     32  C   UNL     1       3.631  -5.753 -16.961  0.00  0.00    +0.016 A 
ATOM     33  C   UNL     1       3.621  -5.349 -15.643  0.00  0.00    +0.012 A 
ATOM     34 BR   UNL     1       2.478  -6.319 -19.501  0.00  0.00    -0.050 Br
ENDBRANCH  26  28
ENDBRANCH  25  26
ENDBRANCH  24  25
ENDBRANCH   4  24
TORSDOF 10
