REMARK  Name = ZINC23248820
REMARK  11 active torsions:
REMARK  status: ('A' for Active; 'I' for Inactive)
REMARK    1  A    between atoms: C_1  and  C_2
REMARK    2  A    between atoms: C_9  and  N_15
REMARK    3  A    between atoms: C_10  and  C_11
REMARK    4  A    between atoms: C_11  and  O_13
REMARK    5  A    between atoms: O_13  and  C_14
REMARK    6  A    between atoms: C_16  and  C_18
REMARK    7  A    between atoms: C_18  and  N_19
REMARK    8  A    between atoms: N_22  and  C_25
REMARK    9  A    between atoms: C_25  and  C_27
REMARK   10  A    between atoms: C_25  and  C_28
REMARK   11  A    between atoms: N_30  and  C_31
REMARK                            x       y       z     vdW  Elec       q    Type
REMARK                         _______ _______ _______ _____ _____    ______ ____
ROOT
ATOM      1  N   UNL     1      -3.107  -5.423   2.859  0.00  0.00    -0.278 N 
ATOM      2  C   UNL     1      -4.185  -5.792   2.139  0.00  0.00    +0.232 C 
ATOM      3  O   UNL     1      -4.822  -4.959   1.531  0.00  0.00    -0.274 OA
ATOM      4  H   UNL     1      -2.529  -6.179   3.411  0.00  0.00    +0.155 HD
ENDROOT
BRANCH   1  12
ATOM      5  C   UNL     1      -1.242   2.173   2.775  0.00  0.00    +0.008 C 
ATOM      6  C   UNL     1      -1.109   0.649   2.781  0.00  0.00    -0.009 C 
ATOM      7  C   UNL     1      -0.730   0.172   4.186  0.00  0.00    +0.008 C 
ATOM      8  C   UNL     1      -0.355  -1.311   4.148  0.00  0.00    +0.037 C 
ATOM      9  C   UNL     1      -1.478  -2.083   3.465  0.00  0.00    -0.021 A 
ATOM     10  C   UNL     1      -2.387  -1.451   2.692  0.00  0.00    -0.004 A 
ATOM     11  S   UNL     1      -3.470  -2.732   2.127  0.00  0.00    -0.077 S 
ATOM     12  C   UNL     1      -2.727  -4.091   2.904  0.00  0.00    +0.086 A 
ATOM     13  C   UNL     1      -1.658  -3.521   3.583  0.00  0.00    +0.091 A 
ATOM     14  C   UNL     1      -2.451   0.014   2.388  0.00  0.00    +0.046 C 
BRANCH  13  15
ATOM     15  C   UNL     1      -0.747  -4.337   4.388  0.00  0.00    +0.342 C 
ATOM     16  O   UNL     1      -0.982  -4.529   5.566  0.00  0.00    -0.245 OA
BRANCH  15  17
ATOM     17  O   UNL     1       0.353  -4.875   3.824  0.00  0.00    -0.464 OA
ATOM     18  C   UNL     1       1.211  -5.673   4.681  0.00  0.00    +0.280 C 
ENDBRANCH  15  17
ENDBRANCH  13  15
ENDBRANCH   1  12
BRANCH   2  19
ATOM     19  C   UNL     1      -4.598  -7.241   2.090  0.00  0.00    +0.180 C 
BRANCH  19  20
ATOM     20  N   UNL     1      -5.792  -7.381   1.246  0.00  0.00    -0.298 NA
ATOM     21  C   UNL     1      -6.949  -6.711   1.855  0.00  0.00    +0.066 C 
ATOM     22  C   UNL     1      -8.149  -6.812   0.910  0.00  0.00    -0.062 C 
ATOM     23  N   UNL     1      -8.443  -8.227   0.645  0.00  0.00    +0.389 N 
ATOM     24  C   UNL     1      -7.285  -8.897   0.036  0.00  0.00    -0.062 C 
ATOM     25  C   UNL     1      -6.085  -8.796   0.981  0.00  0.00    +0.066 C 
ATOM     26  H   UNL     1      -8.651  -8.717   1.607  0.00  0.00    -0.081 HD
BRANCH  23  27
ATOM     27  C   UNL     1      -9.637  -8.367  -0.200  0.00  0.00    +0.016 C 
ATOM     28  C   UNL     1      -9.281  -8.023  -1.647  0.00  0.00    -0.004 C 
BRANCH  27  29
ATOM     29  C   UNL     1     -10.138  -9.787  -0.129  0.00  0.00    +0.199 C 
ATOM     30  O   UNL     1      -9.436 -10.655   0.346  0.00  0.00    -0.278 OA
ATOM     31  N   UNL     1     -11.365 -10.092  -0.594  0.00  0.00    -0.314 N 
ATOM     32  H   UNL     1     -12.001  -9.305  -1.025  0.00  0.00    +0.149 HD
BRANCH  31  33
ATOM     33  C   UNL     1     -11.852 -11.472  -0.526  0.00  0.00    +0.073 C 
ATOM     34  C   UNL     1     -12.569 -12.030  -1.757  0.00  0.00    +0.024 C 
ATOM     35  C   UNL     1     -13.367 -11.686  -0.498  0.00  0.00    +0.024 C 
ENDBRANCH  31  33
ENDBRANCH  27  29
ENDBRANCH  23  27
ENDBRANCH  19  20
ENDBRANCH   2  19
TORSDOF 8
