REMARK  Name = ZINC20764313
REMARK  10 active torsions:
REMARK  status: ('A' for Active; 'I' for Inactive)
REMARK    1  A    between atoms: C_1  and  C_2
REMARK    2  A    between atoms: C_2  and  O_3
REMARK    3  A    between atoms: O_3  and  C_4
REMARK    4  A    between atoms: C_7  and  C_10
REMARK    5  A    between atoms: C_12  and  C_28
REMARK    6  A    between atoms: C_15  and  C_18
REMARK    7  A    between atoms: C_22  and  O_25
REMARK    8  A    between atoms: C_23  and  O_24
REMARK    9  A    between atoms: O_25  and  C_26
REMARK   10  A    between atoms: C_26  and  C_27
REMARK                            x       y       z     vdW  Elec       q    Type
REMARK                         _______ _______ _______ _____ _____    ______ ____
ROOT
ATOM      1  C   UNL     1       1.170   3.561   0.009  0.00  0.00    +0.040 C 
ATOM      2  N   UNL     1       0.038   4.159   0.023  0.00  0.00    -0.299 NA
ATOM      3  C   UNL     1      -0.121   5.608   0.022  0.00  0.00    +0.081 C 
ATOM      4  N   UNL     1       1.128   6.267   0.423  0.00  0.00    +0.401 N 
ATOM      5  C   UNL     1       2.253   5.756  -0.379  0.00  0.00    -0.028 C 
ATOM      6  C   UNL     1       2.485   4.290   0.007  0.00  0.00    +0.044 C 
ATOM      7  H   UNL     1       1.037   7.352   0.266  0.00  0.00    -0.081 HD
ATOM      8  H   UNL     1       1.323   6.066   1.487  0.00  0.00    -0.081 HD
ENDROOT
BRANCH   3   9
ATOM      9  C   UNL     1      -1.215   5.988   0.987  0.00  0.00    -0.039 A 
ATOM     10  C   UNL     1      -1.167   7.205   1.641  0.00  0.00    +0.006 A 
ATOM     11  C   UNL     1      -2.172   7.558   2.521  0.00  0.00    +0.040 A 
ATOM     12  C   UNL     1      -3.222   6.686   2.757  0.00  0.00    +0.137 A 
ATOM     13  C   UNL     1      -3.266   5.465   2.106  0.00  0.00    +0.053 A 
ATOM     14  C   UNL     1      -2.262   5.117   1.221  0.00  0.00    +0.022 A 
ATOM     15 BR   UNL     1      -4.700   4.273   2.426  0.00  0.00    -0.047 Br
ATOM     16  F   UNL     1      -4.202   7.027   3.623  0.00  0.00    -0.204 F 
ENDBRANCH   3   9
BRANCH   1  20
ATOM     17  C   UNL     1       1.214  -0.684  -0.013  0.00  0.00    +0.121 A 
ATOM     18  C   UNL     1       0.002  -0.004   0.002  0.00  0.00    +0.046 A 
ATOM     19  C   UNL     1      -0.017   1.373   0.010  0.00  0.00    +0.013 A 
ATOM     20  C   UNL     1       1.185   2.086   0.002  0.00  0.00    -0.004 A 
ATOM     21  C   UNL     1       2.401   1.398  -0.013  0.00  0.00    +0.013 A 
ATOM     22  C   UNL     1       2.411   0.021  -0.020  0.00  0.00    +0.046 A 
BRANCH  17  23
ATOM     23  O   UNL     1       1.228  -2.042  -0.019  0.00  0.00    -0.492 OA
BRANCH  23  25
ATOM     24  C   UNL     1       2.322  -4.196  -0.040  0.00  0.00    +0.048 C 
ATOM     25  C   UNL     1       2.507  -2.678  -0.035  0.00  0.00    +0.225 C 
ENDBRANCH  23  25
ENDBRANCH  17  23
ENDBRANCH   1  20
BRANCH   5  26
ATOM     26  C   UNL     1       3.493   6.561  -0.086  0.00  0.00    -0.016 A 
ATOM     27  C   UNL     1       3.621   7.217   1.125  0.00  0.00    +0.006 A 
ATOM     28  C   UNL     1       4.757   7.955   1.396  0.00  0.00    +0.004 A 
ATOM     29  C   UNL     1       5.770   8.042   0.459  0.00  0.00    +0.049 A 
ATOM     30  C   UNL     1       5.648   7.388  -0.756  0.00  0.00    +0.162 A 
ATOM     31  C   UNL     1       4.506   6.638  -1.027  0.00  0.00    +0.160 A 
BRANCH  31  32
ATOM     32  O   UNL     1       4.384   5.989  -2.216  0.00  0.00    -0.503 OA
ATOM     33  H   UNL     1       5.189   6.052  -2.962  0.00  0.00    +0.292 HD
ENDBRANCH  31  32
BRANCH  30  34
ATOM     34  O   UNL     1       6.643   7.472  -1.679  0.00  0.00    -0.489 OA
BRANCH  34  35
ATOM     35  C   UNL     1       7.787   8.253  -1.329  0.00  0.00    +0.226 C 
ATOM     36  C   UNL     1       8.792   8.231  -2.483  0.00  0.00    +0.048 C 
ENDBRANCH  34  35
ENDBRANCH  30  34
ENDBRANCH   5  26
TORSDOF 8
