REMARK  Name = ZINC57290015
REMARK  6 active torsions:
REMARK  status: ('A' for Active; 'I' for Inactive)
REMARK    1  A    between atoms: C_1  and  C_2
REMARK    2  A    between atoms: C_2  and  C_4
REMARK    3  A    between atoms: C_2  and  N_16
REMARK    4  A    between atoms: N_6  and  C_7
REMARK    5  A    between atoms: N_19  and  C_22
REMARK    6  A    between atoms: N_25  and  C_30
REMARK                            x       y       z     vdW  Elec       q    Type
REMARK                         _______ _______ _______ _____ _____    ______ ____
ROOT
ATOM      1  N   UNL     1      -1.568  -0.337   0.196  0.00  0.00    -0.289 NA
ATOM      2  C   UNL     1      -1.429  -1.800   0.171  0.00  0.00    +0.104 C 
ATOM      3  C   UNL     1      -2.691  -2.440   0.757  0.00  0.00    +0.120 C 
ATOM      4  N   UNL     1      -3.860  -1.914   0.036  0.00  0.00    -0.325 N 
ATOM      5  C   UNL     1      -3.996  -0.456  -0.100  0.00  0.00    +0.120 C 
ATOM      6  C   UNL     1      -2.682   0.106  -0.652  0.00  0.00    +0.104 C 
ENDROOT
BRANCH   4   7
ATOM      7  C   UNL     1      -4.807  -2.769  -0.502  0.00  0.00    +0.074 A 
ATOM      8  C   UNL     1      -5.016  -2.813  -1.897  0.00  0.00    +0.158 A 
ATOM      9  N   UNL     1      -5.908  -3.618  -2.406  0.00  0.00    -0.170 NA
ATOM     10  N   UNL     1      -6.675  -4.453  -1.587  0.00  0.00    -0.195 N 
ATOM     11  C   UNL     1      -6.509  -4.444  -0.250  0.00  0.00    +0.292 A 
ATOM     12  O   UNL     1      -7.183  -5.176   0.458  0.00  0.00    -0.264 OA
ATOM     13  C   UNL     1      -5.553  -3.593   0.323  0.00  0.00    +0.129 A 
ATOM     14 CL   UNL     1      -5.314  -3.567   2.042  0.00  0.00    -0.076 Cl
BRANCH  10  15
ATOM     15  C   UNL     1      -7.624  -5.306  -2.162  0.00  0.00    +0.069 A 
ATOM     16  C   UNL     1      -8.917  -5.351  -1.656  0.00  0.00    +0.028 A 
ATOM     17  C   UNL     1      -9.851  -6.194  -2.226  0.00  0.00    +0.002 A 
ATOM     18  C   UNL     1      -9.501  -6.992  -3.299  0.00  0.00    +0.000 A 
ATOM     19  C   UNL     1      -8.214  -6.950  -3.805  0.00  0.00    +0.002 A 
ATOM     20  C   UNL     1      -7.277  -6.105  -3.244  0.00  0.00    +0.028 A 
ENDBRANCH  10  15
ENDBRANCH   4   7
BRANCH   1  22
ATOM     21  C   UNL     1      -0.130   0.201  -1.711  0.00  0.00    +0.034 C 
ATOM     22  C   UNL     1      -0.313   0.318  -0.197  0.00  0.00    +0.140 C 
BRANCH  22  23
ATOM     23  C   UNL     1      -0.363   1.773   0.192  0.00  0.00    +0.234 C 
ATOM     24  O   UNL     1      -1.423   2.287   0.483  0.00  0.00    -0.274 OA
ATOM     25  N   UNL     1       0.770   2.503   0.218  0.00  0.00    -0.284 N 
ATOM     26  H   UNL     1       1.606   2.111  -0.078  0.00  0.00    +0.155 HD
BRANCH  25  27
ATOM     27  C   UNL     1       0.739   3.828   0.672  0.00  0.00    +0.037 A 
ATOM     28  C   UNL     1       1.817   4.344   1.379  0.00  0.00    +0.027 A 
ATOM     29  C   UNL     1       1.788   5.651   1.827  0.00  0.00    +0.051 A 
ATOM     30  C   UNL     1       0.685   6.449   1.573  0.00  0.00    +0.166 A 
ATOM     31  C   UNL     1      -0.398   5.934   0.864  0.00  0.00    +0.168 A 
ATOM     32  C   UNL     1      -0.366   4.626   0.410  0.00  0.00    +0.072 A 
ATOM     33  O   UNL     1      -1.347   6.908   0.747  0.00  0.00    -0.453 OA
ATOM     34  C   UNL     1      -1.010   7.894   1.742  0.00  0.00    +0.466 C 
ATOM     35  O   UNL     1       0.413   7.747   1.900  0.00  0.00    -0.453 OA
ENDBRANCH  25  27
ENDBRANCH  22  23
ENDBRANCH   1  22
TORSDOF 5
