REMARK  Name = ZINC40744302
REMARK  11 active torsions:
REMARK  status: ('A' for Active; 'I' for Inactive)
REMARK    1  A    between atoms: C_1  and  C_2
REMARK    2  A    between atoms: C_6  and  C_8
REMARK    3  A    between atoms: C_8  and  O_9
REMARK    4  A    between atoms: O_9  and  C_10
REMARK    5  A    between atoms: C_15  and  C_16
REMARK    6  A    between atoms: C_16  and  N_17
REMARK    7  A    between atoms: N_17  and  C_18
REMARK    8  A    between atoms: C_18  and  C_19
REMARK    9  A    between atoms: C_19  and  C_20
REMARK   10  A    between atoms: C_20  and  C_21
REMARK   11  A    between atoms: C_21  and  O_22
REMARK                            x       y       z     vdW  Elec       q    Type
REMARK                         _______ _______ _______ _____ _____    ______ ____
ROOT
ATOM      1  C   UNL     1       1.599  -3.745   4.055  0.00  0.00    +0.122 A 
ATOM      2  C   UNL     1       0.509  -4.191   4.788  0.00  0.00    +0.047 A 
ATOM      3  C   UNL     1       0.707  -4.880   5.969  0.00  0.00    +0.019 A 
ATOM      4  C   UNL     1       1.991  -5.125   6.421  0.00  0.00    +0.018 A 
ATOM      5  C   UNL     1       3.080  -4.680   5.692  0.00  0.00    +0.020 A 
ATOM      6  C   UNL     1       2.886  -3.997   4.507  0.00  0.00    -0.022 A 
ATOM      7 BR   UNL     1       2.260  -6.067   8.038  0.00  0.00    -0.050 Br
ENDROOT
BRANCH   1   8
ATOM      8  O   UNL     1       1.406  -3.067   2.893  0.00  0.00    -0.487 OA
BRANCH   8   9
ATOM      9  C   UNL     1       0.054  -2.845   2.489  0.00  0.00    +0.264 C 
BRANCH   9  15
ATOM     10  C   UNL     1      -0.018   1.503   0.010  0.00  0.00    +0.044 C 
ATOM     11  C   UNL     1       0.002  -0.004   0.002  0.00  0.00    -0.050 A 
ATOM     12  C   UNL     1       0.006  -0.689  -1.199  0.00  0.00    +0.003 A 
ATOM     13  C   UNL     1       0.025  -2.071  -1.207  0.00  0.00    +0.001 A 
ATOM     14  C   UNL     1       0.040  -2.768  -0.013  0.00  0.00    +0.007 A 
ATOM     15  C   UNL     1       0.037  -2.084   1.188  0.00  0.00    -0.010 A 
ATOM     16  C   UNL     1       0.023  -0.702   1.195  0.00  0.00    +0.010 A 
ENDBRANCH   9  15
ENDBRANCH   8   9
ENDBRANCH   1   8
BRANCH   6  17
ATOM     17  C   UNL     1       4.072  -3.519   3.709  0.00  0.00    -0.043 C 
BRANCH  17  18
ATOM     18  N   UNL     1       4.298  -2.092   3.974  0.00  0.00    +0.382 N 
ATOM     19  H   UNL     1       3.479  -1.567   3.706  0.00  0.00    -0.085 HD
ATOM     20  H   UNL     1       4.477  -1.956   4.958  0.00  0.00    -0.085 HD
BRANCH  18  21
ATOM     21  C   UNL     1       5.454  -1.626   3.197  0.00  0.00    -0.082 C 
BRANCH  21  22
ATOM     22  C   UNL     1       5.689  -0.140   3.472  0.00  0.00    -0.017 C 
BRANCH  22  23
ATOM     23  C   UNL     1       6.893   0.345   2.663  0.00  0.00    +0.026 C 
BRANCH  23  24
ATOM     24  C   UNL     1       7.128   1.831   2.938  0.00  0.00    +0.156 C 
BRANCH  24  25
ATOM     25  O   UNL     1       8.252   2.284   2.182  0.00  0.00    -0.395 OA
ATOM     26  H   UNL     1       8.460   3.220   2.308  0.00  0.00    +0.209 HD
ENDBRANCH  24  25
ENDBRANCH  23  24
ENDBRANCH  22  23
ENDBRANCH  21  22
ENDBRANCH  18  21
ENDBRANCH  17  18
ENDBRANCH   6  17
TORSDOF 10
