REMARK  Name = ZINC39632025
REMARK  15 active torsions:
REMARK  status: ('A' for Active; 'I' for Inactive)
REMARK    1  A    between atoms: C_1  and  C_2
REMARK    2  A    between atoms: C_2  and  C_3
REMARK    3  A    between atoms: C_3  and  C_5
REMARK    4  A    between atoms: C_3  and  C_6
REMARK    5  A    between atoms: C_6  and  C_7
REMARK    6  A    between atoms: C_11  and  C_20
REMARK    7  A    between atoms: N_22  and  C_23
REMARK    8  A    between atoms: C_23  and  C_25
REMARK    9  A    between atoms: C_23  and  C_26
REMARK   10  A    between atoms: C_26  and  C_27
REMARK   11  A    between atoms: C_27  and  C_28
REMARK   12  A    between atoms: C_28  and  C_29
REMARK   13  A    between atoms: C_29  and  C_30
REMARK   14  A    between atoms: C_29  and  C_31
REMARK   15  A    between atoms: C_29  and  O_32
REMARK                            x       y       z     vdW  Elec       q    Type
REMARK                         _______ _______ _______ _____ _____    ______ ____
ROOT
ATOM      1  C   UNL     1      -2.510  -2.593  -0.342  0.00  0.00    +0.216 C 
ATOM      2  O   UNL     1      -3.367  -1.734  -0.344  0.00  0.00    -0.276 OA
ATOM      3  N   UNL     1      -2.858  -3.892  -0.430  0.00  0.00    -0.300 N 
ATOM      4  C   UNL     1      -1.963  -5.073  -0.436  0.00  0.00    +0.121 C 
ATOM      5  C   UNL     1      -2.705  -6.129   0.413  0.00  0.00    +0.100 C 
ATOM      6  C   UNL     1      -4.186  -5.724   0.337  0.00  0.00    -0.004 C 
ATOM      7  C   UNL     1      -4.222  -4.463  -0.538  0.00  0.00    +0.115 C 
ATOM      8  C   UNL     1      -4.720  -5.407   1.730  0.00  0.00    -0.010 C 
ATOM      9  C   UNL     1      -6.209  -5.063   1.635  0.00  0.00    -0.082 C 
ATOM     10  N   UNL     1      -6.940  -6.196   1.056  0.00  0.00    +0.379 N 
ATOM     11  C   UNL     1      -6.484  -6.435  -0.319  0.00  0.00    -0.082 C 
ATOM     12  C   UNL     1      -5.007  -6.838  -0.307  0.00  0.00    -0.010 C 
ATOM     13  H   UNL     1      -6.774  -7.022   1.612  0.00  0.00    -0.086 HD
ATOM     14  H   UNL     1      -7.928  -5.991   1.050  0.00  0.00    -0.086 HD
ENDROOT
BRANCH   5  15
ATOM     15  C   UNL     1      -2.220  -6.090   1.839  0.00  0.00    +0.218 C 
ATOM     16  O   UNL     1      -1.828  -5.047   2.318  0.00  0.00    -0.275 OA
ATOM     17  N   UNL     1      -2.223  -7.214   2.583  0.00  0.00    -0.312 N 
ATOM     18  H   UNL     1      -2.537  -8.048   2.200  0.00  0.00    +0.149 HD
BRANCH  17  19
ATOM     19  C   UNL     1      -1.752  -7.176   3.970  0.00  0.00    +0.070 C 
ATOM     20  C   UNL     1      -2.898  -6.742   4.886  0.00  0.00    +0.028 C 
BRANCH  19  21
ATOM     21  C   UNL     1      -1.268  -8.567   4.383  0.00  0.00    +0.022 C 
BRANCH  21  22
ATOM     22  C   UNL     1      -0.043  -8.949   3.549  0.00  0.00    +0.005 C 
BRANCH  22  23
ATOM     23  C   UNL     1       0.442 -10.340   3.962  0.00  0.00    +0.034 C 
BRANCH  23  24
ATOM     24  C   UNL     1       1.667 -10.722   3.129  0.00  0.00    +0.061 C 
ATOM     25  C   UNL     1       2.076 -12.160   3.452  0.00  0.00    +0.041 C 
ATOM     26  C   UNL     1       1.327 -10.610   1.641  0.00  0.00    +0.041 C 
BRANCH  24  27
ATOM     27  O   UNL     1       2.747  -9.838   3.438  0.00  0.00    -0.389 OA
ATOM     28  H   UNL     1       3.016  -9.856   4.367  0.00  0.00    +0.210 HD
ENDBRANCH  24  27
ENDBRANCH  23  24
ENDBRANCH  22  23
ENDBRANCH  21  22
ENDBRANCH  19  21
ENDBRANCH  17  19
ENDBRANCH   5  15
BRANCH   1  29
ATOM     29  C   UNL     1      -1.057  -2.207  -0.239  0.00  0.00    +0.099 C 
BRANCH  29  30
ATOM     30  C   UNL     1      -0.939  -0.684  -0.151  0.00  0.00    -0.006 C 
ATOM     31  C   UNL     1      -1.580  -0.197   1.150  0.00  0.00    +0.008 C 
BRANCH  30  33
ATOM     32  C   UNL     1       0.653   1.240  -0.210  0.00  0.00    +0.004 C 
ATOM     33  C   UNL     1       0.538  -0.285  -0.172  0.00  0.00    +0.000 C 
ENDBRANCH  30  33
ENDBRANCH  29  30
ENDBRANCH   1  29
TORSDOF 10
