REMARK  Name = ZINC12874418
REMARK  8 active torsions:
REMARK  status: ('A' for Active; 'I' for Inactive)
REMARK    1  A    between atoms: C_1  and  C_2
REMARK    2  A    between atoms: C_2  and  C_4
REMARK    3  A    between atoms: C_2  and  N_61
REMARK    4  A    between atoms: C_14  and  C_15
REMARK    5  A    between atoms: C_14  and  N_61
REMARK    6  A    between atoms: N_17  and  C_18
REMARK    7  A    between atoms: C_22  and  S_24
REMARK    8  A    between atoms: S_24  and  N_27
REMARK                            x       y       z     vdW  Elec       q    Type
REMARK                         _______ _______ _______ _____ _____    ______ ____
ROOT
ATOM      1  C   UNL     1       1.904   1.370   3.948  0.00  0.00    +0.200 C 
ATOM      2  O   UNL     1       1.631   0.275   4.391  0.00  0.00    -0.278 OA
ATOM      3  N   UNL     1       2.849   2.123   4.546  0.00  0.00    -0.287 N 
ATOM      4  H   UNL     1       3.121   2.965   4.149  0.00  0.00    +0.155 HD
ENDROOT
BRANCH   3   5
ATOM      5  C   UNL     1       3.437   1.689   5.739  0.00  0.00    +0.035 A 
ATOM      6  C   UNL     1       2.691   0.963   6.659  0.00  0.00    +0.023 A 
ATOM      7  C   UNL     1       3.276   0.532   7.833  0.00  0.00    +0.004 A 
ATOM      8  C   UNL     1       4.599   0.833   8.099  0.00  0.00    +0.028 A 
ATOM      9  C   UNL     1       5.343   1.560   7.189  0.00  0.00    +0.107 A 
ATOM     10  C   UNL     1       4.765   1.990   6.010  0.00  0.00    +0.051 A 
BRANCH   9  11
ATOM     11  S   UNL     1       7.028   1.941   7.533  0.00  0.00    +0.061 S 
ATOM     12  O   UNL     1       7.487   0.960   8.453  0.00  0.00    -0.153 OA
ATOM     13  O   UNL     1       7.659   2.163   6.279  0.00  0.00    -0.153 OA
BRANCH  11  14
ATOM     14  N   UNL     1       7.049   3.389   8.336  0.00  0.00    -0.177 NA
ATOM     15  C   UNL     1       7.149   4.715   7.710  0.00  0.00    +0.109 C 
ATOM     16  C   UNL     1       7.156   5.759   8.846  0.00  0.00    +0.018 C 
ATOM     17  C   UNL     1       7.638   4.936  10.069  0.00  0.00    +0.018 C 
ATOM     18  C   UNL     1       6.977   3.561   9.799  0.00  0.00    +0.109 C 
ENDBRANCH  11  14
ENDBRANCH   9  11
ENDBRANCH   3   5
BRANCH   1  19
ATOM     19  C   UNL     1       1.186   1.891   2.729  0.00  0.00    +0.016 C 
BRANCH  19  20
ATOM     20  N   UNL     1       0.211   0.881   2.275  0.00  0.00    +0.389 N 
ATOM     21  H   UNL     1       0.706   0.012   2.044  0.00  0.00    -0.084 HD
ATOM     22  H   UNL     1      -0.464   0.701   3.027  0.00  0.00    -0.084 HD
BRANCH  20  24
ATOM     23  C   UNL     1       0.311   1.046  -0.172  0.00  0.00    -0.009 C 
ATOM     24  C   UNL     1      -0.507   1.364   1.081  0.00  0.00    -0.043 C 
BRANCH  24  25
ATOM     25  C   UNL     1      -1.845   0.675   0.996  0.00  0.00    -0.061 A 
ATOM     26  C   UNL     1      -1.953  -0.669   1.303  0.00  0.00    +0.002 A 
ATOM     27  C   UNL     1      -3.181  -1.292   1.226  0.00  0.00    +0.004 A 
ATOM     28  C   UNL     1      -4.309  -0.584   0.830  0.00  0.00    -0.044 A 
ATOM     29  C   UNL     1      -4.200   0.753   0.521  0.00  0.00    -0.044 A 
ATOM     30  C   UNL     1      -2.964   1.381   0.605  0.00  0.00    +0.006 A 
ATOM     31  C   UNL     1      -5.381   1.585   0.094  0.00  0.00    +0.035 C 
ATOM     32  C   UNL     1      -6.533   0.690  -0.359  0.00  0.00    +0.005 C 
ATOM     33  C   UNL     1      -6.790  -0.355   0.733  0.00  0.00    +0.005 C 
ATOM     34  C   UNL     1      -5.615  -1.331   0.753  0.00  0.00    +0.035 C 
ENDBRANCH  24  25
ENDBRANCH  20  24
ENDBRANCH  19  20
ENDBRANCH   1  19
TORSDOF 7
