REMARK  Name = ZINC67570481
REMARK  3 active torsions:
REMARK  status: ('A' for Active; 'I' for Inactive)
REMARK    1  A    between atoms: C_1  and  N_2
REMARK    2  A    between atoms: C_12  and  C_14
REMARK    3  A    between atoms: C_20  and  C_23
REMARK                            x       y       z     vdW  Elec       q    Type
REMARK                         _______ _______ _______ _____ _____    ______ ____
ROOT
ATOM      1  C   UNL     1      -0.028  -0.008  -2.506  0.00  0.00    +0.302 C 
ATOM      2  O   UNL     1       0.141   1.194  -2.509  0.00  0.00    -0.265 OA
ATOM      3  N   UNL     1      -0.230  -0.663  -3.666  0.00  0.00    -0.289 N 
ATOM      4  C   UNL     1      -0.334  -2.131  -3.700  0.00  0.00    +0.136 C 
ATOM      5  C   UNL     1       0.619  -2.658  -4.778  0.00  0.00    +0.179 C 
ATOM      6  O   UNL     1       0.362  -1.976  -6.008  0.00  0.00    -0.369 OA
ATOM      7  C   UNL     1       0.599  -0.567  -5.956  0.00  0.00    +0.168 C 
ATOM      8  C   UNL     1      -0.361   0.068  -4.936  0.00  0.00    +0.144 C 
ENDROOT
BRANCH   1  20
ATOM      9  C   UNL     1      -2.398  -0.323  -0.993  0.00  0.00    +0.141 C 
ATOM     10  N   UNL     1      -1.135  -0.859  -0.478  0.00  0.00    -0.246 N 
ATOM     11  C   UNL     1      -1.095  -1.465   0.765  0.00  0.00    +0.168 A 
ATOM     12  N   UNL     1      -0.070  -1.994   1.391  0.00  0.00    -0.224 NA
ATOM     13  C   UNL     1      -0.177  -2.557   2.613  0.00  0.00    +0.080 A 
ATOM     14  C   UNL     1       0.840  -3.157   3.391  0.00  0.00    +0.029 A 
ATOM     15  C   UNL     1       0.559  -3.688   4.622  0.00  0.00    +0.002 A 
ATOM     16  C   UNL     1      -0.724  -3.657   5.150  0.00  0.00    +0.001 A 
ATOM     17  C   UNL     1      -1.744  -3.077   4.417  0.00  0.00    +0.017 A 
ATOM     18  C   UNL     1      -1.472  -2.543   3.182  0.00  0.00    +0.041 A 
ATOM     19  S   UNL     1      -2.426  -1.720   1.930  0.00  0.00    -0.052 S 
ATOM     20  C   UNL     1      -0.011  -0.761  -1.216  0.00  0.00    +0.307 C 
ATOM     21  O   UNL     1       1.014  -1.285  -0.833  0.00  0.00    -0.265 OA
ENDBRANCH   1  20
BRANCH   7  22
ATOM     22  C   UNL     1       0.357   0.035  -7.316  0.00  0.00    +0.018 A 
ATOM     23  C   UNL     1      -0.495  -0.590  -8.207  0.00  0.00    +0.009 A 
ATOM     24  C   UNL     1      -0.717  -0.038  -9.455  0.00  0.00    +0.001 A 
ATOM     25  C   UNL     1      -0.086   1.139  -9.813  0.00  0.00    +0.003 A 
ATOM     26  C   UNL     1       0.766   1.766  -8.924  0.00  0.00    +0.039 A 
ATOM     27  C   UNL     1       0.985   1.217  -7.672  0.00  0.00    +0.129 A 
ATOM     28  F   UNL     1       1.815   1.831  -6.800  0.00  0.00    -0.205 F 
ENDBRANCH   7  22
TORSDOF 2
