REMARK  Name = ZINC20538404
REMARK  5 active torsions:
REMARK  status: ('A' for Active; 'I' for Inactive)
REMARK    1  A    between atoms: C_2  and  C_20
REMARK    2  A    between atoms: N_5  and  C_6
REMARK    3  A    between atoms: C_6  and  C_7
REMARK    4  A    between atoms: N_12  and  C_14
REMARK    5  A    between atoms: C_20  and  N_21
REMARK                            x       y       z     vdW  Elec       q    Type
REMARK                         _______ _______ _______ _____ _____    ______ ____
ROOT
ATOM      1  C   UNL     1      -0.176   0.939  -0.003  0.00  0.00    +0.147 C 
ENDROOT
BRANCH   1   2
ATOM      2  C   UNL     1      -0.812   1.512   1.266  0.00  0.00    -0.006 C 
ATOM      3  C   UNL     1      -0.619   3.031   1.293  0.00  0.00    +0.002 C 
ATOM      4  C   UNL     1      -1.205   3.589   2.593  0.00  0.00    -0.018 C 
ATOM      5  C   UNL     1      -0.524   2.913   3.785  0.00  0.00    -0.078 C 
ATOM      6  N   UNL     1      -0.738   1.461   3.714  0.00  0.00    +0.382 N 
ATOM      7  C   UNL     1      -0.142   0.896   2.496  0.00  0.00    -0.073 C 
ATOM      8  H   UNL     1      -1.823   1.284   3.670  0.00  0.00    -0.081 HD
BRANCH   6   9
ATOM      9  C   UNL     1      -0.217   0.793   4.914  0.00  0.00    -0.067 C 
ATOM     10  C   UNL     1      -1.048   1.213   6.123  0.00  0.00    -0.005 C 
ATOM     11  C   UNL     1      -0.715   0.319   7.321  0.00  0.00    +0.067 C 
ATOM     12  S   UNL     1       1.037   0.548   7.750  0.00  0.00    -0.161 S 
ATOM     13  C   UNL     1       1.887   0.274   6.166  0.00  0.00    +0.067 C 
ATOM     14  C   UNL     1       1.248   1.173   5.104  0.00  0.00    -0.005 C 
ENDBRANCH   6   9
ENDBRANCH   1   2
BRANCH   1  19
ATOM     15  C   UNL     1      -0.344   2.087  -2.228  0.00  0.00    +0.135 A 
ATOM     16  C   UNL     1      -1.361   2.363  -3.078  0.00  0.00    +0.100 A 
ATOM     17  N   UNL     1      -2.471   1.875  -2.512  0.00  0.00    -0.133 NA
ATOM     18  N   UNL     1      -2.160   1.328  -1.390  0.00  0.00    -0.065 NA
ATOM     19  N   UNL     1      -0.896   1.438  -1.177  0.00  0.00    -0.251 N 
BRANCH  16  20
ATOM     20  C   UNL     1      -1.263   3.079  -4.400  0.00  0.00    +0.164 C 
BRANCH  20  21
ATOM     21  N   UNL     1      -1.145   2.096  -5.480  0.00  0.00    -0.294 N 
ATOM     22  C   UNL     1      -1.043   2.509  -6.759  0.00  0.00    +0.297 C 
ATOM     23  O   UNL     1      -1.049   3.697  -7.016  0.00  0.00    -0.253 OA
ATOM     24  N   UNL     1      -0.934   1.605  -7.753  0.00  0.00    -0.313 N 
ATOM     25  H   UNL     1      -1.139   1.021  -5.247  0.00  0.00    +0.151 HD
ATOM     26  H   UNL     1      -0.851   1.942  -8.796  0.00  0.00    +0.146 HD
ATOM     27  H   UNL     1      -0.928   0.530  -7.520  0.00  0.00    +0.146 HD
ENDBRANCH  20  21
ENDBRANCH  16  20
ENDBRANCH   1  19
TORSDOF 5
