REMARK  Name = ZINC20873044
REMARK  6 active torsions:
REMARK  status: ('A' for Active; 'I' for Inactive)
REMARK    1  A    between atoms: C_3  and  O_15
REMARK    2  A    between atoms: C_4  and  C_8
REMARK    3  A    between atoms: C_8  and  N_9
REMARK    4  A    between atoms: N_9  and  C_10
REMARK    5  A    between atoms: O_15  and  C_16
REMARK    6  A    between atoms: C_16  and  C_17
REMARK                            x       y       z     vdW  Elec       q    Type
REMARK                         _______ _______ _______ _____ _____    ______ ____
ROOT
ATOM      1  C   UNL     1       1.174   1.783   0.000  0.00  0.00    +0.019 A 
ATOM      2  C   UNL     1      -0.013   1.076   0.008  0.00  0.00    +0.047 A 
ATOM      3  C   UNL     1      -1.223   1.753   0.017  0.00  0.00    +0.123 A 
ATOM      4  C   UNL     1      -1.239   3.141   0.031  0.00  0.00    -0.022 A 
ATOM      5  C   UNL     1      -0.050   3.844   0.023  0.00  0.00    +0.020 A 
ATOM      6  C   UNL     1       1.156   3.166   0.008  0.00  0.00    +0.018 A 
ATOM      7 BR   UNL     1       2.782   4.132  -0.003  0.00  0.00    -0.050 Br
ENDROOT
BRANCH   4   8
ATOM      8  C   UNL     1      -2.552   3.880   0.048  0.00  0.00    -0.043 C 
BRANCH   8   9
ATOM      9  N   UNL     1      -3.083   3.902   1.417  0.00  0.00    +0.384 N 
ATOM     10  H   UNL     1      -3.238   2.871   1.768  0.00  0.00    -0.085 HD
ATOM     11  H   UNL     1      -2.368   4.411   2.080  0.00  0.00    -0.085 HD
BRANCH   9  12
ATOM     12  C   UNL     1      -4.366   4.616   1.472  0.00  0.00    -0.071 C 
ATOM     13  C   UNL     1      -4.123   6.124   1.690  0.00  0.00    -0.016 C 
ATOM     14  C   UNL     1      -5.276   6.563   2.627  0.00  0.00    -0.002 C 
ATOM     15  C   UNL     1      -5.420   5.352   3.582  0.00  0.00    -0.002 C 
ATOM     16  C   UNL     1      -5.191   4.125   2.675  0.00  0.00    -0.016 C 
ENDBRANCH   9  12
ENDBRANCH   8   9
ENDBRANCH   4   8
BRANCH   3  17
ATOM     17  O   UNL     1      -2.391   1.059   0.019  0.00  0.00    -0.483 OA
BRANCH  17  18
ATOM     18  C   UNL     1      -2.299  -0.367   0.011  0.00  0.00    +0.324 C 
BRANCH  18  19
ATOM     19  C   UNL     1      -3.684  -0.960   0.014  0.00  0.00    +0.248 C 
ATOM     20  O   UNL     1      -4.655  -0.233   0.023  0.00  0.00    -0.272 OA
ATOM     21  N   UNL     1      -3.844  -2.298   0.008  0.00  0.00    -0.327 N 
ATOM     22  H   UNL     1      -4.856  -2.731   0.010  0.00  0.00    +0.145 HD
ATOM     23  H   UNL     1      -2.964  -2.957  -0.000  0.00  0.00    +0.145 HD
ENDBRANCH  18  19
ENDBRANCH  17  18
ENDBRANCH   3  17
TORSDOF 6
