REMARK  Name = ZINC64164037
REMARK  5 active torsions:
REMARK  status: ('A' for Active; 'I' for Inactive)
REMARK    1  A    between atoms: N_9  and  C_14
REMARK    2  A    between atoms: C_10  and  O_13
REMARK    3  A    between atoms: C_14  and  C_15
REMARK    4  A    between atoms: C_18  and  C_21
REMARK    5  A    between atoms: N_23  and  C_24
REMARK                            x       y       z     vdW  Elec       q    Type
REMARK                         _______ _______ _______ _____ _____    ______ ____
ROOT
ATOM      1  C   UNL     1       2.983  -4.596  -1.288  0.00  0.00    +0.007 C 
ATOM      2  C   UNL     1       1.868  -4.204  -2.260  0.00  0.00    +0.006 C 
ATOM      3  C   UNL     1       2.270  -4.595  -3.683  0.00  0.00    +0.013 C 
ATOM      4  C   UNL     1       2.497  -6.107  -3.751  0.00  0.00    +0.075 C 
ATOM      5  C   UNL     1       3.612  -6.500  -2.780  0.00  0.00    +0.013 C 
ATOM      6  C   UNL     1       3.210  -6.108  -1.357  0.00  0.00    +0.006 C 
ENDROOT
BRANCH   4   7
ATOM      7  C   UNL     1       2.893  -6.492  -5.153  0.00  0.00    +0.219 C 
ATOM      8  O   UNL     1       2.984  -5.642  -6.013  0.00  0.00    -0.275 OA
ATOM      9  N   UNL     1       3.144  -7.782  -5.452  0.00  0.00    -0.278 N 
ATOM     10  H   UNL     1       3.071  -8.462  -4.764  0.00  0.00    +0.152 HD
BRANCH   9  11
ATOM     11  C   UNL     1       3.529  -8.157  -6.815  0.00  0.00    +0.269 C 
ATOM     12  N   UNL     1       2.345  -8.193  -7.681  0.00  0.00    -0.348 N 
ATOM     13  C   UNL     1       2.230  -9.407  -8.136  0.00  0.00    +0.061 A 
ATOM     14  C   UNL     1       1.260 -10.051  -9.033  0.00  0.00    +0.027 A 
ATOM     15  C   UNL     1       1.398 -11.358  -9.334  0.00  0.00    +0.002 A 
ATOM     16  C   UNL     1       2.442 -12.148  -8.821  0.00  0.00    +0.002 A 
ATOM     17  C   UNL     1       3.384 -11.658  -7.990  0.00  0.00    +0.027 A 
ATOM     18  C   UNL     1       3.336 -10.243  -7.593  0.00  0.00    +0.061 A 
ATOM     19  N   UNL     1       4.091  -9.514  -6.824  0.00  0.00    -0.348 N 
ATOM     20  H   UNL     1       1.755  -7.449  -7.878  0.00  0.00    +0.163 HD
ATOM     21  H   UNL     1       4.880  -9.811  -6.346  0.00  0.00    +0.163 HD
ENDBRANCH   9  11
ENDBRANCH   4   7
BRANCH   1  22
ATOM     22  C   UNL     1       2.581  -4.205   0.135  0.00  0.00    +0.115 C 
BRANCH  22  31
ATOM     23  C   UNL     1      -0.017   1.375   0.010  0.00  0.00    +0.001 A 
ATOM     24  C   UNL     1       1.168   2.095   0.002  0.00  0.00    +0.002 A 
ATOM     25  C   UNL     1       2.386   1.444  -0.012  0.00  0.00    +0.024 A 
ATOM     26  C   UNL     1       2.422   0.060  -0.018  0.00  0.00    +0.042 A 
ATOM     27  C   UNL     1       1.223  -0.674  -0.014  0.00  0.00    +0.058 A 
ATOM     28  C   UNL     1       0.002  -0.004   0.002  0.00  0.00    +0.015 A 
ATOM     29  C   UNL     1       1.301  -2.146  -0.031  0.00  0.00    +0.251 C 
ATOM     30  O   UNL     1       0.313  -2.811  -0.278  0.00  0.00    -0.270 OA
ATOM     31  N   UNL     1       2.480  -2.747   0.230  0.00  0.00    -0.256 N 
ATOM     32  C   UNL     1       3.660  -1.968   0.607  0.00  0.00    +0.299 C 
ATOM     33  N   UNL     1       3.621  -0.645  -0.027  0.00  0.00    -0.303 N 
ATOM     34  H   UNL     1       4.413  -0.271  -0.443  0.00  0.00    +0.150 HD
BRANCH  32  35
ATOM     35  O   UNL     1       3.688  -1.808   2.027  0.00  0.00    -0.359 OA
ATOM     36  H   UNL     1       4.444  -1.301   2.351  0.00  0.00    +0.213 HD
ENDBRANCH  32  35
ENDBRANCH  22  31
ENDBRANCH   1  22
TORSDOF 5
