REMARK  Name = ZINC45470588
REMARK  8 active torsions:
REMARK  status: ('A' for Active; 'I' for Inactive)
REMARK    1  A    between atoms: C_1  and  C_2
REMARK    2  A    between atoms: C_2  and  O_3
REMARK    3  A    between atoms: O_3  and  C_4
REMARK    4  A    between atoms: C_9  and  N_10
REMARK    5  A    between atoms: C_11  and  C_13
REMARK    6  A    between atoms: C_13  and  C_15
REMARK    7  A    between atoms: C_13  and  N_21
REMARK    8  A    between atoms: C_31  and  C_34
REMARK                            x       y       z     vdW  Elec       q    Type
REMARK                         _______ _______ _______ _____ _____    ______ ____
ROOT
ATOM      1  C   UNL     1       3.101  -1.068   5.581  0.00  0.00    +0.050 C 
ENDROOT
BRANCH   1   2
ATOM      2  N   UNL     1       3.744  -1.872   6.629  0.00  0.00    +0.391 N 
ATOM      3  C   UNL     1       2.759  -2.812   7.158  0.00  0.00    -0.076 C 
ATOM      4  C   UNL     1       3.468  -4.056   7.646  0.00  0.00    +0.000 C 
ATOM      5  C   UNL     1       3.770  -3.918   9.149  0.00  0.00    +0.104 C 
ATOM      6  N   UNL     1       4.201  -2.545   9.480  0.00  0.00    -0.317 N 
ATOM      7  C   UNL     1       5.107  -1.792   8.638  0.00  0.00    +0.088 C 
ATOM      8  C   UNL     1       4.303  -0.994   7.584  0.00  0.00    -0.058 C 
ATOM      9  C   UNL     1       3.719  -1.953  10.642  0.00  0.00    +0.121 A 
ATOM     10  C   UNL     1       3.034  -2.724  11.576  0.00  0.00    +0.044 A 
ATOM     11  C   UNL     1       2.560  -2.123  12.727  0.00  0.00    +0.017 A 
ATOM     12  C   UNL     1       2.787  -0.764  12.907  0.00  0.00    +0.073 A 
ATOM     13  C   UNL     1       3.474  -0.060  11.939  0.00  0.00    +0.125 A 
ATOM     14  N   UNL     1       3.920  -0.661  10.852  0.00  0.00    -0.240 NA
ATOM     15  H   UNL     1       4.492  -2.402   6.207  0.00  0.00    -0.080 HD
BRANCH  12  16
ATOM     16  C   UNL     1       2.288  -0.067  14.146  0.00  0.00    +0.419 C 
ATOM     17  F   UNL     1       3.271  -0.122  15.140  0.00  0.00    -0.166 F 
ATOM     18  F   UNL     1       2.002   1.269  13.846  0.00  0.00    -0.166 F 
ATOM     19  F   UNL     1       1.127  -0.701  14.603  0.00  0.00    -0.166 F 
ENDBRANCH  12  16
ENDBRANCH   1   2
BRANCH   1  20
ATOM     20  C   UNL     1       4.118  -0.144   4.961  0.00  0.00    -0.052 A 
ATOM     21  C   UNL     1       5.401  -0.596   4.711  0.00  0.00    +0.002 A 
ATOM     22  C   UNL     1       6.333   0.251   4.143  0.00  0.00    +0.000 A 
ATOM     23  C   UNL     1       5.984   1.549   3.823  0.00  0.00    +0.000 A 
ATOM     24  C   UNL     1       4.701   2.001   4.072  0.00  0.00    +0.000 A 
ATOM     25  C   UNL     1       3.767   1.153   4.637  0.00  0.00    +0.002 A 
ENDBRANCH   1  20
BRANCH   1  27
ATOM     26  N   UNL     1       1.455  -1.604   3.815  0.00  0.00    -0.284 N 
ATOM     27  C   UNL     1       2.539  -1.980   4.521  0.00  0.00    +0.208 C 
ATOM     28  O   UNL     1       3.063  -3.053   4.304  0.00  0.00    -0.277 OA
ATOM     29  H   UNL     1       1.073  -0.722   3.945  0.00  0.00    +0.155 HD
BRANCH  26  35
ATOM     30  C   UNL     1      -0.486  -2.425   2.623  0.00  0.00    +0.142 A 
ATOM     31  C   UNL     1      -1.049  -3.298   1.706  0.00  0.00    +0.047 A 
ATOM     32  C   UNL     1      -0.257  -4.232   1.064  0.00  0.00    +0.004 A 
ATOM     33  C   UNL     1       1.097  -4.299   1.335  0.00  0.00    +0.002 A 
ATOM     34  C   UNL     1       1.666  -3.432   2.248  0.00  0.00    +0.027 A 
ATOM     35  C   UNL     1       0.879  -2.488   2.892  0.00  0.00    +0.076 A 
BRANCH  30  36
ATOM     36  O   UNL     1      -1.264  -1.506   3.255  0.00  0.00    -0.490 OA
BRANCH  36  38
ATOM     37  C   UNL     1      -3.362  -0.406   3.732  0.00  0.00    +0.048 C 
ATOM     38  C   UNL     1      -2.655  -1.499   2.929  0.00  0.00    +0.226 C 
ENDBRANCH  36  38
ENDBRANCH  30  36
ENDBRANCH  26  35
ENDBRANCH   1  27
TORSDOF 7
