REMARK  Name = ZINC42894404
REMARK  4 active torsions:
REMARK  status: ('A' for Active; 'I' for Inactive)
REMARK    1  A    between atoms: C_1  and  C_2
REMARK    2  A    between atoms: C_6  and  N_8
REMARK    3  A    between atoms: C_9  and  C_11
REMARK    4  A    between atoms: C_11  and  C_12
REMARK                            x       y       z     vdW  Elec       q    Type
REMARK                         _______ _______ _______ _____ _____    ______ ____
ROOT
ATOM      1  N   UNL     1       0.050  -2.796   2.396  0.00  0.00    -0.283 N 
ATOM      2  C   UNL     1       0.149  -2.133   3.565  0.00  0.00    +0.220 C 
ATOM      3  O   UNL     1       0.134  -0.920   3.577  0.00  0.00    -0.275 OA
ATOM      4  H   UNL     1      -0.002  -3.765   2.391  0.00  0.00    +0.155 HD
ENDROOT
BRANCH   1  10
ATOM      5  C   UNL     1      -1.307   1.190  -0.143  0.00  0.00    +0.044 C 
ATOM      6  C   UNL     1      -0.627  -0.153  -0.071  0.00  0.00    -0.049 A 
ATOM      7  C   UNL     1      -0.029  -0.686  -1.198  0.00  0.00    +0.006 A 
ATOM      8  C   UNL     1       0.596  -1.918  -1.137  0.00  0.00    +0.040 A 
ATOM      9  C   UNL     1       0.624  -2.621   0.053  0.00  0.00    +0.144 A 
ATOM     10  C   UNL     1       0.024  -2.087   1.188  0.00  0.00    +0.069 A 
ATOM     11  C   UNL     1      -0.597  -0.848   1.123  0.00  0.00    +0.029 A 
ATOM     12  F   UNL     1       1.234  -3.825   0.114  0.00  0.00    -0.204 F 
ENDBRANCH   1  10
BRANCH   2  13
ATOM     13  C   UNL     1       0.279  -2.897   4.857  0.00  0.00    +0.128 C 
BRANCH  13  14
ATOM     14  C   UNL     1       0.373  -1.914   6.025  0.00  0.00    +0.169 C 
ATOM     15  C   UNL     1       0.540  -2.656   7.335  0.00  0.00    +0.241 C 
ATOM     16  O   UNL     1       1.454  -3.388   7.651  0.00  0.00    -0.273 OA
ATOM     17  N   UNL     1      -0.537  -2.333   8.078  0.00  0.00    -0.239 N 
ATOM     18  C   UNL     1      -1.353  -1.498   7.425  0.00  0.00    +0.307 C 
ATOM     19  O   UNL     1      -2.390  -1.065   7.889  0.00  0.00    -0.252 OA
ATOM     20  N   UNL     1      -0.898  -1.187   6.194  0.00  0.00    -0.287 N 
ATOM     21  H   UNL     1      -0.701  -2.665   8.974  0.00  0.00    +0.159 HD
ATOM     22  H   UNL     1      -1.321  -0.602   5.547  0.00  0.00    +0.151 HD
ENDBRANCH  13  14
ENDBRANCH   2  13
TORSDOF 3
