REMARK  Name = ZINC39631617
REMARK  14 active torsions:
REMARK  status: ('A' for Active; 'I' for Inactive)
REMARK    1  A    between atoms: C_1  and  C_2
REMARK    2  A    between atoms: C_2  and  O_3
REMARK    3  A    between atoms: O_3  and  C_4
REMARK    4  A    between atoms: C_9  and  C_10
REMARK    5  A    between atoms: C_14  and  C_23
REMARK    6  A    between atoms: N_25  and  C_26
REMARK    7  A    between atoms: C_26  and  C_28
REMARK    8  A    between atoms: C_26  and  C_29
REMARK    9  A    between atoms: C_29  and  C_30
REMARK   10  A    between atoms: C_30  and  C_31
REMARK   11  A    between atoms: C_31  and  C_32
REMARK   12  A    between atoms: C_32  and  C_33
REMARK   13  A    between atoms: C_32  and  C_34
REMARK   14  A    between atoms: C_32  and  O_35
REMARK                            x       y       z     vdW  Elec       q    Type
REMARK                         _______ _______ _______ _____ _____    ______ ____
ROOT
ATOM      1  C   UNL     1      -4.094  -1.340   0.108  0.00  0.00    +0.250 C 
ATOM      2  O   UNL     1      -4.037  -0.131   0.223  0.00  0.00    -0.270 OA
ATOM      3  N   UNL     1      -5.290  -1.950  -0.012  0.00  0.00    -0.296 N 
ATOM      4  C   UNL     1      -5.568  -3.405  -0.054  0.00  0.00    +0.121 C 
ATOM      5  C   UNL     1      -6.862  -3.579   0.772  0.00  0.00    +0.100 C 
ATOM      6  C   UNL     1      -7.552  -2.205   0.715  0.00  0.00    -0.004 C 
ATOM      7  C   UNL     1      -6.625  -1.316  -0.127  0.00  0.00    +0.115 C 
ATOM      8  C   UNL     1      -7.696  -1.627   2.119  0.00  0.00    -0.010 C 
ATOM      9  C   UNL     1      -8.435  -0.288   2.042  0.00  0.00    -0.082 C 
ATOM     10  N   UNL     1      -9.757  -0.492   1.437  0.00  0.00    +0.379 N 
ATOM     11  C   UNL     1      -9.608  -0.961   0.054  0.00  0.00    -0.082 C 
ATOM     12  C   UNL     1      -8.918  -2.328   0.047  0.00  0.00    -0.010 C 
ATOM     13  H   UNL     1     -10.267  -1.180   1.971  0.00  0.00    -0.086 HD
ATOM     14  H   UNL     1     -10.266   0.379   1.443  0.00  0.00    -0.086 HD
ENDROOT
BRANCH   1  20
ATOM     15  C   UNL     1      -1.755  -1.744   0.875  0.00  0.00    +0.133 A 
ATOM     16  C   UNL     1      -0.597  -2.506   0.865  0.00  0.00    +0.046 A 
ATOM     17  C   UNL     1      -0.526  -3.647   0.091  0.00  0.00    +0.004 A 
ATOM     18  C   UNL     1      -1.608  -4.039  -0.680  0.00  0.00    +0.001 A 
ATOM     19  C   UNL     1      -2.767  -3.294  -0.682  0.00  0.00    +0.017 A 
ATOM     20  C   UNL     1      -2.854  -2.140   0.101  0.00  0.00    +0.078 A 
BRANCH  15  21
ATOM     21  O   UNL     1      -1.826  -0.622   1.635  0.00  0.00    -0.491 OA
BRANCH  21  23
ATOM     22  C   UNL     1      -0.934   1.004   3.183  0.00  0.00    +0.048 C 
ATOM     23  C   UNL     1      -0.667  -0.281   2.397  0.00  0.00    +0.226 C 
ENDBRANCH  21  23
ENDBRANCH  15  21
ENDBRANCH   1  20
BRANCH   5  24
ATOM     24  C   UNL     1      -6.530  -3.943   2.196  0.00  0.00    +0.218 C 
ATOM     25  O   UNL     1      -5.508  -3.534   2.704  0.00  0.00    -0.275 OA
ATOM     26  N   UNL     1      -7.370  -4.723   2.905  0.00  0.00    -0.312 N 
ATOM     27  H   UNL     1      -8.188  -5.050   2.499  0.00  0.00    +0.149 HD
BRANCH  26  28
ATOM     28  C   UNL     1      -7.048  -5.077   4.290  0.00  0.00    +0.070 C 
ATOM     29  C   UNL     1      -6.133  -6.303   4.303  0.00  0.00    +0.028 C 
BRANCH  28  30
ATOM     30  C   UNL     1      -8.338  -5.395   5.049  0.00  0.00    +0.022 C 
BRANCH  30  31
ATOM     31  C   UNL     1      -9.198  -4.134   5.143  0.00  0.00    +0.005 C 
BRANCH  31  32
ATOM     32  C   UNL     1     -10.488  -4.452   5.902  0.00  0.00    +0.034 C 
BRANCH  32  33
ATOM     33  C   UNL     1     -11.349  -3.191   5.997  0.00  0.00    +0.061 C 
ATOM     34  C   UNL     1     -11.693  -2.701   4.588  0.00  0.00    +0.041 C 
ATOM     35  C   UNL     1     -12.639  -3.509   6.755  0.00  0.00    +0.041 C 
BRANCH  33  36
ATOM     36  O   UNL     1     -10.627  -2.172   6.692  0.00  0.00    -0.389 OA
ATOM     37  H   UNL     1     -10.375  -2.415   7.593  0.00  0.00    +0.210 HD
ENDBRANCH  33  36
ENDBRANCH  32  33
ENDBRANCH  31  32
ENDBRANCH  30  31
ENDBRANCH  28  30
ENDBRANCH  26  28
ENDBRANCH   5  24
TORSDOF 10
