REMARK  Name = ZINC63830651
REMARK  7 active torsions:
REMARK  status: ('A' for Active; 'I' for Inactive)
REMARK    1  A    between atoms: C_7  and  C_10
REMARK    2  A    between atoms: C_10  and  C_11
REMARK    3  A    between atoms: C_11  and  N_12
REMARK    4  A    between atoms: C_13  and  C_15
REMARK    5  A    between atoms: C_17  and  S_22
REMARK    6  A    between atoms: S_22  and  N_25
REMARK    7  A    between atoms: N_25  and  C_26
REMARK                            x       y       z     vdW  Elec       q    Type
REMARK                         _______ _______ _______ _____ _____    ______ ____
ROOT
ATOM      1  N   UNL     1      -0.458  -4.798  -1.460  0.00  0.00    -0.311 N 
ATOM      2  C   UNL     1      -0.811  -5.380  -2.623  0.00  0.00    +0.245 C 
ATOM      3  O   UNL     1      -0.370  -4.956  -3.674  0.00  0.00    -0.270 OA
ATOM      4  H   UNL     1      -0.810  -5.136  -0.622  0.00  0.00    +0.149 HD
ENDROOT
BRANCH   2   5
ATOM      5  C   UNL     1      -1.734  -6.535  -2.622  0.00  0.00    +0.052 A 
ATOM      6  C   UNL     1      -2.247  -7.021  -1.418  0.00  0.00    +0.042 A 
ATOM      7  C   UNL     1      -3.108  -8.098  -1.423  0.00  0.00    +0.106 A 
ATOM      8  C   UNL     1      -3.464  -8.698  -2.619  0.00  0.00    +0.029 A 
ATOM      9  C   UNL     1      -2.959  -8.223  -3.815  0.00  0.00    +0.018 A 
ATOM     10  C   UNL     1      -2.101  -7.141  -3.825  0.00  0.00    +0.030 A 
ATOM     11 BR   UNL     1      -1.419  -6.487  -5.463  0.00  0.00    -0.050 Br
BRANCH   7  12
ATOM     12  S   UNL     1      -3.756  -8.712   0.096  0.00  0.00    +0.059 S 
ATOM     13  O   UNL     1      -4.110 -10.069  -0.133  0.00  0.00    -0.153 OA
ATOM     14  O   UNL     1      -2.843  -8.324   1.113  0.00  0.00    -0.153 OA
BRANCH  12  15
ATOM     15  N   UNL     1      -5.168  -7.898   0.391  0.00  0.00    -0.187 NA
ATOM     16  H   UNL     1      -5.237  -7.310   1.159  0.00  0.00    +0.148 HD
BRANCH  15  17
ATOM     17  C   UNL     1      -6.312  -8.066  -0.509  0.00  0.00    +0.077 C 
ATOM     18  C   UNL     1      -7.222  -6.856  -0.728  0.00  0.00    +0.022 C 
ATOM     19  C   UNL     1      -7.709  -8.038   0.113  0.00  0.00    +0.022 C 
ENDBRANCH  15  17
ENDBRANCH  12  15
ENDBRANCH   7  12
ENDBRANCH   2   5
BRANCH   1  20
ATOM     20  C   UNL     1       0.457  -3.653  -1.462  0.00  0.00    +0.109 C 
BRANCH  20  21
ATOM     21  C   UNL     1       0.691  -3.186  -0.024  0.00  0.00    +0.052 C 
BRANCH  21  28
ATOM     22  C   UNL     1      -0.016   1.348   0.009  0.00  0.00    +0.001 A 
ATOM     23  C   UNL     1       1.166   2.101   0.002  0.00  0.00    +0.002 A 
ATOM     24  C   UNL     1       2.391   1.535  -0.013  0.00  0.00    +0.026 A 
ATOM     25  C   UNL     1       2.529   0.120  -0.022  0.00  0.00    +0.043 A 
ATOM     26  N   UNL     1       3.587  -0.654  -0.037  0.00  0.00    -0.380 N 
ATOM     27  C   UNL     1       3.143  -2.053  -0.041  0.00  0.00    +0.144 C 
ATOM     28  C   UNL     1       1.631  -2.008  -0.025  0.00  0.00    -0.040 C 
ATOM     29  C   UNL     1       1.295  -0.698  -0.014  0.00  0.00    -0.001 A 
ATOM     30  C   UNL     1       0.002  -0.004   0.002  0.00  0.00    +0.010 A 
ATOM     31  H   UNL     1       4.509  -0.353  -0.045  0.00  0.00    +0.160 HD
ENDBRANCH  21  28
ENDBRANCH  20  21
ENDBRANCH   1  20
TORSDOF 7
