REMARK  Name = ZINC30905812
REMARK  10 active torsions:
REMARK  status: ('A' for Active; 'I' for Inactive)
REMARK    1  A    between atoms: C_1  and  C_2
REMARK    2  A    between atoms: C_4  and  C_18
REMARK    3  A    between atoms: C_5  and  C_17
REMARK    4  A    between atoms: N_6  and  C_7
REMARK    5  A    between atoms: C_11  and  C_13
REMARK    6  A    between atoms: C_18  and  N_19
REMARK    7  A    between atoms: N_19  and  C_20
REMARK    8  A    between atoms: N_23  and  C_26
REMARK    9  A    between atoms: C_26  and  C_27
REMARK   10  A    between atoms: N_29  and  C_30
REMARK                            x       y       z     vdW  Elec       q    Type
REMARK                         _______ _______ _______ _____ _____    ______ ____
ROOT
ATOM      1  C   UNL     1      -0.018   1.503   0.010  0.00  0.00    +0.064 C 
ATOM      2  C   UNL     1       0.002  -0.004   0.002  0.00  0.00    +0.021 A 
ATOM      3  C   UNL     1       0.008  -0.789  -1.095  0.00  0.00    +0.024 A 
ATOM      4  C   UNL     1       0.029  -2.128  -0.656  0.00  0.00    -0.043 A 
ATOM      5  C   UNL     1       0.035  -2.113   0.692  0.00  0.00    +0.022 A 
ATOM      6  N   UNL     1       0.024  -0.811   1.104  0.00  0.00    -0.317 N 
ATOM      7  C   UNL     1       0.056  -3.323   1.589  0.00  0.00    +0.064 C 
ENDROOT
BRANCH   6   8
ATOM      8  C   UNL     1       0.030  -0.375   2.436  0.00  0.00    +0.047 A 
ATOM      9  C   UNL     1       1.133  -0.621   3.243  0.00  0.00    +0.026 A 
ATOM     10  C   UNL     1       1.137  -0.189   4.555  0.00  0.00    +0.003 A 
ATOM     11  C   UNL     1       0.043   0.486   5.066  0.00  0.00    +0.012 A 
ATOM     12  C   UNL     1      -1.056   0.733   4.265  0.00  0.00    +0.057 A 
ATOM     13  C   UNL     1      -1.063   0.309   2.950  0.00  0.00    +0.038 A 
BRANCH  12  14
ATOM     14  C   UNL     1      -2.245   1.469   4.825  0.00  0.00    +0.417 C 
ATOM     15  F   UNL     1      -2.003   1.798   6.163  0.00  0.00    -0.166 F 
ATOM     16  F   UNL     1      -2.458   2.640   4.088  0.00  0.00    -0.166 F 
ATOM     17  F   UNL     1      -3.380   0.654   4.743  0.00  0.00    -0.166 F 
ENDBRANCH  12  14
ENDBRANCH   6   8
BRANCH   4  18
ATOM     18  C   UNL     1       0.042  -3.353  -1.534  0.00  0.00    -0.045 C 
BRANCH  18  19
ATOM     19  N   UNL     1      -1.315  -3.910  -1.617  0.00  0.00    +0.384 N 
ATOM     20  H   UNL     1      -1.633  -4.161  -0.693  0.00  0.00    -0.085 HD
ATOM     21  H   UNL     1      -1.938  -3.220  -2.011  0.00  0.00    -0.085 HD
BRANCH  19  22
ATOM     22  C   UNL     1      -1.303  -5.104  -2.473  0.00  0.00    -0.069 C 
ATOM     23  C   UNL     1      -0.949  -4.702  -3.907  0.00  0.00    -0.000 C 
ATOM     24  C   UNL     1      -0.998  -5.940  -4.806  0.00  0.00    +0.083 C 
ATOM     25  N   UNL     1      -2.343  -6.527  -4.760  0.00  0.00    -0.294 NA
ATOM     26  C   UNL     1      -2.686  -6.964  -3.401  0.00  0.00    +0.083 C 
ATOM     27  C   UNL     1      -2.688  -5.756  -2.461  0.00  0.00    -0.000 C 
BRANCH  25  28
ATOM     28  C   UNL     1      -2.466  -7.636  -5.716  0.00  0.00    +0.180 C 
BRANCH  28  29
ATOM     29  C   UNL     1      -3.911  -8.050  -5.821  0.00  0.00    +0.227 C 
ATOM     30  O   UNL     1      -4.755  -7.479  -5.164  0.00  0.00    -0.274 OA
ATOM     31  N   UNL     1      -4.266  -9.056  -6.645  0.00  0.00    -0.317 N 
ATOM     32  C   UNL     1      -5.670  -9.459  -6.747  0.00  0.00    +0.128 C 
ATOM     33  H   UNL     1      -3.590  -9.514  -7.170  0.00  0.00    +0.148 HD
ENDBRANCH  28  29
ENDBRANCH  25  28
ENDBRANCH  19  22
ENDBRANCH  18  19
ENDBRANCH   4  18
TORSDOF 7
