REMARK  Name = ZINC37840867
REMARK  6 active torsions:
REMARK  status: ('A' for Active; 'I' for Inactive)
REMARK    1  A    between atoms: C_1  and  C_2
REMARK    2  A    between atoms: C_3  and  S_9
REMARK    3  A    between atoms: C_4  and  C_8
REMARK    4  A    between atoms: S_9  and  N_12
REMARK    5  A    between atoms: N_16  and  C_19
REMARK    6  A    between atoms: C_19  and  C_20
REMARK                            x       y       z     vdW  Elec       q    Type
REMARK                         _______ _______ _______ _____ _____    ______ ____
ROOT
ATOM      1  N   UNL     1       1.569  -0.072  -3.243  0.00  0.00    -0.178 NA
ATOM      2  C   UNL     1       2.234   1.231  -3.038  0.00  0.00    +0.107 C 
ATOM      3  C   UNL     1       3.676   1.043  -2.533  0.00  0.00    -0.001 C 
ATOM      4  C   UNL     1       3.716  -0.088  -1.530  0.00  0.00    -0.077 C 
ATOM      5  N   UNL     1       4.050  -1.333  -2.220  0.00  0.00    +0.386 N 
ATOM      6  C   UNL     1       2.945  -2.039  -2.744  0.00  0.00    -0.061 C 
ATOM      7  C   UNL     1       2.249  -1.204  -3.837  0.00  0.00    +0.091 C 
ATOM      8  H   UNL     1       4.679  -1.117  -2.979  0.00  0.00    -0.081 HD
ENDROOT
BRANCH   1   9
ATOM      9  S   UNL     1      -0.008  -0.247  -2.770  0.00  0.00    +0.064 S 
ATOM     10  O   UNL     1      -0.548  -1.312  -3.541  0.00  0.00    -0.153 OA
ATOM     11  O   UNL     1      -0.578   1.055  -2.765  0.00  0.00    -0.153 OA
BRANCH   9  14
ATOM     12  C   UNL     1      -0.018   1.503   0.010  0.00  0.00    +0.067 C 
ATOM     13  C   UNL     1       0.002  -0.004   0.002  0.00  0.00    +0.060 A 
ATOM     14  C   UNL     1       0.008  -0.796  -1.095  0.00  0.00    +0.148 A 
ATOM     15  C   UNL     1       0.028  -2.127  -0.666  0.00  0.00    +0.086 A 
ATOM     16  N   UNL     1       0.035  -2.134   0.643  0.00  0.00    -0.177 NA
ATOM     17  N   UNL     1       0.024  -0.805   1.088  0.00  0.00    -0.280 N 
ATOM     18  H   UNL     1       0.029  -0.513   2.013  0.00  0.00    +0.189 HD
ATOM     19  C   UNL     1       0.040  -3.343  -1.556  0.00  0.00    +0.069 C 
ENDBRANCH   9  14
ENDBRANCH   1   9
BRANCH   5  20
ATOM     20  C   UNL     1       4.756  -2.210  -1.276  0.00  0.00    +0.018 C 
BRANCH  20  21
ATOM     21  C   UNL     1       6.072  -1.583  -0.896  0.00  0.00    +0.194 C 
ATOM     22  O   UNL     1       6.392  -0.512  -1.365  0.00  0.00    -0.278 OA
ATOM     23  N   UNL     1       6.895  -2.214  -0.035  0.00  0.00    -0.331 N 
ATOM     24  H   UNL     1       6.640  -3.072   0.340  0.00  0.00    +0.145 HD
ATOM     25  H   UNL     1       7.743  -1.811   0.210  0.00  0.00    +0.145 HD
ENDBRANCH  20  21
ENDBRANCH   5  20
TORSDOF 4
