REMARK  Name = ZINC37956716
REMARK  5 active torsions:
REMARK  status: ('A' for Active; 'I' for Inactive)
REMARK    1  A    between atoms: C_4  and  CA_8
REMARK    2  A    between atoms: CA_8  and  C_10
REMARK    3  A    between atoms: CA_8  and  N_13
REMARK    4  A    between atoms: N_13  and  C_14
REMARK    5  A    between atoms: C_14  and  C_15
REMARK                            x       y       z     vdW  Elec       q    Type
REMARK                         _______ _______ _______ _____ _____    ______ ____
ROOT
ATOM      1  CA  UNL     1       3.711  -0.711  -0.037  0.00  0.00    +0.077 C 
ENDROOT
BRANCH   1   5
ATOM      2  C   UNL     1      -0.017   1.379   0.010  0.00  0.00    +0.018 A 
ATOM      3  C   UNL     1       1.171   2.086   0.002  0.00  0.00    +0.039 A 
ATOM      4  C   UNL     1       2.379   1.411  -0.013  0.00  0.00    +0.126 A 
ATOM      5  C   UNL     1       2.397   0.026  -0.021  0.00  0.00    -0.014 A 
ATOM      6  C   UNL     1       1.209  -0.680  -0.013  0.00  0.00    +0.020 A 
ATOM      7  C   UNL     1       0.002  -0.004   0.002  0.00  0.00    +0.018 A 
ATOM      8 BR   UNL     1      -1.623  -0.971   0.013  0.00  0.00    -0.050 Br
ATOM      9  F   UNL     1       3.539   2.102  -0.021  0.00  0.00    -0.205 F 
ENDBRANCH   1   5
BRANCH   1  10
ATOM     10  C   UNL     1       4.256  -0.733  -1.442  0.00  0.00    +0.347 C 
ATOM     11  O   UNL     1       4.987   0.164  -1.827  0.00  0.00    -0.248 OA
ATOM     12  OXT UNL     1       3.967  -1.649  -2.194  0.00  0.00    -0.248 OA
ENDBRANCH   1  10
BRANCH   1  13
ATOM     13  N   UNL     1       3.507  -2.088   0.431  0.00  0.00    +0.392 N 
ATOM     14  H1  UNL     1       3.066  -2.072   1.338  0.00  0.00    -0.084 HD
ATOM     15  H2  UNL     1       2.916  -2.581  -0.222  0.00  0.00    -0.084 HD
BRANCH  13  16
ATOM     16  C   UNL     1       4.805  -2.769   0.528  0.00  0.00    -0.049 C 
BRANCH  16  17
ATOM     17  C   UNL     1       4.592  -4.204   1.016  0.00  0.00    +0.101 C 
ATOM     18  C   UNL     1       5.953  -4.931   1.160  0.00  0.00    +0.032 C 
ATOM     19  C   UNL     1       5.598  -6.015   2.213  0.00  0.00    +0.030 C 
ATOM     20  C   UNL     1       4.570  -5.284   3.103  0.00  0.00    +0.160 C 
ATOM     21  O   UNL     1       4.024  -4.203   2.336  0.00  0.00    -0.378 OA
ENDBRANCH  16  17
ENDBRANCH  13  16
ENDBRANCH   1  13
TORSDOF 5
