REMARK  Name = ZINC13981555
REMARK  13 active torsions:
REMARK  status: ('A' for Active; 'I' for Inactive)
REMARK    1  A    between atoms: C_1  and  C_2
REMARK    2  A    between atoms: C_6  and  C_35
REMARK    3  A    between atoms: C_7  and  O_8
REMARK    4  A    between atoms: O_8  and  C_9
REMARK    5  A    between atoms: C_9  and  C_10
REMARK    6  A    between atoms: N_12  and  N_13
REMARK    7  A    between atoms: C_14  and  C_16
REMARK    8  A    between atoms: C_19  and  N_22
REMARK    9  A    between atoms: C_23  and  C_25
REMARK   10  A    between atoms: C_28  and  C_31
REMARK   11  A    between atoms: C_31  and  C_32
REMARK   12  A    between atoms: C_31  and  C_33
REMARK   13  A    between atoms: C_31  and  C_34
REMARK                            x       y       z     vdW  Elec       q    Type
REMARK                         _______ _______ _______ _____ _____    ______ ____
ROOT
ATOM      1  C   UNL     1      -1.306   1.926   0.002  0.00  0.00    +0.038 A 
ATOM      2  C   UNL     1      -1.330   3.309   0.202  0.00  0.00    +0.015 A 
ATOM      3  C   UNL     1      -2.532   3.981   0.211  0.00  0.00    +0.024 A 
ATOM      4  C   UNL     1      -3.722   3.283   0.033  0.00  0.00    +0.034 A 
ATOM      5  C   UNL     1      -3.702   1.905  -0.161  0.00  0.00    +0.024 A 
ATOM      6  C   UNL     1      -2.504   1.228  -0.176  0.00  0.00    +0.015 A 
ENDROOT
BRANCH   1   8
ATOM      7  N   UNL     1       1.135   1.878   0.153  0.00  0.00    -0.230 N 
ATOM      8  C   UNL     1      -0.020   1.203  -0.014  0.00  0.00    +0.260 C 
ATOM      9  O   UNL     1      -0.001  -0.001  -0.182  0.00  0.00    -0.269 OA
ATOM     10  H   UNL     1       1.120   2.839   0.288  0.00  0.00    +0.173 HD
BRANCH   7  13
ATOM     11  C   UNL     1       3.511   1.868   0.299  0.00  0.00    +0.267 C 
ATOM     12  O   UNL     1       3.492   3.069   0.468  0.00  0.00    -0.271 OA
ATOM     13  N   UNL     1       2.357   1.193   0.132  0.00  0.00    -0.231 N 
ATOM     14  H   UNL     1       2.372   0.232  -0.002  0.00  0.00    +0.173 HD
BRANCH  11  15
ATOM     15  C   UNL     1       4.825   1.131   0.277  0.00  0.00    +0.326 C 
BRANCH  15  16
ATOM     16  O   UNL     1       5.895   2.058   0.474  0.00  0.00    -0.482 OA
BRANCH  16  23
ATOM     17  C   UNL     1       6.954   1.235   2.960  0.00  0.00    +0.047 C 
ATOM     18  C   UNL     1       7.729   1.131   1.672  0.00  0.00    -0.009 A 
ATOM     19  C   UNL     1       9.010   0.613   1.676  0.00  0.00    +0.007 A 
ATOM     20  C   UNL     1       9.724   0.522   0.495  0.00  0.00    +0.001 A 
ATOM     21  C   UNL     1       9.157   0.946  -0.693  0.00  0.00    +0.007 A 
ATOM     22  C   UNL     1       7.875   1.461  -0.702  0.00  0.00    -0.009 A 
ATOM     23  C   UNL     1       7.156   1.552   0.481  0.00  0.00    +0.127 A 
ATOM     24  C   UNL     1       7.257   1.922  -1.997  0.00  0.00    +0.047 C 
ENDBRANCH  16  23
ENDBRANCH  15  16
ENDBRANCH  11  15
ENDBRANCH   7  13
ENDBRANCH   1   8
BRANCH   4  25
ATOM     25  N   UNL     1      -4.937   3.965   0.048  0.00  0.00    -0.282 N 
ATOM     26  C   UNL     1      -6.039   3.368   0.543  0.00  0.00    +0.248 C 
ATOM     27  O   UNL     1      -5.955   2.273   1.064  0.00  0.00    -0.270 OA
ATOM     28  H   UNL     1      -4.989   4.870  -0.298  0.00  0.00    +0.155 HD
BRANCH  26  29
ATOM     29  C   UNL     1      -7.350   4.045   0.453  0.00  0.00    +0.037 A 
ATOM     30  C   UNL     1      -7.449   5.306  -0.140  0.00  0.00    +0.013 A 
ATOM     31  C   UNL     1      -8.676   5.930  -0.225  0.00  0.00    +0.005 A 
ATOM     32  C   UNL     1      -9.806   5.314   0.285  0.00  0.00    -0.042 A 
ATOM     33  C   UNL     1      -9.714   4.067   0.878  0.00  0.00    +0.005 A 
ATOM     34  C   UNL     1      -8.494   3.430   0.965  0.00  0.00    +0.013 A 
BRANCH  32  35
ATOM     35  C   UNL     1     -11.142   6.005   0.194  0.00  0.00    -0.013 C 
ATOM     36  C   UNL     1     -11.702   6.220   1.601  0.00  0.00    +0.015 C 
ATOM     37  C   UNL     1     -10.971   7.358  -0.499  0.00  0.00    +0.015 C 
ATOM     38  C   UNL     1     -12.111   5.138  -0.613  0.00  0.00    +0.015 C 
ENDBRANCH  32  35
ENDBRANCH  26  29
ENDBRANCH   4  25
TORSDOF 8
