REMARK  Name = ZINC27026668
REMARK  14 active torsions:
REMARK  status: ('A' for Active; 'I' for Inactive)
REMARK    1  A    between atoms: C_1  and  C_2
REMARK    2  A    between atoms: C_2  and  N_3
REMARK    3  A    between atoms: N_3  and  C_4
REMARK    4  A    between atoms: N_3  and  S_6
REMARK    5  A    between atoms: C_4  and  C_5
REMARK    6  A    between atoms: S_6  and  C_9
REMARK    7  A    between atoms: C_12  and  C_15
REMARK    8  A    between atoms: N_19  and  C_20
REMARK    9  A    between atoms: N_26  and  C_27
REMARK   10  A    between atoms: C_27  and  C_28
REMARK   11  A    between atoms: C_28  and  C_29
REMARK   12  A    between atoms: C_29  and  N_30
REMARK   13  A    between atoms: N_30  and  C_31
REMARK   14  A    between atoms: N_30  and  C_32
REMARK                            x       y       z     vdW  Elec       q    Type
REMARK                         _______ _______ _______ _____ _____    ______ ____
ROOT
ATOM      1  C   UNL     1      -2.641  -2.502   0.086  0.00  0.00    +0.058 A 
ATOM      2  C   UNL     1      -3.623  -1.640   0.421  0.00  0.00    +0.075 A 
ATOM      3  S   UNL     1      -2.755  -0.080   0.455  0.00  0.00    -0.059 S 
ATOM      4  C   UNL     1      -1.136  -0.687   0.009  0.00  0.00    +0.152 A 
ATOM      5  N   UNL     1      -0.008  -0.019  -0.144  0.00  0.00    -0.336 N 
ATOM      6  N   UNL     1      -1.373  -2.035  -0.126  0.00  0.00    -0.321 N 
ATOM      7  H   UNL     1       0.899  -0.542  -0.483  0.00  0.00    +0.168 HD
ENDROOT
BRANCH   1  11
ATOM      8  C   UNL     1      -3.483  -6.648  -0.306  0.00  0.00    +0.106 A 
ATOM      9  C   UNL     1      -2.321  -6.237   0.322  0.00  0.00    +0.029 A 
ATOM     10  C   UNL     1      -2.041  -4.893   0.453  0.00  0.00    +0.012 A 
ATOM     11  C   UNL     1      -2.934  -3.945  -0.051  0.00  0.00    -0.001 A 
ATOM     12  C   UNL     1      -4.108  -4.366  -0.679  0.00  0.00    +0.012 A 
ATOM     13  C   UNL     1      -4.372  -5.714  -0.808  0.00  0.00    +0.029 A 
BRANCH   8  14
ATOM     14  S   UNL     1      -3.833  -8.367  -0.469  0.00  0.00    +0.061 S 
ATOM     15  O   UNL     1      -4.714  -8.499  -1.576  0.00  0.00    -0.153 OA
ATOM     16  O   UNL     1      -2.584  -9.043  -0.403  0.00  0.00    -0.153 OA
BRANCH  14  17
ATOM     17  N   UNL     1      -4.688  -8.822   0.874  0.00  0.00    -0.177 NA
BRANCH  17  19
ATOM     18  C   UNL     1      -6.731 -10.109   0.488  0.00  0.00    +0.022 C 
ATOM     19  C   UNL     1      -6.151  -8.746   0.871  0.00  0.00    +0.106 C 
ENDBRANCH  17  19
BRANCH  17  20
ATOM     20  C   UNL     1      -3.982  -9.300   2.066  0.00  0.00    +0.106 C 
ATOM     21  C   UNL     1      -3.778  -8.137   3.038  0.00  0.00    +0.022 C 
ENDBRANCH  17  20
ENDBRANCH  14  17
ENDBRANCH   8  14
ENDBRANCH   1  11
BRANCH   5  22
ATOM     22  C   UNL     1       0.034   1.321   0.119  0.00  0.00    +0.041 A 
ATOM     23  C   UNL     1      -0.211   2.245  -0.901  0.00  0.00    +0.025 A 
ATOM     24  C   UNL     1      -0.173   3.596  -0.627  0.00  0.00    +0.002 A 
ATOM     25  C   UNL     1       0.118   4.038   0.652  0.00  0.00    +0.000 A 
ATOM     26  C   UNL     1       0.367   3.130   1.666  0.00  0.00    +0.002 A 
ATOM     27  C   UNL     1       0.327   1.775   1.408  0.00  0.00    +0.025 A 
ENDBRANCH   5  22
BRANCH   6  28
ATOM     28  C   UNL     1      -0.289  -2.951  -0.490  0.00  0.00    +0.122 C 
BRANCH  28  29
ATOM     29  C   UNL     1       0.649  -2.263  -1.483  0.00  0.00    +0.003 C 
BRANCH  29  30
ATOM     30  C   UNL     1       1.780  -3.221  -1.863  0.00  0.00    -0.078 C 
BRANCH  30  31
ATOM     31  N   UNL     1       2.681  -2.560  -2.817  0.00  0.00    +0.376 N 
ATOM     32  C   UNL     1       3.901  -3.352  -3.023  0.00  0.00    -0.097 C 
ATOM     33  C   UNL     1       1.999  -2.301  -4.092  0.00  0.00    -0.097 C 
ATOM     34  H   UNL     1       2.975  -1.591  -2.388  0.00  0.00    -0.083 HD
ENDBRANCH  30  31
ENDBRANCH  29  30
ENDBRANCH  28  29
ENDBRANCH   6  28
TORSDOF 10
