REMARK  Name = ZINC40637725
REMARK  5 active torsions:
REMARK  status: ('A' for Active; 'I' for Inactive)
REMARK    1  A    between atoms: C_1  and  C_2
REMARK    2  A    between atoms: C_5  and  C_8
REMARK    3  A    between atoms: C_11  and  C_14
REMARK    4  A    between atoms: C_17  and  O_21
REMARK    5  A    between atoms: O_21  and  C_22
REMARK                            x       y       z     vdW  Elec       q    Type
REMARK                         _______ _______ _______ _____ _____    ______ ____
ROOT
ATOM      1  C   UNL     1       0.059  -4.252  -0.021  0.00  0.00    +0.064 A 
ATOM      2  C   UNL     1       0.070  -5.060  -1.116  0.00  0.00    +0.110 A 
ATOM      3  N   UNL     1       0.088  -6.328  -0.690  0.00  0.00    -0.348 N 
ATOM      4  C   UNL     1       0.088  -6.351   0.616  0.00  0.00    +0.102 A 
ATOM      5  N   UNL     1       0.076  -5.081   1.077  0.00  0.00    -0.342 N 
ATOM      6  H   UNL     1       0.076  -4.806   2.007  0.00  0.00    +0.167 HD
ATOM      7  H   UNL     1       0.098  -7.111  -1.263  0.00  0.00    +0.166 HD
ENDROOT
BRANCH   1  12
ATOM      8  C   UNL     1      -0.018   1.503   0.010  0.00  0.00    +0.044 C 
ATOM      9  C   UNL     1       0.002  -0.004   0.002  0.00  0.00    -0.050 A 
ATOM     10  C   UNL     1       0.006  -0.686  -1.202  0.00  0.00    +0.004 A 
ATOM     11  C   UNL     1       0.024  -2.066  -1.216  0.00  0.00    +0.010 A 
ATOM     12  C   UNL     1       0.040  -2.773  -0.013  0.00  0.00    -0.000 A 
ATOM     13  C   UNL     1       0.036  -2.079   1.197  0.00  0.00    +0.010 A 
ATOM     14  C   UNL     1       0.023  -0.699   1.198  0.00  0.00    +0.004 A 
ENDBRANCH   1  12
BRANCH   4  15
ATOM     15  C   UNL     1       0.104  -7.592   1.469  0.00  0.00    +0.121 C 
ATOM     16  C   UNL     1       1.558  -8.011   1.759  0.00  0.00    +0.059 C 
ATOM     17  C   UNL     1       1.689  -9.439   1.182  0.00  0.00    +0.133 C 
ATOM     18  C   UNL     1       0.220  -9.930   1.135  0.00  0.00    +0.113 C 
ATOM     19  N   UNL     1      -0.538  -8.711   0.745  0.00  0.00    -0.304 NA
ATOM     20  H   UNL     1      -1.512  -8.791   0.994  0.00  0.00    +0.123 HD
BRANCH  17  21
ATOM     21  O   UNL     1       2.474 -10.263   2.046  0.00  0.00    -0.378 OA
ATOM     22  C   UNL     1       3.201 -11.290   1.368  0.00  0.00    +0.194 C 
ENDBRANCH  17  21
ENDBRANCH   4  15
TORSDOF 3
