REMARK  Name = ZINC12633122
REMARK  11 active torsions:
REMARK  status: ('A' for Active; 'I' for Inactive)
REMARK    1  A    between atoms: C_1  and  C_2
REMARK    2  A    between atoms: C_2  and  C_3
REMARK    3  A    between atoms: C_3  and  C_4
REMARK    4  A    between atoms: C_4  and  C_5
REMARK    5  A    between atoms: C_5  and  O_6
REMARK    6  A    between atoms: O_6  and  C_7
REMARK    7  A    between atoms: C_7  and  C_9
REMARK    8  A    between atoms: N_20  and  C_31
REMARK    9  A    between atoms: C_21  and  N_22
REMARK   10  A    between atoms: C_23  and  C_25
REMARK   11  A    between atoms: C_31  and  C_32
REMARK                            x       y       z     vdW  Elec       q    Type
REMARK                         _______ _______ _______ _____ _____    ______ ____
ROOT
ATOM      1  C   UNL     1       2.050  -1.917   0.983  0.00  0.00    +0.126 A 
ATOM      2  C   UNL     1       1.249  -0.905   0.275  0.00  0.00    +0.124 A 
ATOM      3  C   UNL     1       2.102  -0.429  -0.817  0.00  0.00    +0.162 A 
ATOM      4  N   UNL     1       1.649   0.496  -1.636  0.00  0.00    -0.226 NA
ATOM      5  C   UNL     1       0.417   0.992  -1.466  0.00  0.00    +0.092 A 
ATOM      6  C   UNL     1      -0.075   1.981  -2.337  0.00  0.00    +0.030 A 
ATOM      7  C   UNL     1      -1.328   2.480  -2.157  0.00  0.00    +0.002 A 
ATOM      8  C   UNL     1      -2.138   2.026  -1.117  0.00  0.00    +0.002 A 
ATOM      9  C   UNL     1      -1.699   1.067  -0.257  0.00  0.00    +0.030 A 
ATOM     10  C   UNL     1      -0.406   0.530  -0.408  0.00  0.00    +0.090 A 
ATOM     11  N   UNL     1       0.038  -0.410   0.434  0.00  0.00    -0.241 NA
ATOM     12  N   UNL     1       3.292  -1.121  -0.729  0.00  0.00    -0.308 N 
ATOM     13  C   UNL     1       3.269  -1.990   0.317  0.00  0.00    +0.124 A 
ENDROOT
BRANCH  13  14
ATOM     14  N   UNL     1       4.305  -2.824   0.667  0.00  0.00    -0.264 N 
ATOM     15  C   UNL     1       4.122  -4.159   0.673  0.00  0.00    +0.285 C 
ATOM     16  O   UNL     1       3.070  -4.631   0.283  0.00  0.00    -0.266 OA
ATOM     17  H   UNL     1       5.167  -2.451   0.910  0.00  0.00    +0.157 HD
BRANCH  15  18
ATOM     18  C   UNL     1       5.189  -5.042   1.149  0.00  0.00    +0.191 A 
ATOM     19  C   UNL     1       5.136  -6.407   1.208  0.00  0.00    +0.056 A 
ATOM     20  C   UNL     1       6.368  -6.836   1.722  0.00  0.00    +0.058 A 
ATOM     21  C   UNL     1       7.112  -5.729   1.952  0.00  0.00    +0.171 A 
ATOM     22  O   UNL     1       6.400  -4.651   1.600  0.00  0.00    -0.444 OA
ATOM     23 BR   UNL     1       8.870  -5.709   2.649  0.00  0.00    -0.008 Br
ENDBRANCH  15  18
ENDBRANCH  13  14
BRANCH   1  24
ATOM     24  C   UNL     1       1.657  -2.670   2.118  0.00  0.00    +0.345 C 
ATOM     25  O   UNL     1       1.234  -3.802   1.981  0.00  0.00    -0.245 OA
BRANCH  24  26
ATOM     26  O   UNL     1       1.753  -2.130   3.351  0.00  0.00    -0.461 OA
BRANCH  26  27
ATOM     27  C   UNL     1       1.340  -2.944   4.450  0.00  0.00    +0.232 C 
BRANCH  27  28
ATOM     28  C   UNL     1       1.520  -2.168   5.756  0.00  0.00    +0.041 C 
BRANCH  28  29
ATOM     29  C   UNL     1       1.077  -3.041   6.933  0.00  0.00    +0.003 C 
BRANCH  29  31
ATOM     30  C   UNL     1       0.814  -3.137   9.415  0.00  0.00    +0.004 C 
ATOM     31  C   UNL     1       1.257  -2.265   8.239  0.00  0.00    -0.003 C 
ENDBRANCH  29  31
ENDBRANCH  28  29
ENDBRANCH  27  28
ENDBRANCH  26  27
ENDBRANCH  24  26
ENDBRANCH   1  24
BRANCH  12  32
ATOM     32  C   UNL     1       4.427  -0.945  -1.639  0.00  0.00    +0.152 C 
BRANCH  32  33
ATOM     33  C   UNL     1       5.400   0.039  -1.042  0.00  0.00    -0.013 C 
ATOM     34  C   UNL     1       6.659  -0.293  -0.895  0.00  0.00    +0.005 C 
ENDBRANCH  32  33
ENDBRANCH  12  32
TORSDOF 10
