REMARK  Name = ZINC04087258
REMARK  6 active torsions:
REMARK  status: ('A' for Active; 'I' for Inactive)
REMARK    1  A    between atoms: C_1  and  C_2
REMARK    2  A    between atoms: C_2  and  C_3
REMARK    3  A    between atoms: C_2  and  N_50
REMARK    4  A    between atoms: C_9  and  N_14
REMARK    5  A    between atoms: C_10  and  C_11
REMARK    6  A    between atoms: C_15  and  C_17
REMARK                            x       y       z     vdW  Elec       q    Type
REMARK                         _______ _______ _______ _____ _____    ______ ____
ROOT
ATOM      1  C   UNL     1     -10.952   6.474   0.583  0.00  0.00    -0.073 C 
ATOM      2  C   UNL     1     -10.050   5.323   0.129  0.00  0.00    +0.018 C 
ATOM      3  C   UNL     1      -8.611   5.826   0.114  0.00  0.00    -0.027 A 
ATOM      4  C   UNL     1      -8.356   7.154   0.118  0.00  0.00    -0.021 A 
ATOM      5  S   UNL     1      -6.591   7.275   0.109  0.00  0.00    -0.079 S 
ATOM      6  C   UNL     1      -6.196   5.588   0.089  0.00  0.00    +0.085 A 
ATOM      7  C   UNL     1      -7.440   4.970   0.098  0.00  0.00    +0.068 A 
ATOM      8  C   UNL     1      -9.371   8.254   0.131  0.00  0.00    -0.035 C 
ATOM      9  N   UNL     1     -10.680   7.667  -0.245  0.00  0.00    +0.384 N 
ATOM     10  H   UNL     1     -10.649   7.388  -1.233  0.00  0.00    -0.081 HD
ENDROOT
BRANCH   7  11
ATOM     11  C   UNL     1      -7.565   3.509   0.092  0.00  0.00    +0.244 C 
ATOM     12  O   UNL     1      -7.606   2.897   1.143  0.00  0.00    -0.270 OA
ATOM     13  N   UNL     1      -7.634   2.844  -1.079  0.00  0.00    -0.325 N 
ATOM     14  H   UNL     1      -7.601   3.332  -1.916  0.00  0.00    +0.145 HD
ATOM     15  H   UNL     1      -7.716   1.877  -1.083  0.00  0.00    +0.145 HD
ENDBRANCH   7  11
BRANCH   6  16
ATOM     16  N   UNL     1      -4.943   4.998   0.075  0.00  0.00    -0.273 N 
ATOM     17  C   UNL     1      -3.836   5.768   0.068  0.00  0.00    +0.284 C 
ATOM     18  O   UNL     1      -3.938   6.979   0.075  0.00  0.00    -0.266 OA
ATOM     19  H   UNL     1      -4.862   4.032   0.069  0.00  0.00    +0.156 HD
BRANCH  17  20
ATOM     20  C   UNL     1      -2.496   5.137   0.053  0.00  0.00    +0.194 A 
ATOM     21  C   UNL     1      -1.401   5.935   0.046  0.00  0.00    +0.103 A 
ATOM     22  C   UNL     1      -0.070   5.311   0.031  0.00  0.00    +0.193 A 
ATOM     23  O   UNL     1       0.949   5.979   0.025  0.00  0.00    -0.287 OA
ATOM     24  C   UNL     1      -0.027   3.836   0.023  0.00  0.00    +0.064 A 
ATOM     25  C   UNL     1       1.184   3.146   0.008  0.00  0.00    +0.015 A 
ATOM     26  C   UNL     1       1.184   1.778   0.000  0.00  0.00    +0.001 A 
ATOM     27  C   UNL     1      -0.013   1.076   0.008  0.00  0.00    +0.004 A 
ATOM     28  C   UNL     1      -1.220   1.741   0.017  0.00  0.00    +0.047 A 
ATOM     29  C   UNL     1      -1.244   3.132   0.031  0.00  0.00    +0.139 A 
ATOM     30  O   UNL     1      -2.414   3.799   0.045  0.00  0.00    -0.450 OA
ENDBRANCH  17  20
ENDBRANCH   6  16
BRANCH   9  32
ATOM     31  C   UNL     1     -11.818   9.121   1.397  0.00  0.00    -0.014 C 
ATOM     32  C   UNL     1     -11.754   8.666  -0.062  0.00  0.00    -0.074 C 
ATOM     33  C   UNL     1     -11.470   9.873  -0.960  0.00  0.00    -0.014 C 
ENDBRANCH   9  32
TORSDOF 4
