REMARK  Name = ZINC09599743
REMARK  7 active torsions:
REMARK  status: ('A' for Active; 'I' for Inactive)
REMARK    1  A    between atoms: C_1  and  C_2
REMARK    2  A    between atoms: C_9  and  N_15
REMARK    3  A    between atoms: C_10  and  C_11
REMARK    4  A    between atoms: N_13  and  C_14
REMARK    5  A    between atoms: C_16  and  C_18
REMARK    6  A    between atoms: C_21  and  S_24
REMARK    7  A    between atoms: S_24  and  N_27
REMARK                            x       y       z     vdW  Elec       q    Type
REMARK                         _______ _______ _______ _____ _____    ______ ____
ROOT
ATOM      1  N   UNL     1      -3.683   3.182   0.054  0.00  0.00    -0.275 N 
ATOM      2  C   UNL     1      -2.523   3.868   0.046  0.00  0.00    +0.249 C 
ATOM      3  O   UNL     1      -2.535   5.083   0.053  0.00  0.00    -0.270 OA
ATOM      4  H   UNL     1      -3.673   2.212   0.049  0.00  0.00    +0.156 HD
ENDROOT
BRANCH   1  12
ATOM      5  C   UNL     1     -10.270   7.394   0.238  0.00  0.00    +0.008 C 
ATOM      6  C   UNL     1      -9.254   6.283   0.505  0.00  0.00    -0.009 C 
ATOM      7  C   UNL     1      -9.602   5.051  -0.336  0.00  0.00    +0.008 C 
ATOM      8  C   UNL     1      -8.748   3.861   0.105  0.00  0.00    +0.037 C 
ATOM      9  C   UNL     1      -7.283   4.278   0.094  0.00  0.00    -0.023 A 
ATOM     10  C   UNL     1      -6.931   5.582   0.098  0.00  0.00    -0.004 A 
ATOM     11  S   UNL     1      -5.161   5.574   0.087  0.00  0.00    -0.077 S 
ATOM     12  C   UNL     1      -4.890   3.862   0.069  0.00  0.00    +0.085 A 
ATOM     13  C   UNL     1      -6.175   3.338   0.078  0.00  0.00    +0.069 A 
ATOM     14  C   UNL     1      -7.849   6.766   0.115  0.00  0.00    +0.046 C 
BRANCH  13  15
ATOM     15  C   UNL     1      -6.406   1.891   0.072  0.00  0.00    +0.246 C 
ATOM     16  O   UNL     1      -6.492   1.284   1.123  0.00  0.00    -0.270 OA
ATOM     17  N   UNL     1      -6.524   1.232  -1.098  0.00  0.00    -0.314 N 
ATOM     18  C   UNL     1      -6.755  -0.214  -1.104  0.00  0.00    +0.128 C 
ATOM     19  H   UNL     1      -6.455   1.716  -1.936  0.00  0.00    +0.149 HD
ENDBRANCH  13  15
ENDBRANCH   1  12
BRANCH   2  20
ATOM     20  C   UNL     1      -1.235   3.142   0.031  0.00  0.00    +0.037 A 
ATOM     21  C   UNL     1      -1.218   1.746   0.018  0.00  0.00    +0.015 A 
ATOM     22  C   UNL     1      -0.013   1.075   0.008  0.00  0.00    +0.029 A 
ATOM     23  C   UNL     1       1.177   1.782   0.000  0.00  0.00    +0.109 A 
ATOM     24  C   UNL     1       1.166   3.165   0.008  0.00  0.00    +0.029 A 
ATOM     25  C   UNL     1      -0.032   3.849   0.023  0.00  0.00    +0.015 A 
BRANCH  23  26
ATOM     26  S   UNL     1       2.711   0.916  -0.018  0.00  0.00    +0.075 S 
ATOM     27  O   UNL     1       3.682   1.799   0.528  0.00  0.00    -0.150 OA
ATOM     28  O   UNL     1       2.459  -0.371   0.529  0.00  0.00    -0.150 OA
BRANCH  26  29
ATOM     29  N   UNL     1       3.123   0.683  -1.605  0.00  0.00    -0.203 N 
ATOM     30  C   UNL     1       2.786  -0.574  -2.287  0.00  0.00    +0.132 C 
ATOM     31  C   UNL     1       4.011  -1.021  -3.087  0.00  0.00    +0.025 C 
ATOM     32  C   UNL     1       4.318   0.028  -4.156  0.00  0.00    +0.038 C 
ATOM     33  C   UNL     1       4.390   1.401  -3.541  0.00  0.00    -0.025 A 
ATOM     34  C   UNL     1       3.802   1.679  -2.317  0.00  0.00    +0.054 A 
ATOM     35  C   UNL     1       3.884   2.959  -1.781  0.00  0.00    +0.025 A 
ATOM     36  C   UNL     1       4.552   3.954  -2.466  0.00  0.00    +0.002 A 
ATOM     37  C   UNL     1       5.140   3.675  -3.686  0.00  0.00    +0.000 A 
ATOM     38  C   UNL     1       5.060   2.404  -4.221  0.00  0.00    +0.005 A 
ENDBRANCH  26  29
ENDBRANCH  23  26
ENDBRANCH   2  20
TORSDOF 5
