REMARK  Name = ZINC40072104
REMARK  5 active torsions:
REMARK  status: ('A' for Active; 'I' for Inactive)
REMARK    1  A    between atoms: C_4  and  N_7
REMARK    2  A    between atoms: C_10  and  C_15
REMARK    3  A    between atoms: C_15  and  O_16
REMARK    4  A    between atoms: O_16  and  C_17
REMARK    5  A    between atoms: C_17  and  C_19
REMARK                            x       y       z     vdW  Elec       q    Type
REMARK                         _______ _______ _______ _____ _____    ______ ____
ROOT
ATOM      1  N   UNL     1       3.704  -0.589  -0.056  0.00  0.00    -0.284 N 
ATOM      2  C   UNL     1       3.703  -1.966   0.049  0.00  0.00    +0.224 A 
ATOM      3  N   UNL     1       4.854  -2.629   0.140  0.00  0.00    -0.196 NA
ATOM      4  C   UNL     1       4.854  -3.946   0.240  0.00  0.00    +0.173 A 
ATOM      5  N   UNL     1       3.713  -4.612   0.250  0.00  0.00    -0.196 NA
ATOM      6  C   UNL     1       2.558  -3.957   0.159  0.00  0.00    +0.217 A 
ATOM      7  N   UNL     1       2.553  -2.632   0.064  0.00  0.00    -0.181 NA
ATOM      8  N   UNL     1       1.366  -4.653   0.168  0.00  0.00    -0.327 N 
ATOM      9  H   UNL     1       4.543  -0.110  -0.147  0.00  0.00    +0.155 HD
ATOM     10  H   UNL     1       1.370  -5.620   0.241  0.00  0.00    +0.145 HD
ATOM     11  H   UNL     1       0.525  -4.175   0.102  0.00  0.00    +0.145 HD
ENDROOT
BRANCH   1  15
ATOM     12  C   UNL     1       0.106   1.508   0.023  0.00  0.00    +0.000 A 
ATOM     13  C   UNL     1       0.244   0.347   0.760  0.00  0.00    +0.002 A 
ATOM     14  C   UNL     1       1.435  -0.351   0.737  0.00  0.00    +0.023 A 
ATOM     15  C   UNL     1       2.496   0.115  -0.030  0.00  0.00    +0.034 A 
ATOM     16  C   UNL     1       2.354   1.282  -0.770  0.00  0.00    +0.023 A 
ATOM     17  C   UNL     1       1.160   1.975  -0.741  0.00  0.00    +0.002 A 
ENDBRANCH   1  15
BRANCH   4  18
ATOM     18  C   UNL     1       6.160  -4.692   0.343  0.00  0.00    +0.308 C 
BRANCH  18  19
ATOM     19  O   UNL     1       6.525  -4.826   1.718  0.00  0.00    -0.453 OA
BRANCH  19  20
ATOM     20  C   UNL     1       7.676  -5.474   1.985  0.00  0.00    +0.337 C 
ATOM     21  O   UNL     1       8.351  -5.912   1.076  0.00  0.00    -0.245 OA
BRANCH  20  22
ATOM     22  C   UNL     1       8.117  -5.650   3.383  0.00  0.00    +0.054 C 
ATOM     23  C   UNL     1       7.317  -5.275   4.443  0.00  0.00    +0.007 A 
ATOM     24  C   UNL     1       5.997  -4.687   4.220  0.00  0.00    +0.010 A 
ATOM     25  C   UNL     1       5.248  -4.335   5.294  0.00  0.00    +0.001 A 
ATOM     26  C   UNL     1       5.712  -4.522   6.602  0.00  0.00    +0.002 A 
ATOM     27  C   UNL     1       6.924  -5.061   6.879  0.00  0.00    +0.024 A 
ATOM     28  C   UNL     1       7.784  -5.463   5.834  0.00  0.00    +0.041 A 
ATOM     29  N   UNL     1       8.968  -5.987   6.112  0.00  0.00    -0.285 N 
ATOM     30  C   UNL     1       9.826  -6.386   5.180  0.00  0.00    +0.222 C 
ATOM     31  O   UNL     1      10.898  -6.859   5.503  0.00  0.00    -0.275 OA
ATOM     32  C   UNL     1       9.466  -6.256   3.717  0.00  0.00    +0.139 C 
ATOM     33  H   UNL     1       9.220  -6.086   7.043  0.00  0.00    +0.155 HD
ENDBRANCH  20  22
ENDBRANCH  19  20
ENDBRANCH  18  19
ENDBRANCH   4  18
TORSDOF 5
