REMARK  Name = ZINC62436377
REMARK  3 active torsions:
REMARK  status: ('A' for Active; 'I' for Inactive)
REMARK    1  A    between atoms: C_1  and  C_2
REMARK    2  A    between atoms: C_8  and  C_10
REMARK    3  A    between atoms: C_16  and  C_18
REMARK                            x       y       z     vdW  Elec       q    Type
REMARK                         _______ _______ _______ _____ _____    ______ ____
ROOT
ATOM      1  C   UNL     1       2.964  -3.818   1.252  0.00  0.00    +0.162 C 
ATOM      2  C   UNL     1       3.486  -2.571   1.997  0.00  0.00    +0.033 C 
ATOM      3  C   UNL     1       4.832  -3.061   2.593  0.00  0.00    +0.021 C 
ATOM      4  C   UNL     1       5.338  -4.012   1.479  0.00  0.00    +0.109 C 
ATOM      5  N   UNL     1       4.122  -4.679   0.970  0.00  0.00    -0.285 N 
ATOM      6  C   UNL     1       4.079  -5.875   0.351  0.00  0.00    +0.268 C 
ATOM      7  O   UNL     1       3.015  -6.327  -0.027  0.00  0.00    -0.268 OA
ENDROOT
BRANCH   6   8
ATOM      8  C   UNL     1       5.324  -6.638   0.131  0.00  0.00    +0.150 A 
ATOM      9  C   UNL     1       5.442  -7.888  -0.499  0.00  0.00    +0.005 A 
ATOM     10  C   UNL     1       6.763  -8.196  -0.471  0.00  0.00    +0.040 A 
ATOM     11  N   UNL     1       7.394  -7.182   0.142  0.00  0.00    -0.281 N 
ATOM     12  H   UNL     1       8.351  -7.136   0.298  0.00  0.00    +0.189 HD
ATOM     13  N   UNL     1       6.545  -6.275   0.485  0.00  0.00    -0.169 NA
ATOM     14  C   UNL     1       7.341  -9.466  -1.041  0.00  0.00    +0.055 C 
ATOM     15  C   UNL     1       6.198 -10.468  -1.246  0.00  0.00    +0.006 C 
ATOM     16  C   UNL     1       5.054  -9.795  -2.009  0.00  0.00    +0.005 C 
ATOM     17  C   UNL     1       4.375  -8.758  -1.104  0.00  0.00    +0.039 C 
ENDBRANCH   6   8
BRANCH   1  25
ATOM     18  C   UNL     1      -3.124  -3.655  -0.453  0.00  0.00    +0.007 C 
ATOM     19  C   UNL     1      -1.775  -2.970  -0.229  0.00  0.00    -0.011 C 
ATOM     20  C   UNL     1      -1.071  -3.609   0.970  0.00  0.00    +0.022 C 
ATOM     21  C   UNL     1       0.264  -2.898   1.213  0.00  0.00    +0.108 C 
ATOM     22  N   UNL     1       1.046  -2.924  -0.031  0.00  0.00    -0.300 N 
ATOM     23  C   UNL     1       0.430  -2.416  -1.264  0.00  0.00    +0.108 C 
ATOM     24  C   UNL     1      -0.907  -3.133  -1.479  0.00  0.00    +0.022 C 
ATOM     25  C   UNL     1       2.305  -3.405  -0.040  0.00  0.00    +0.236 C 
ATOM     26  O   UNL     1       2.909  -3.505  -1.087  0.00  0.00    -0.274 OA
ENDBRANCH   1  25
TORSDOF 2
