REMARK  Name = ZINC47914859
REMARK  8 active torsions:
REMARK  status: ('A' for Active; 'I' for Inactive)
REMARK    1  A    between atoms: C_1  and  O_2
REMARK    2  A    between atoms: O_2  and  C_3
REMARK    3  A    between atoms: C_8  and  C_9
REMARK    4  A    between atoms: C_9  and  C_11
REMARK    5  A    between atoms: C_9  and  N_22
REMARK    6  A    between atoms: C_11  and  N_12
REMARK    7  A    between atoms: N_15  and  C_16
REMARK    8  A    between atoms: C_16  and  C_17
REMARK                            x       y       z     vdW  Elec       q    Type
REMARK                         _______ _______ _______ _____ _____    ______ ____
ROOT
ATOM      1  C   UNL     1       0.020  -2.831  -0.010  0.00  0.00    -0.017 C 
ENDROOT
BRANCH   1   7
ATOM      2  C   UNL     1      -1.509  -0.861  -0.268  0.00  0.00    +0.122 A 
ATOM      3  C   UNL     1      -2.770  -0.317  -0.468  0.00  0.00    +0.046 A 
ATOM      4  C   UNL     1      -3.863  -1.149  -0.617  0.00  0.00    +0.004 A 
ATOM      5  C   UNL     1      -3.702  -2.521  -0.565  0.00  0.00    +0.000 A 
ATOM      6  C   UNL     1      -2.446  -3.065  -0.365  0.00  0.00    +0.005 A 
ATOM      7  C   UNL     1      -1.349  -2.238  -0.222  0.00  0.00    -0.018 A 
BRANCH   2   9
ATOM      8  C   UNL     1      -0.671   1.363  -0.180  0.00  0.00    +0.277 C 
ATOM      9  O   UNL     1      -0.432  -0.045  -0.122  0.00  0.00    -0.495 OA
ENDBRANCH   2   9
ENDBRANCH   1   7
BRANCH   1  10
ATOM     10  N   UNL     1      -0.114  -4.213   0.471  0.00  0.00    +0.385 N 
ATOM     11  C   UNL     1       1.227  -4.826   0.648  0.00  0.00    -0.078 C 
ATOM     12  C   UNL     1       0.960  -5.981   1.646  0.00  0.00    -0.020 C 
ATOM     13  C   UNL     1      -0.093  -5.375   2.603  0.00  0.00    -0.020 C 
ATOM     14  C   UNL     1      -0.745  -4.227   1.809  0.00  0.00    -0.078 C 
ATOM     15  H   UNL     1      -0.663  -4.756  -0.178  0.00  0.00    -0.081 HD
ENDBRANCH   1  10
BRANCH   1  16
ATOM     16  C   UNL     1       0.789  -2.824  -1.333  0.00  0.00    +0.095 C 
BRANCH  16  17
ATOM     17  N   UNL     1       0.120  -3.707  -2.292  0.00  0.00    -0.301 N 
ATOM     18  C   UNL     1       0.677  -3.940  -3.496  0.00  0.00    +0.300 C 
ATOM     19  O   UNL     1       1.736  -3.418  -3.787  0.00  0.00    -0.253 OA
ATOM     20  N   UNL     1       0.062  -4.753  -4.378  0.00  0.00    -0.295 N 
ATOM     21  H   UNL     1      -0.725  -4.124  -2.059  0.00  0.00    +0.150 HD
ATOM     22  H   UNL     1      -0.783  -5.169  -4.146  0.00  0.00    +0.151 HD
BRANCH  20  23
ATOM     23  C   UNL     1       0.668  -5.006  -5.687  0.00  0.00    +0.141 C 
BRANCH  23  24
ATOM     24  C   UNL     1      -0.213  -5.940  -6.477  0.00  0.00    -0.023 A 
ATOM     25  C   UNL     1      -0.041  -7.309  -6.388  0.00  0.00    +0.013 A 
ATOM     26  C   UNL     1      -0.851  -8.120  -7.111  0.00  0.00    +0.045 A 
ATOM     27  S   UNL     1      -1.897  -6.944  -7.953  0.00  0.00    -0.105 S 
ATOM     28  C   UNL     1      -1.189  -5.450  -7.279  0.00  0.00    +0.050 A 
ENDBRANCH  23  24
ENDBRANCH  20  23
ENDBRANCH  16  17
ENDBRANCH   1  16
TORSDOF 7
