REMARK  Name = ZINC45551423
REMARK  8 active torsions:
REMARK  status: ('A' for Active; 'I' for Inactive)
REMARK    1  A    between atoms: C_1  and  C_2
REMARK    2  A    between atoms: C_2  and  C_3
REMARK    3  A    between atoms: C_2  and  C_13
REMARK    4  A    between atoms: C_2  and  N_16
REMARK    5  A    between atoms: C_3  and  C_4
REMARK    6  A    between atoms: C_4  and  S_5
REMARK    7  A    between atoms: S_5  and  C_6
REMARK    8  A    between atoms: N_16  and  C_17
REMARK                            x       y       z     vdW  Elec       q    Type
REMARK                         _______ _______ _______ _____ _____    ______ ____
ROOT
ATOM      1  C   UNL     1      -0.019   1.526   0.010  0.00  0.00    -0.001 C 
ATOM      2  C   UNL     1       0.002  -0.004   0.002  0.00  0.00    +0.008 C 
ENDROOT
BRANCH   2   3
ATOM      3  C   UNL     1      -1.412  -0.526   0.013  0.00  0.00    +0.199 C 
ATOM      4  O   UNL     1      -2.306   0.155   0.469  0.00  0.00    -0.278 OA
ATOM      5  N   UNL     1      -1.683  -1.749  -0.485  0.00  0.00    -0.330 N 
ATOM      6  H   UNL     1      -0.968  -2.293  -0.849  0.00  0.00    +0.145 HD
ATOM      7  H   UNL     1      -2.593  -2.084  -0.478  0.00  0.00    +0.145 HD
ENDBRANCH   2   3
BRANCH   2   8
ATOM      8  N   UNL     1       0.690  -0.478  -1.207  0.00  0.00    +0.390 N 
ATOM      9  H   UNL     1       1.636  -0.129  -1.214  0.00  0.00    -0.084 HD
ATOM     10  H   UNL     1       0.703  -1.487  -1.212  0.00  0.00    -0.084 HD
BRANCH   8  11
ATOM     11  C   UNL     1      -0.021   0.009  -2.397  0.00  0.00    -0.071 C 
ATOM     12  C   UNL     1       0.728   0.968  -3.324  0.00  0.00    -0.017 C 
ATOM     13  C   UNL     1       0.473  -0.475  -3.761  0.00  0.00    -0.017 C 
ENDBRANCH   8  11
ENDBRANCH   2   8
BRANCH   2  14
ATOM     14  C   UNL     1       0.742  -0.511   1.242  0.00  0.00    +0.007 C 
BRANCH  14  15
ATOM     15  C   UNL     1       0.026  -0.018   2.500  0.00  0.00    +0.073 C 
BRANCH  15  16
ATOM     16  S   UNL     1       0.903  -0.618   3.970  0.00  0.00    -0.125 S 
BRANCH  16  17
ATOM     17  C   UNL     1      -0.032   0.025   5.317  0.00  0.00    +0.008 A 
ATOM     18  C   UNL     1      -1.163   0.795   5.075  0.00  0.00    +0.016 A 
ATOM     19  C   UNL     1      -1.894   1.298   6.133  0.00  0.00    +0.016 A 
ATOM     20  C   UNL     1      -1.501   1.036   7.434  0.00  0.00    +0.018 A 
ATOM     21  C   UNL     1      -0.375   0.270   7.679  0.00  0.00    +0.016 A 
ATOM     22  C   UNL     1       0.357  -0.240   6.625  0.00  0.00    +0.016 A 
ATOM     23 BR   UNL     1      -2.504   1.727   8.880  0.00  0.00    -0.050 Br
ENDBRANCH  16  17
ENDBRANCH  15  16
ENDBRANCH  14  15
ENDBRANCH   2  14
TORSDOF 7
