REMARK  Name = ZINC35692957
REMARK  6 active torsions:
REMARK  status: ('A' for Active; 'I' for Inactive)
REMARK    1  A    between atoms: C_1  and  C_2
REMARK    2  A    between atoms: C_2  and  C_4
REMARK    3  A    between atoms: C_2  and  N_10
REMARK    4  A    between atoms: N_10  and  S_11
REMARK    5  A    between atoms: S_11  and  C_14
REMARK    6  A    between atoms: C_17  and  N_21
REMARK                            x       y       z     vdW  Elec       q    Type
REMARK                         _______ _______ _______ _____ _____    ______ ____
ROOT
ATOM      1  S   UNL     1      -2.092  -0.923   1.446  0.00  0.00    +0.062 S 
ATOM      2  O   UNL     1      -3.411  -1.347   1.131  0.00  0.00    -0.153 OA
ATOM      3  O   UNL     1      -1.170  -1.752   2.140  0.00  0.00    -0.153 OA
ENDROOT
BRANCH   1   4
ATOM      4  C   UNL     1      -2.251   0.555   2.392  0.00  0.00    +0.142 A 
ATOM      5  C   UNL     1      -1.232   0.942   3.245  0.00  0.00    +0.070 A 
ATOM      6  C   UNL     1      -1.354   2.101   3.988  0.00  0.00    +0.044 A 
ATOM      7  C   UNL     1      -2.501   2.877   3.879  0.00  0.00    +0.027 A 
ATOM      8  C   UNL     1      -3.522   2.487   3.022  0.00  0.00    +0.044 A 
ATOM      9  C   UNL     1      -3.393   1.329   2.277  0.00  0.00    +0.070 A 
ATOM     10 CL   UNL     1      -4.665   0.844   1.201  0.00  0.00    -0.081 Cl
ATOM     11 CL   UNL     1       0.200  -0.028   3.381  0.00  0.00    -0.081 Cl
BRANCH   7  12
ATOM     12  N   UNL     1      -2.627   4.049   4.629  0.00  0.00    -0.358 N 
ATOM     13  H   UNL     1      -1.914   4.321   5.227  0.00  0.00    +0.142 HD
ATOM     14  H   UNL     1      -3.428   4.590   4.552  0.00  0.00    +0.142 HD
ENDBRANCH   7  12
ENDBRANCH   1   4
BRANCH   1  15
ATOM     15  N   UNL     1      -1.372  -0.511   0.012  0.00  0.00    -0.183 NA
ATOM     16  H   UNL     1      -1.861  -0.606  -0.820  0.00  0.00    +0.149 HD
BRANCH  15  18
ATOM     17  C   UNL     1      -0.019   1.526   0.010  0.00  0.00    +0.031 C 
ATOM     18  C   UNL     1       0.002  -0.004   0.002  0.00  0.00    +0.103 C 
BRANCH  18  19
ATOM     19  C   UNL     1       0.707  -0.490  -1.238  0.00  0.00    -0.026 A 
ATOM     20  C   UNL     1       0.051  -0.528  -2.459  0.00  0.00    +0.025 A 
ATOM     21  C   UNL     1       0.731  -0.980  -3.574  0.00  0.00    +0.111 A 
ATOM     22  N   UNL     1       1.987  -1.372  -3.487  0.00  0.00    -0.263 NA
ATOM     23  C   UNL     1       2.642  -1.349  -2.342  0.00  0.00    +0.111 A 
ATOM     24  C   UNL     1       2.030  -0.904  -1.186  0.00  0.00    +0.025 A 
ENDBRANCH  18  19
ENDBRANCH  15  18
ENDBRANCH   1  15
TORSDOF 5
