REMARK  Name = ZINC54044523
REMARK  10 active torsions:
REMARK  status: ('A' for Active; 'I' for Inactive)
REMARK    1  A    between atoms: C_1  and  C_2
REMARK    2  A    between atoms: C_4  and  C_30
REMARK    3  A    between atoms: C_5  and  N_9
REMARK    4  A    between atoms: C_6  and  C_8
REMARK    5  A    between atoms: C_10  and  C_12
REMARK    6  A    between atoms: C_12  and  N_13
REMARK    7  A    between atoms: N_16  and  C_17
REMARK    8  A    between atoms: C_17  and  C_18
REMARK    9  A    between atoms: C_18  and  C_20
REMARK   10  A    between atoms: C_18  and  N_25
REMARK                            x       y       z     vdW  Elec       q    Type
REMARK                         _______ _______ _______ _____ _____    ______ ____
ROOT
ATOM      1  N   UNL     1       0.726  -7.113   2.201  0.00  0.00    -0.291 N 
ATOM      2  C   UNL     1       0.997  -8.425   2.346  0.00  0.00    +0.300 C 
ATOM      3  O   UNL     1       0.789  -9.193   1.427  0.00  0.00    -0.253 OA
ATOM      4  N   UNL     1       1.499  -8.885   3.509  0.00  0.00    -0.301 N 
ATOM      5  H   UNL     1       0.892  -6.500   2.934  0.00  0.00    +0.151 HD
ATOM      6  H   UNL     1       1.665  -8.272   4.242  0.00  0.00    +0.150 HD
ENDROOT
BRANCH   1   7
ATOM      7  C   UNL     1       0.181  -6.612   0.937  0.00  0.00    +0.202 C 
BRANCH   7   9
ATOM      8  N   UNL     1      -0.529  -4.442  -0.016  0.00  0.00    -0.284 N 
ATOM      9  C   UNL     1      -0.031  -5.123   1.036  0.00  0.00    +0.234 C 
ATOM     10  O   UNL     1       0.246  -4.538   2.061  0.00  0.00    -0.274 OA
ATOM     11  H   UNL     1      -0.824  -4.920  -0.807  0.00  0.00    +0.155 HD
BRANCH   8  16
ATOM     12  C   UNL     1      -0.898   1.215   0.185  0.00  0.00    +0.044 C 
ATOM     13  C   UNL     1      -0.800  -0.288   0.132  0.00  0.00    -0.050 A 
ATOM     14  C   UNL     1      -0.088  -0.897  -0.885  0.00  0.00    +0.008 A 
ATOM     15  C   UNL     1       0.003  -2.274  -0.937  0.00  0.00    -0.029 A 
ATOM     16  C   UNL     1      -0.619  -3.047   0.034  0.00  0.00    +0.039 A 
ATOM     17  C   UNL     1      -1.333  -2.432   1.055  0.00  0.00    -0.029 A 
ATOM     18  C   UNL     1      -1.416  -1.054   1.104  0.00  0.00    +0.008 A 
ATOM     19  C   UNL     1      -2.010  -3.267   2.111  0.00  0.00    +0.045 C 
ATOM     20  C   UNL     1       0.778  -2.937  -2.047  0.00  0.00    +0.045 C 
ENDBRANCH   8  16
ENDBRANCH   7   9
ENDBRANCH   1   7
BRANCH   4  21
ATOM     21  C   UNL     1       1.794 -10.312   3.666  0.00  0.00    +0.095 C 
BRANCH  21  22
ATOM     22  C   UNL     1       2.459 -10.549   5.023  0.00  0.00    -0.013 C 
BRANCH  22  23
ATOM     23  N   UNL     1       2.846 -11.961   5.139  0.00  0.00    +0.386 N 
ATOM     24  C   UNL     1       3.399 -12.216   6.486  0.00  0.00    -0.078 C 
ATOM     25  C   UNL     1       4.531 -13.249   6.260  0.00  0.00    -0.020 C 
ATOM     26  C   UNL     1       5.125 -12.772   4.908  0.00  0.00    -0.020 C 
ATOM     27  C   UNL     1       3.882 -12.276   4.138  0.00  0.00    -0.078 C 
ATOM     28  H   UNL     1       2.039 -12.548   4.988  0.00  0.00    -0.081 HD
ENDBRANCH  22  23
BRANCH  22  29
ATOM     29  C   UNL     1       1.492 -10.200   6.125  0.00  0.00    -0.022 A 
ATOM     30  C   UNL     1       1.416  -9.069   6.868  0.00  0.00    +0.009 A 
ATOM     31  C   UNL     1       0.434  -8.968   7.835  0.00  0.00    +0.008 A 
ATOM     32  C   UNL     1      -0.424 -10.002   8.012  0.00  0.00    +0.045 A 
ATOM     33  S   UNL     1       0.143 -11.166   6.783  0.00  0.00    -0.103 S 
ENDBRANCH  22  29
ENDBRANCH  21  22
ENDBRANCH   4  21
TORSDOF 7
