REMARK  Name = ZINC45551587
REMARK  9 active torsions:
REMARK  status: ('A' for Active; 'I' for Inactive)
REMARK    1  A    between atoms: C_1  and  C_2
REMARK    2  A    between atoms: C_2  and  C_3
REMARK    3  A    between atoms: C_3  and  N_4
REMARK    4  A    between atoms: N_4  and  C_5
REMARK    5  A    between atoms: C_5  and  C_6
REMARK    6  A    between atoms: C_5  and  C_7
REMARK    7  A    between atoms: C_5  and  C_16
REMARK    8  A    between atoms: C_7  and  S_8
REMARK    9  A    between atoms: S_8  and  C_9
REMARK                            x       y       z     vdW  Elec       q    Type
REMARK                         _______ _______ _______ _____ _____    ______ ____
ROOT
ATOM      1  C   UNL     1       1.426  -2.440  -2.474  0.00  0.00    +0.016 C 
ATOM      2  C   UNL     1       0.686  -1.933  -3.713  0.00  0.00    +0.000 C 
ENDROOT
BRANCH   1   3
ATOM      3  C   UNL     1       2.840  -1.919  -2.484  0.00  0.00    +0.200 C 
ATOM      4  O   UNL     1       3.367  -1.617  -3.534  0.00  0.00    -0.278 OA
ATOM      5  N   UNL     1       3.518  -1.787  -1.327  0.00  0.00    -0.330 N 
ATOM      6  H   UNL     1       3.096  -2.028  -0.487  0.00  0.00    +0.145 HD
ATOM      7  H   UNL     1       4.428  -1.451  -1.334  0.00  0.00    +0.145 HD
ENDBRANCH   1   3
BRANCH   1   8
ATOM      8  N   UNL     1       0.738  -1.966  -1.265  0.00  0.00    +0.389 N 
ATOM      9  H   UNL     1       1.226  -2.301  -0.447  0.00  0.00    -0.084 HD
ATOM     10  H   UNL     1      -0.208  -2.316  -1.258  0.00  0.00    -0.084 HD
BRANCH   8  11
ATOM     11  C   UNL     1       0.718  -0.497  -1.257  0.00  0.00    -0.081 C 
BRANCH  11  13
ATOM     12  C   UNL     1      -0.019   1.526   0.010  0.00  0.00    +0.002 C 
ATOM     13  C   UNL     1       0.002  -0.004   0.002  0.00  0.00    -0.022 C 
ENDBRANCH  11  13
ENDBRANCH   8  11
ENDBRANCH   1   8
BRANCH   1  14
ATOM     14  C   UNL     1       1.446  -3.970  -2.482  0.00  0.00    +0.071 C 
BRANCH  14  15
ATOM     15  S   UNL     1      -0.250  -4.597  -2.618  0.00  0.00    -0.126 S 
BRANCH  15  16
ATOM     16  C   UNL     1      -0.059  -6.348  -2.615  0.00  0.00    +0.008 A 
ATOM     17  C   UNL     1       1.208  -6.910  -2.514  0.00  0.00    +0.016 A 
ATOM     18  C   UNL     1       1.355  -8.283  -2.511  0.00  0.00    +0.016 A 
ATOM     19  C   UNL     1       0.241  -9.100  -2.608  0.00  0.00    +0.018 A 
ATOM     20  C   UNL     1      -1.022  -8.543  -2.709  0.00  0.00    +0.016 A 
ATOM     21  C   UNL     1      -1.175  -7.171  -2.707  0.00  0.00    +0.016 A 
ATOM     22 BR   UNL     1       0.447 -10.979  -2.605  0.00  0.00    -0.050 Br
ENDBRANCH  15  16
ENDBRANCH  14  15
ENDBRANCH   1  14
TORSDOF 7
