REMARK  Name = ZINC48160713
REMARK  11 active torsions:
REMARK  status: ('A' for Active; 'I' for Inactive)
REMARK    1  A    between atoms: C_1  and  C_2
REMARK    2  A    between atoms: C_5  and  C_30
REMARK    3  A    between atoms: N_8  and  C_10
REMARK    4  A    between atoms: C_10  and  C_11
REMARK    5  A    between atoms: C_11  and  C_12
REMARK    6  A    between atoms: C_12  and  C_13
REMARK    7  A    between atoms: C_13  and  N_14
REMARK    8  A    between atoms: N_17  and  C_18
REMARK    9  A    between atoms: C_21  and  C_24
REMARK   10  A    between atoms: N_26  and  C_27
REMARK   11  A    between atoms: C_27  and  C_28
REMARK                            x       y       z     vdW  Elec       q    Type
REMARK                         _______ _______ _______ _____ _____    ______ ____
ROOT
ATOM      1  N   UNL     1       6.032  -2.572   4.439  0.00  0.00    -0.299 N 
ATOM      2  C   UNL     1       7.352  -2.314   4.517  0.00  0.00    +0.304 C 
ATOM      3  O   UNL     1       7.902  -1.685   3.634  0.00  0.00    -0.253 OA
ATOM      4  N   UNL     1       8.063  -2.753   5.575  0.00  0.00    -0.269 N 
ATOM      5  H   UNL     1       5.593  -3.074   5.143  0.00  0.00    +0.150 HD
ATOM      6  H   UNL     1       7.613  -3.197   6.311  0.00  0.00    +0.156 HD
ENDROOT
BRANCH   4   7
ATOM      7  C   UNL     1       9.445  -2.570   5.610  0.00  0.00    +0.035 A 
ATOM      8  C   UNL     1      10.007  -1.419   5.069  0.00  0.00    +0.024 A 
ATOM      9  C   UNL     1      11.371  -1.235   5.102  0.00  0.00    +0.015 A 
ATOM     10  C   UNL     1      12.191  -2.207   5.682  0.00  0.00    +0.037 A 
ATOM     11  C   UNL     1      11.623  -3.362   6.225  0.00  0.00    +0.015 A 
ATOM     12  C   UNL     1      10.258  -3.537   6.193  0.00  0.00    +0.024 A 
BRANCH  10  13
ATOM     13  C   UNL     1      13.654  -2.013   5.719  0.00  0.00    +0.244 C 
ATOM     14  O   UNL     1      14.146  -1.008   5.245  0.00  0.00    -0.270 OA
ATOM     15  N   UNL     1      14.443  -2.952   6.278  0.00  0.00    -0.308 N 
ATOM     16  H   UNL     1      14.050  -3.754   6.656  0.00  0.00    +0.149 HD
BRANCH  15  17
ATOM     17  C   UNL     1      15.895  -2.760   6.316  0.00  0.00    +0.131 C 
BRANCH  17  18
ATOM     18  C   UNL     1      16.541  -3.943   6.988  0.00  0.00    -0.016 C 
ATOM     19  C   UNL     1      17.485  -4.612   6.373  0.00  0.00    +0.005 C 
ENDBRANCH  17  18
ENDBRANCH  15  17
ENDBRANCH  10  13
ENDBRANCH   4   7
BRANCH   1  20
ATOM     20  C   UNL     1       5.259  -2.094   3.289  0.00  0.00    +0.105 C 
BRANCH  20  21
ATOM     21  C   UNL     1       3.797  -2.518   3.446  0.00  0.00    +0.017 C 
BRANCH  21  22
ATOM     22  C   UNL     1       2.990  -2.019   2.245  0.00  0.00    -0.017 C 
BRANCH  22  23
ATOM     23  C   UNL     1       1.529  -2.443   2.401  0.00  0.00    -0.079 C 
BRANCH  23  29
ATOM     24  C   UNL     1      -0.006   1.538   0.002  0.00  0.00    +0.005 C 
ATOM     25  C   UNL     1       0.006   0.008   0.002  0.00  0.00    -0.031 C 
ATOM     26  C   UNL     1      -1.433  -0.515   0.021  0.00  0.00    +0.003 C 
ATOM     27  C   UNL     1      -1.409  -2.044   0.101  0.00  0.00    -0.031 C 
ATOM     28  C   UNL     1      -0.620  -2.473   1.339  0.00  0.00    -0.076 C 
ATOM     29  N   UNL     1       0.754  -1.964   1.249  0.00  0.00    +0.380 N 
ATOM     30  C   UNL     1       0.744  -0.497   1.244  0.00  0.00    -0.076 C 
ATOM     31  C   UNL     1      -2.841  -2.573   0.198  0.00  0.00    +0.005 C 
ATOM     32  H   UNL     1       1.180  -2.299   0.398  0.00  0.00    -0.082 HD
ENDBRANCH  23  29
ENDBRANCH  22  23
ENDBRANCH  21  22
ENDBRANCH  20  21
ENDBRANCH   1  20
TORSDOF 9
