REMARK  Name = ZINC08580193
REMARK  5 active torsions:
REMARK  status: ('A' for Active; 'I' for Inactive)
REMARK    1  A    between atoms: C_1  and  C_2
REMARK    2  A    between atoms: C_2  and  C_3
REMARK    3  A    between atoms: C_2  and  C_4
REMARK    4  A    between atoms: C_2  and  C_5
REMARK    5  A    between atoms: C_8  and  C_11
REMARK                            x       y       z     vdW  Elec       q    Type
REMARK                         _______ _______ _______ _____ _____    ______ ____
ROOT
ATOM      1  C   UNL     1      -0.079  -2.260  -0.171  0.00  0.00    +0.250 C 
ATOM      2  O   UNL     1       1.112  -2.505  -0.162  0.00  0.00    -0.270 OA
ATOM      3  N   UNL     1      -0.503  -0.981  -0.150  0.00  0.00    -0.254 N 
ATOM      4  C   UNL     1       0.407   0.046  -0.003  0.00  0.00    +0.174 C 
ATOM      5  N   UNL     1       1.758  -0.227   0.015  0.00  0.00    -0.283 N 
ATOM      6  C   UNL     1       2.672   0.807   0.050  0.00  0.00    +0.304 A 
ATOM      7  N   UNL     1       2.364   2.078   0.062  0.00  0.00    -0.193 NA
ATOM      8  C   UNL     1       3.514   2.805   0.100  0.00  0.00    +0.111 A 
ATOM      9  C   UNL     1       3.789   4.173   0.129  0.00  0.00    +0.031 A 
ATOM     10  C   UNL     1       5.096   4.607   0.158  0.00  0.00    +0.002 A 
ATOM     11  C   UNL     1       6.138   3.693   0.160  0.00  0.00    +0.004 A 
ATOM     12  C   UNL     1       5.881   2.338   0.131  0.00  0.00    +0.048 A 
ATOM     13  C   UNL     1       4.572   1.884   0.101  0.00  0.00    +0.157 A 
ATOM     14  O   UNL     1       4.007   0.655   0.069  0.00  0.00    -0.423 OA
ATOM     15  H   UNL     1      -1.448  -0.782  -0.238  0.00  0.00    +0.158 HD
ATOM     16  H   UNL     1      -0.940   1.560   0.187  0.00  0.00    +0.158 HD
ATOM     17  H   UNL     1       2.067  -1.147   0.007  0.00  0.00    +0.173 HD
ATOM     18  N   UNL     1       0.048   1.314   0.120  0.00  0.00    -0.373 N 
ATOM     19  H   UNL     1       0.763   2.050   0.147  0.00  0.00    +0.158 HD
ENDROOT
BRANCH   1  23
ATOM     20  C   UNL     1      -2.900  -5.433  -0.272  0.00  0.00    -0.042 A 
ATOM     21  C   UNL     1      -1.546  -5.716  -0.261  0.00  0.00    +0.005 A 
ATOM     22  C   UNL     1      -0.624  -4.690  -0.228  0.00  0.00    +0.013 A 
ATOM     23  C   UNL     1      -1.060  -3.364  -0.206  0.00  0.00    +0.037 A 
ATOM     24  C   UNL     1      -2.428  -3.086  -0.211  0.00  0.00    +0.013 A 
ATOM     25  C   UNL     1      -3.339  -4.121  -0.251  0.00  0.00    +0.005 A 
BRANCH  20  27
ATOM     26  C   UNL     1      -3.716  -7.445   0.926  0.00  0.00    +0.015 C 
ATOM     27  C   UNL     1      -3.901  -6.559  -0.308  0.00  0.00    -0.013 C 
ATOM     28  C   UNL     1      -5.318  -5.981  -0.313  0.00  0.00    +0.015 C 
ATOM     29  C   UNL     1      -3.685  -7.393  -1.572  0.00  0.00    +0.015 C 
ENDBRANCH  20  27
ENDBRANCH   1  23
TORSDOF 2
