REMARK  Name = ZINC11065539
REMARK  13 active torsions:
REMARK  status: ('A' for Active; 'I' for Inactive)
REMARK    1  A    between atoms: C_1  and  C_2
REMARK    2  A    between atoms: C_2  and  C_4
REMARK    3  A    between atoms: C_2  and  N_62
REMARK    4  A    between atoms: N_6  and  C_7
REMARK    5  A    between atoms: C_11  and  S_13
REMARK    6  A    between atoms: S_13  and  N_16
REMARK    7  A    between atoms: C_19  and  C_22
REMARK    8  A    between atoms: C_23  and  O_32
REMARK    9  A    between atoms: C_25  and  O_30
REMARK   10  A    between atoms: C_27  and  O_28
REMARK   11  A    between atoms: O_28  and  C_29
REMARK   12  A    between atoms: O_30  and  C_31
REMARK   13  A    between atoms: O_32  and  C_33
REMARK                            x       y       z     vdW  Elec       q    Type
REMARK                         _______ _______ _______ _____ _____    ______ ____
ROOT
ATOM      1  C   UNL     1       1.034  -0.346   0.336  0.00  0.00    -0.073 C 
ATOM      2  C   UNL     1       2.333   0.022  -0.386  0.00  0.00    +0.017 C 
ATOM      3  C   UNL     1       2.263   1.448  -0.859  0.00  0.00    -0.041 C 
ATOM      4  C   UNL     1       1.131   2.113  -0.944  0.00  0.00    -0.041 C 
ATOM      5  C   UNL     1      -0.197   1.520  -0.570  0.00  0.00    -0.050 C 
ATOM      6  N   UNL     1      -0.093   0.050  -0.532  0.00  0.00    +0.390 N 
ATOM      7  H   UNL     1       0.076  -0.299  -1.483  0.00  0.00    -0.080 HD
ENDROOT
BRANCH   3   8
ATOM      8  C   UNL     1       3.515   2.128  -1.245  0.00  0.00    +0.061 A 
ATOM      9  C   UNL     1       3.972   2.062  -2.567  0.00  0.00    +0.134 A 
ATOM     10  C   UNL     1       5.144   2.706  -2.923  0.00  0.00    +0.092 A 
ATOM     11  C   UNL     1       5.871   3.408  -1.972  0.00  0.00    +0.127 A 
ATOM     12  C   UNL     1       5.426   3.473  -0.658  0.00  0.00    +0.092 A 
ATOM     13  C   UNL     1       4.253   2.837  -0.290  0.00  0.00    +0.134 A 
BRANCH  13  14
ATOM     14  O   UNL     1       3.820   2.901   0.996  0.00  0.00    -0.494 OA
ATOM     15  C   UNL     1       4.624   3.642   1.916  0.00  0.00    +0.277 C 
ENDBRANCH  13  14
BRANCH  11  16
ATOM     16  O   UNL     1       7.023   4.034  -2.327  0.00  0.00    -0.495 OA
ATOM     17  C   UNL     1       7.425   3.927  -3.694  0.00  0.00    +0.277 C 
ENDBRANCH  11  16
BRANCH   9  18
ATOM     18  O   UNL     1       3.265   1.371  -3.498  0.00  0.00    -0.494 OA
ATOM     19  C   UNL     1       3.792   1.347  -4.827  0.00  0.00    +0.277 C 
ENDBRANCH   9  18
ENDBRANCH   3   8
BRANCH   6  21
ATOM     20  C   UNL     1      -1.490  -0.279   1.479  0.00  0.00    -0.004 C 
ATOM     21  C   UNL     1      -1.355  -0.534  -0.024  0.00  0.00    +0.017 C 
BRANCH  21  22
ATOM     22  C   UNL     1      -1.345  -2.019  -0.282  0.00  0.00    +0.203 C 
ATOM     23  O   UNL     1      -0.317  -2.570  -0.614  0.00  0.00    -0.277 OA
ATOM     24  N   UNL     1      -2.479  -2.735  -0.144  0.00  0.00    -0.287 N 
ATOM     25  H   UNL     1      -3.317  -2.284   0.048  0.00  0.00    +0.155 HD
BRANCH  24  26
ATOM     26  C   UNL     1      -2.448  -4.127  -0.278  0.00  0.00    +0.035 A 
ATOM     27  C   UNL     1      -1.327  -4.840   0.126  0.00  0.00    +0.023 A 
ATOM     28  C   UNL     1      -1.299  -6.214  -0.007  0.00  0.00    +0.004 A 
ATOM     29  C   UNL     1      -2.386  -6.881  -0.543  0.00  0.00    +0.028 A 
ATOM     30  C   UNL     1      -3.504  -6.173  -0.946  0.00  0.00    +0.107 A 
ATOM     31  C   UNL     1      -3.540  -4.799  -0.810  0.00  0.00    +0.051 A 
BRANCH  30  32
ATOM     32  S   UNL     1      -4.887  -7.027  -1.628  0.00  0.00    +0.056 S 
ATOM     33  O   UNL     1      -5.588  -6.088  -2.431  0.00  0.00    -0.153 OA
ATOM     34  O   UNL     1      -4.391  -8.253  -2.147  0.00  0.00    -0.153 OA
BRANCH  32  35
ATOM     35  N   UNL     1      -5.890  -7.417  -0.369  0.00  0.00    -0.204 NA
ATOM     36  H   UNL     1      -5.652  -7.166   0.537  0.00  0.00    +0.144 HD
ATOM     37  H   UNL     1      -6.717  -7.896  -0.538  0.00  0.00    +0.144 HD
ENDBRANCH  32  35
ENDBRANCH  30  32
ENDBRANCH  24  26
ENDBRANCH  21  22
ENDBRANCH   6  21
TORSDOF 9
