REMARK  Name = ZINC43675327
REMARK  11 active torsions:
REMARK  status: ('A' for Active; 'I' for Inactive)
REMARK    1  A    between atoms: C_1  and  C_2
REMARK    2  A    between atoms: C_2  and  C_3
REMARK    3  A    between atoms: C_2  and  C_4
REMARK    4  A    between atoms: N_6  and  C_7
REMARK    5  A    between atoms: C_10  and  N_13
REMARK    6  A    between atoms: N_16  and  C_17
REMARK    7  A    between atoms: C_17  and  C_18
REMARK    8  A    between atoms: C_18  and  C_20
REMARK    9  A    between atoms: C_18  and  N_25
REMARK   10  A    between atoms: N_25  and  C_26
REMARK   11  A    between atoms: N_25  and  C_27
REMARK                            x       y       z     vdW  Elec       q    Type
REMARK                         _______ _______ _______ _____ _____    ______ ____
ROOT
ATOM      1  N   UNL     1       4.193  -1.876  -6.300  0.00  0.00    -0.269 N 
ATOM      2  C   UNL     1       5.516  -1.730  -6.516  0.00  0.00    +0.304 C 
ATOM      3  O   UNL     1       6.199  -1.123  -5.714  0.00  0.00    -0.253 OA
ATOM      4  N   UNL     1       6.080  -2.257  -7.620  0.00  0.00    -0.300 N 
ATOM      5  H   UNL     1       3.637  -2.307  -6.968  0.00  0.00    +0.156 HD
ATOM      6  H   UNL     1       5.535  -2.741  -8.260  0.00  0.00    +0.150 HD
ENDROOT
BRANCH   1  10
ATOM      7  C   UNL     1       2.491  -0.474  -2.761  0.00  0.00    +0.034 A 
ATOM      8  C   UNL     1       2.009  -1.635  -3.351  0.00  0.00    +0.025 A 
ATOM      9  C   UNL     1       2.572  -2.099  -4.522  0.00  0.00    +0.025 A 
ATOM     10  C   UNL     1       3.621  -1.405  -5.111  0.00  0.00    +0.035 A 
ATOM     11  C   UNL     1       4.103  -0.244  -4.521  0.00  0.00    +0.025 A 
ATOM     12  C   UNL     1       3.535   0.224  -3.353  0.00  0.00    +0.025 A 
BRANCH   7  15
ATOM     13  C   UNL     1       1.806   1.323  -1.357  0.00  0.00    +0.220 C 
ATOM     14  O   UNL     1       2.265   2.108  -2.159  0.00  0.00    -0.275 OA
ATOM     15  N   UNL     1       1.919  -0.003  -1.572  0.00  0.00    -0.285 N 
ATOM     16  H   UNL     1       1.606  -0.631  -0.902  0.00  0.00    +0.155 HD
BRANCH  13  18
ATOM     17  C   UNL     1       1.834   1.314   1.122  0.00  0.00    +0.017 C 
ATOM     18  C   UNL     1       1.107   1.829  -0.122  0.00  0.00    +0.069 C 
ATOM     19  C   UNL     1       1.116   3.359  -0.121  0.00  0.00    +0.017 C 
ENDBRANCH  13  18
ENDBRANCH   7  15
ENDBRANCH   1  10
BRANCH   4  20
ATOM     20  C   UNL     1       7.518  -2.099  -7.855  0.00  0.00    +0.095 C 
BRANCH  20  21
ATOM     21  C   UNL     1       7.878  -2.677  -9.225  0.00  0.00    -0.020 C 
BRANCH  21  22
ATOM     22  C   UNL     1       7.562  -4.150  -9.247  0.00  0.00    -0.052 A 
ATOM     23  C   UNL     1       6.402  -4.610  -9.842  0.00  0.00    +0.009 A 
ATOM     24  C   UNL     1       6.148  -5.942  -9.845  0.00  0.00    +0.045 A 
ATOM     25  S   UNL     1       7.574  -6.591  -8.988  0.00  0.00    -0.105 S 
ATOM     26  C   UNL     1       8.414  -5.045  -8.689  0.00  0.00    +0.047 A 
ENDBRANCH  21  22
BRANCH  21  27
ATOM     27  N   UNL     1       9.311  -2.479  -9.479  0.00  0.00    +0.382 N 
ATOM     28  C   UNL     1       9.635  -2.933 -10.838  0.00  0.00    -0.096 C 
ATOM     29  C   UNL     1       9.639  -1.053  -9.347  0.00  0.00    -0.096 C 
ATOM     30  H   UNL     1       9.847  -3.011  -8.809  0.00  0.00    -0.082 HD
ENDBRANCH  21  27
ENDBRANCH  20  21
ENDBRANCH   4  20
TORSDOF 7
