REMARK  Name = ZINC24716739
REMARK  14 active torsions:
REMARK  status: ('A' for Active; 'I' for Inactive)
REMARK    1  A    between atoms: C_1  and  C_2
REMARK    2  A    between atoms: C_2  and  O_3
REMARK    3  A    between atoms: O_3  and  C_4
REMARK    4  A    between atoms: C_7  and  N_13
REMARK    5  A    between atoms: C_9  and  O_10
REMARK    6  A    between atoms: O_10  and  C_11
REMARK    7  A    between atoms: C_11  and  C_12
REMARK    8  A    between atoms: C_14  and  C_16
REMARK    9  A    between atoms: C_16  and  N_17
REMARK   10  A    between atoms: N_17  and  C_18
REMARK   11  A    between atoms: N_17  and  C_19
REMARK   12  A    between atoms: C_19  and  C_21
REMARK   13  A    between atoms: C_19  and  C_22
REMARK   14  A    between atoms: N_28  and  C_29
REMARK                            x       y       z     vdW  Elec       q    Type
REMARK                         _______ _______ _______ _____ _____    ______ ____
ROOT
ATOM      1  N   UNL     1       5.482  -1.762   6.076  0.00  0.00    +0.390 N 
ATOM      2  C   UNL     1       4.478  -2.702   6.592  0.00  0.00    -0.095 C 
ATOM      3  H   UNL     1       5.370  -0.814   6.623  0.00  0.00    -0.081 HD
ENDROOT
BRANCH   1   4
ATOM      4  C   UNL     1       6.843  -2.262   6.313  0.00  0.00    -0.002 C 
ATOM      5  C   UNL     1       7.858  -1.215   5.853  0.00  0.00    -0.005 C 
BRANCH   4   6
ATOM      6  C   UNL     1       7.030  -2.530   7.784  0.00  0.00    +0.123 A 
ATOM      7  N   UNL     1       6.612  -1.647   8.674  0.00  0.00    -0.201 NA
ATOM      8  C   UNL     1       6.776  -1.880   9.974  0.00  0.00    +0.217 A 
ATOM      9  N   UNL     1       7.360  -3.003  10.377  0.00  0.00    -0.181 NA
ATOM     10  C   UNL     1       7.778  -3.889   9.480  0.00  0.00    +0.224 A 
ATOM     11  N   UNL     1       7.606  -3.651   8.181  0.00  0.00    -0.201 NA
ATOM     12  N   UNL     1       8.386  -5.059   9.894  0.00  0.00    -0.284 N 
ATOM     13  N   UNL     1       6.340  -0.957  10.902  0.00  0.00    -0.327 N 
ATOM     14  H   UNL     1       8.650  -5.832   9.157  0.00  0.00    +0.155 HD
ATOM     15  H   UNL     1       6.476  -1.150  11.976  0.00  0.00    +0.145 HD
ATOM     16  H   UNL     1       5.857  -0.027  10.568  0.00  0.00    +0.145 HD
BRANCH  12  17
ATOM     17  C   UNL     1       8.666  -5.259  11.249  0.00  0.00    +0.034 A 
ATOM     18  C   UNL     1       9.005  -4.181  12.057  0.00  0.00    +0.023 A 
ATOM     19  C   UNL     1       9.277  -4.382  13.396  0.00  0.00    +0.002 A 
ATOM     20  C   UNL     1       9.220  -5.656  13.931  0.00  0.00    +0.000 A 
ATOM     21  C   UNL     1       8.888  -6.732  13.128  0.00  0.00    +0.002 A 
ATOM     22  C   UNL     1       8.611  -6.537  11.789  0.00  0.00    +0.023 A 
ENDBRANCH  12  17
ENDBRANCH   4   6
ENDBRANCH   1   4
BRANCH   1  23
ATOM     23  C   UNL     1       5.263  -1.489   4.649  0.00  0.00    +0.019 C 
BRANCH  23  25
ATOM     24  N   UNL     1       3.548  -0.396   3.240  0.00  0.00    -0.287 N 
ATOM     25  C   UNL     1       3.959  -0.753   4.473  0.00  0.00    +0.201 C 
ATOM     26  O   UNL     1       3.279  -0.484   5.441  0.00  0.00    -0.278 OA
ATOM     27  H   UNL     1       4.121  -0.713   2.356  0.00  0.00    +0.155 HD
BRANCH  24  31
ATOM     28  C   UNL     1       0.108   1.921   2.780  0.00  0.00    +0.162 A 
ATOM     29  C   UNL     1       0.928   2.107   3.881  0.00  0.00    +0.051 A 
ATOM     30  C   UNL     1       2.069   1.342   4.033  0.00  0.00    +0.027 A 
ATOM     31  C   UNL     1       2.392   0.380   3.085  0.00  0.00    +0.037 A 
ATOM     32  C   UNL     1       1.569   0.186   1.984  0.00  0.00    +0.072 A 
ATOM     33  C   UNL     1       0.426   0.954   1.832  0.00  0.00    +0.164 A 
BRANCH  28  34
ATOM     34  O   UNL     1      -1.011   2.679   2.629  0.00  0.00    -0.489 OA
BRANCH  34  36
ATOM     35  C   UNL     1      -2.567   4.402   3.302  0.00  0.00    +0.048 C 
ATOM     36  C   UNL     1      -1.276   3.653   3.641  0.00  0.00    +0.226 C 
ENDBRANCH  34  36
ENDBRANCH  28  34
BRANCH  33  37
ATOM     37  O   UNL     1      -0.381   0.766   0.754  0.00  0.00    -0.489 OA
BRANCH  37  38
ATOM     38  C   UNL     1       0.010  -0.240  -0.183  0.00  0.00    +0.226 C 
ATOM     39  C   UNL     1      -1.013  -0.305  -1.319  0.00  0.00    +0.048 C 
ENDBRANCH  37  38
ENDBRANCH  33  37
ENDBRANCH  24  31
ENDBRANCH  23  25
ENDBRANCH   1  23
TORSDOF 10
