REMARK  Name = ZINC40151177
REMARK  11 active torsions:
REMARK  status: ('A' for Active; 'I' for Inactive)
REMARK    1  A    between atoms: C_3  and  S_31
REMARK    2  A    between atoms: C_6  and  N_7
REMARK    3  A    between atoms: N_7  and  N_8
REMARK    4  A    between atoms: C_9  and  C_10
REMARK    5  A    between atoms: C_9  and  C_23
REMARK    6  A    between atoms: C_23  and  C_25
REMARK    7  A    between atoms: C_23  and  O_30
REMARK    8  A    between atoms: C_25  and  C_27
REMARK    9  A    between atoms: C_25  and  O_29
REMARK   10  A    between atoms: C_27  and  O_28
REMARK   11  A    between atoms: S_31  and  N_34
REMARK                            x       y       z     vdW  Elec       q    Type
REMARK                         _______ _______ _______ _____ _____    ______ ____
ROOT
ATOM      1  N   UNL     1      -1.178  -2.125  -0.041  0.00  0.00    -0.186 NA
ATOM      2  C   UNL     1      -2.269  -2.778   0.106  0.00  0.00    +0.099 C 
ENDROOT
BRANCH   2   3
ATOM      3  C   UNL     1      -3.588  -2.049   0.123  0.00  0.00    +0.215 C 
ATOM      4  C   UNL     1      -3.916  -1.724   1.563  0.00  0.00    +0.245 C 
ATOM      5  O   UNL     1      -3.150  -1.062   2.235  0.00  0.00    -0.273 OA
ATOM      6  N   UNL     1      -5.059  -2.172   2.086  0.00  0.00    -0.282 N 
ATOM      7  C   UNL     1      -5.910  -2.894   1.377  0.00  0.00    +0.057 A 
ATOM      8  C   UNL     1      -7.112  -3.353   1.962  0.00  0.00    +0.027 A 
ATOM      9  C   UNL     1      -7.987  -4.092   1.241  0.00  0.00    +0.022 A 
ATOM     10  C   UNL     1      -7.761  -4.441  -0.102  0.00  0.00    +0.043 A 
ATOM     11  C   UNL     1      -6.644  -4.053  -0.758  0.00  0.00    +0.047 A 
ATOM     12  C   UNL     1      -5.644  -3.246  -0.041  0.00  0.00    +0.059 A 
ATOM     13  N   UNL     1      -4.556  -2.853  -0.638  0.00  0.00    -0.368 N 
ATOM     14 CL   UNL     1      -8.945  -5.394  -0.940  0.00  0.00    -0.083 Cl
ATOM     15  H   UNL     1      -5.270  -1.965   3.010  0.00  0.00    +0.155 HD
ATOM     16  H   UNL     1      -4.387  -3.087  -1.564  0.00  0.00    +0.161 HD
ENDBRANCH   2   3
BRANCH   1  17
ATOM     17  N   UNL     1      -1.198  -0.724  -0.065  0.00  0.00    -0.238 N 
ATOM     18  H   UNL     1      -2.044  -0.251  -0.035  0.00  0.00    +0.174 HD
BRANCH  17  24
ATOM     19  C   UNL     1      -0.018   1.379  -0.154  0.00  0.00    +0.026 A 
ATOM     20  C   UNL     1       1.169   2.082  -0.220  0.00  0.00    +0.030 A 
ATOM     21  C   UNL     1       2.374   1.405  -0.262  0.00  0.00    +0.105 A 
ATOM     22  C   UNL     1       2.396   0.023  -0.239  0.00  0.00    +0.030 A 
ATOM     23  C   UNL     1       1.213  -0.687  -0.174  0.00  0.00    +0.026 A 
ATOM     24  C   UNL     1      -0.000  -0.010  -0.131  0.00  0.00    +0.048 A 
BRANCH  21  25
ATOM     25  S   UNL     1       3.886   2.306  -0.346  0.00  0.00    +0.056 S 
ATOM     26  O   UNL     1       4.847   1.435  -0.925  0.00  0.00    -0.153 OA
ATOM     27  O   UNL     1       3.572   3.574  -0.905  0.00  0.00    -0.153 OA
BRANCH  25  28
ATOM     28  N   UNL     1       4.377   2.585   1.211  0.00  0.00    -0.204 NA
ATOM     29  H   UNL     1       3.844   2.260   1.953  0.00  0.00    +0.144 HD
ATOM     30  H   UNL     1       5.198   3.072   1.381  0.00  0.00    +0.144 HD
ENDBRANCH  25  28
ENDBRANCH  21  25
ENDBRANCH  17  24
ENDBRANCH   1  17
BRANCH   2  31
ATOM     31  C   UNL     1      -2.235  -4.277   0.263  0.00  0.00    +0.193 C 
BRANCH  31  32
ATOM     32  O   UNL     1      -2.813  -4.637   1.519  0.00  0.00    -0.383 OA
ATOM     33  H   UNL     1      -3.733  -4.361   1.623  0.00  0.00    +0.210 HD
ENDBRANCH  31  32
BRANCH  31  34
ATOM     34  C   UNL     1      -0.785  -4.762   0.210  0.00  0.00    +0.174 C 
BRANCH  34  35
ATOM     35  O   UNL     1      -0.207  -4.401  -1.046  0.00  0.00    -0.387 OA
ATOM     36  H   UNL     1      -0.662  -4.778  -1.811  0.00  0.00    +0.210 HD
ENDBRANCH  34  35
BRANCH  34  37
ATOM     37  C   UNL     1      -0.750  -6.283   0.369  0.00  0.00    +0.190 C 
BRANCH  37  38
ATOM     38  O   UNL     1       0.608  -6.724   0.437  0.00  0.00    -0.392 OA
ATOM     39  H   UNL     1       0.706  -7.681   0.538  0.00  0.00    +0.210 HD
ENDBRANCH  37  38
ENDBRANCH  34  37
ENDBRANCH  31  34
ENDBRANCH   2  31
TORSDOF 11
