REMARK  Name = ZINC10000364
REMARK  13 active torsions:
REMARK  status: ('A' for Active; 'I' for Inactive)
REMARK    1  A    between atoms: C_1  and  C_2
REMARK    2  A    between atoms: C_2  and  C_3
REMARK    3  A    between atoms: C_3  and  C_4
REMARK    4  A    between atoms: C_4  and  O_5
REMARK    5  A    between atoms: O_5  and  C_6
REMARK    6  A    between atoms: C_11  and  C_12
REMARK    7  A    between atoms: N_13  and  N_14
REMARK    8  A    between atoms: C_15  and  C_17
REMARK    9  A    between atoms: C_17  and  C_19
REMARK   10  A    between atoms: C_17  and  N_22
REMARK   11  A    between atoms: C_19  and  C_20
REMARK   12  A    between atoms: C_19  and  C_21
REMARK   13  A    between atoms: C_23  and  C_25
REMARK                            x       y       z     vdW  Elec       q    Type
REMARK                         _______ _______ _______ _____ _____    ______ ____
ROOT
ATOM      1  N   UNL     1       4.885   2.056   0.454  0.00  0.00    -0.205 N 
ATOM      2  C   UNL     1       3.638   2.352   0.871  0.00  0.00    +0.253 C 
ATOM      3  O   UNL     1       3.026   3.263   0.354  0.00  0.00    -0.272 OA
ATOM      4  H   UNL     1       5.352   1.293   0.828  0.00  0.00    +0.177 HD
ENDROOT
BRANCH   1   6
ATOM      5  C   UNL     1       6.656   2.498  -1.006  0.00  0.00    +0.142 C 
ATOM      6  N   UNL     1       5.505   2.849  -0.519  0.00  0.00    -0.188 NA
BRANCH   5  12
ATOM      7  C   UNL     1       8.592   0.949  -0.754  0.00  0.00    +0.129 A 
ATOM      8  C   UNL     1       9.102  -0.305  -0.462  0.00  0.00    +0.047 A 
ATOM      9  C   UNL     1       8.249  -1.341  -0.134  0.00  0.00    +0.019 A 
ATOM     10  C   UNL     1       6.880  -1.133  -0.088  0.00  0.00    +0.019 A 
ATOM     11  C   UNL     1       6.356   0.111  -0.370  0.00  0.00    +0.028 A 
ATOM     12  C   UNL     1       7.209   1.166  -0.704  0.00  0.00    +0.037 A 
ATOM     13 BR   UNL     1       5.725  -2.561   0.364  0.00  0.00    -0.050 Br
BRANCH   7  14
ATOM     14  O   UNL     1       9.430   1.966  -1.083  0.00  0.00    -0.491 OA
BRANCH  14  15
ATOM     15  C   UNL     1      10.816   1.646  -1.222  0.00  0.00    +0.229 C 
BRANCH  15  16
ATOM     16  C   UNL     1      11.578   2.880  -1.709  0.00  0.00    +0.041 C 
BRANCH  16  18
ATOM     17  C   UNL     1      13.770   3.707  -2.578  0.00  0.00    +0.004 C 
ATOM     18  C   UNL     1      13.037   2.506  -1.975  0.00  0.00    -0.000 C 
ENDBRANCH  16  18
ENDBRANCH  15  16
ENDBRANCH  14  15
ENDBRANCH   7  14
ENDBRANCH   5  12
ENDBRANCH   1   6
BRANCH   2  19
ATOM     19  C   UNL     1       3.004   1.553   1.980  0.00  0.00    +0.163 C 
BRANCH  19  20
ATOM     20  N   UNL     1       1.576   1.871   2.058  0.00  0.00    -0.300 N 
ATOM     21  C   UNL     1       0.696   0.930   2.454  0.00  0.00    +0.246 C 
ATOM     22  O   UNL     1       1.071  -0.210   2.647  0.00  0.00    -0.270 OA
ATOM     23  H   UNL     1       1.264   2.760   1.824  0.00  0.00    +0.150 HD
BRANCH  21  24
ATOM     24  C   UNL     1      -0.726   1.283   2.647  0.00  0.00    +0.055 A 
ATOM     25  C   UNL     1      -1.159   2.593   2.432  0.00  0.00    +0.014 A 
ATOM     26  C   UNL     1      -2.488   2.914   2.608  0.00  0.00    +0.001 A 
ATOM     27  C   UNL     1      -3.391   1.945   3.010  0.00  0.00    +0.001 A 
ATOM     28  C   UNL     1      -2.969   0.647   3.231  0.00  0.00    +0.021 A 
ATOM     29  C   UNL     1      -1.642   0.309   3.052  0.00  0.00    +0.053 A 
ATOM     30 CL   UNL     1      -1.113  -1.321   3.330  0.00  0.00    -0.083 Cl
ENDBRANCH  21  24
ENDBRANCH  19  20
BRANCH  19  31
ATOM     31  C   UNL     1       3.677   1.901   3.309  0.00  0.00    +0.012 C 
ATOM     32  C   UNL     1       3.061   1.061   4.429  0.00  0.00    +0.009 C 
ATOM     33  C   UNL     1       5.175   1.605   3.215  0.00  0.00    +0.009 C 
ENDBRANCH  19  31
ENDBRANCH   2  19
TORSDOF 10
