REMARK  Name = ZINC04840208
REMARK  14 active torsions:
REMARK  status: ('A' for Active; 'I' for Inactive)
REMARK    1  A    between atoms: C_1  and  C_2
REMARK    2  A    between atoms: C_2  and  C_25
REMARK    3  A    between atoms: C_4  and  N_9
REMARK    4  A    between atoms: C_6  and  C_7
REMARK    5  A    between atoms: C_6  and  C_8
REMARK    6  A    between atoms: N_9  and  C_10
REMARK    7  A    between atoms: C_10  and  N_12
REMARK    8  A    between atoms: N_12  and  C_13
REMARK    9  A    between atoms: C_15  and  O_23
REMARK   10  A    between atoms: C_16  and  O_21
REMARK   11  A    between atoms: C_17  and  O_19
REMARK   12  A    between atoms: O_19  and  C_20
REMARK   13  A    between atoms: O_21  and  C_22
REMARK   14  A    between atoms: O_23  and  C_24
REMARK                            x       y       z     vdW  Elec       q    Type
REMARK                         _______ _______ _______ _____ _____    ______ ____
ROOT
ATOM      1  C   UNL     1      -0.043   0.017  -0.262  0.00  0.00    +0.135 C 
ATOM      2  S   UNL     1       1.426  -0.791  -0.608  0.00  0.00    -0.019 S 
ENDROOT
BRANCH   1   3
ATOM      3  N   UNL     1      -0.087   1.364  -0.262  0.00  0.00    -0.324 N 
ATOM      4  H   UNL     1      -0.921   1.822  -0.070  0.00  0.00    +0.148 HD
BRANCH   3   8
ATOM      5  C   UNL     1       2.630   3.841  -2.685  0.00  0.00    -0.010 C 
ATOM      6  C   UNL     1       1.968   4.346  -1.397  0.00  0.00    -0.072 C 
ATOM      7  C   UNL     1       0.726   3.510  -1.100  0.00  0.00    +0.009 C 
ATOM      8  C   UNL     1       1.125   2.138  -0.558  0.00  0.00    +0.069 C 
ATOM      9  C   UNL     1       1.921   2.338   0.731  0.00  0.00    +0.009 C 
ATOM     10  C   UNL     1       3.178   3.161   0.458  0.00  0.00    -0.072 C 
ATOM     11  C   UNL     1       4.221   2.285  -0.247  0.00  0.00    -0.010 C 
ATOM     12  C   UNL     1       3.773   3.570   1.824  0.00  0.00    -0.010 C 
ATOM     13  C   UNL     1       1.502   5.795  -1.661  0.00  0.00    -0.010 C 
ATOM     14  N   UNL     1       2.947   4.432  -0.280  0.00  0.00    +0.386 N 
ATOM     15  H   UNL     1       2.603   5.130   0.390  0.00  0.00    -0.084 HD
ATOM     16  H   UNL     1       3.845   4.743  -0.667  0.00  0.00    -0.084 HD
ENDBRANCH   3   8
ENDBRANCH   1   3
BRANCH   1  17
ATOM     17  N   UNL     1      -1.156  -0.694   0.009  0.00  0.00    -0.297 N 
ATOM     18  H   UNL     1      -1.967  -0.238   0.283  0.00  0.00    +0.154 HD
BRANCH  17  19
ATOM     19  C   UNL     1      -1.140  -2.090  -0.104  0.00  0.00    +0.040 A 
ATOM     20  C   UNL     1      -0.502  -2.691  -1.180  0.00  0.00    +0.073 A 
ATOM     21  C   UNL     1      -0.481  -4.073  -1.290  0.00  0.00    +0.167 A 
ATOM     22  C   UNL     1      -1.109  -4.856  -0.329  0.00  0.00    +0.204 A 
ATOM     23  C   UNL     1      -1.753  -4.252   0.745  0.00  0.00    +0.167 A 
ATOM     24  C   UNL     1      -1.768  -2.871   0.857  0.00  0.00    +0.073 A 
BRANCH  23  25
ATOM     25  O   UNL     1      -2.368  -5.017   1.687  0.00  0.00    -0.491 OA
ATOM     26  C   UNL     1      -3.010  -4.330   2.763  0.00  0.00    +0.277 C 
ENDBRANCH  23  25
BRANCH  22  27
ATOM     27  O   UNL     1      -1.094  -6.213  -0.439  0.00  0.00    -0.488 OA
ATOM     28  C   UNL     1      -2.167  -6.817  -1.162  0.00  0.00    +0.277 C 
ENDBRANCH  22  27
BRANCH  21  29
ATOM     29  O   UNL     1       0.149  -4.662  -2.341  0.00  0.00    -0.491 OA
ATOM     30  C   UNL     1       0.774  -3.796  -3.291  0.00  0.00    +0.277 C 
ENDBRANCH  21  29
ENDBRANCH  17  19
ENDBRANCH   1  17
TORSDOF 7
