REMARK  Name = ZINC17909301
REMARK  11 active torsions:
REMARK  status: ('A' for Active; 'I' for Inactive)
REMARK    1  A    between atoms: C_1  and  C_2
REMARK    2  A    between atoms: C_2  and  C_4
REMARK    3  A    between atoms: C_7  and  S_10
REMARK    4  A    between atoms: S_10  and  N_13
REMARK    5  A    between atoms: C_16  and  C_19
REMARK    6  A    between atoms: N_21  and  C_22
REMARK    7  A    between atoms: C_22  and  C_23
REMARK    8  A    between atoms: C_23  and  C_25
REMARK    9  A    between atoms: C_23  and  N_63
REMARK   10  A    between atoms: C_32  and  N_63
REMARK   11  A    between atoms: C_33  and  N_63
REMARK                            x       y       z     vdW  Elec       q    Type
REMARK                         _______ _______ _______ _____ _____    ______ ____
ROOT
ATOM      1  N   UNL     1       2.814   5.316   2.328  0.00  0.00    -0.177 NA
ATOM      2  C   UNL     1       1.462   5.176   2.884  0.00  0.00    +0.110 C 
ATOM      3  C   UNL     1       0.994   6.535   3.404  0.00  0.00    +0.030 C 
ATOM      4  C   UNL     1       2.026   7.083   4.392  0.00  0.00    +0.077 C 
ATOM      5  C   UNL     1       3.367   7.272   3.679  0.00  0.00    +0.030 C 
ATOM      6  C   UNL     1       3.863   5.917   3.164  0.00  0.00    +0.110 C 
ENDROOT
BRANCH   4   7
ATOM      7  C   UNL     1       1.552   8.409   4.929  0.00  0.00    +0.216 C 
ATOM      8  O   UNL     1       2.220   9.406   4.758  0.00  0.00    -0.276 OA
ATOM      9  N   UNL     1       0.385   8.486   5.599  0.00  0.00    -0.316 N 
ATOM     10  H   UNL     1      -0.149   7.688   5.735  0.00  0.00    +0.149 HD
BRANCH   9  11
ATOM     11  C   UNL     1      -0.076   9.775   6.121  0.00  0.00    +0.093 C 
BRANCH  11  12
ATOM     12  C   UNL     1      -1.462   9.605   6.746  0.00  0.00    -0.020 C 
BRANCH  12  13
ATOM     13  C   UNL     1      -1.359   8.727   7.967  0.00  0.00    -0.041 A 
ATOM     14  C   UNL     1      -1.602   7.370   7.865  0.00  0.00    +0.003 A 
ATOM     15  C   UNL     1      -1.508   6.565   8.984  0.00  0.00    +0.000 A 
ATOM     16  C   UNL     1      -1.170   7.116  10.206  0.00  0.00    +0.001 A 
ATOM     17  C   UNL     1      -0.926   8.473  10.309  0.00  0.00    +0.020 A 
ATOM     18  C   UNL     1      -1.015   9.278   9.188  0.00  0.00    +0.043 A 
ATOM     19 CL   UNL     1      -0.702  10.981   9.315  0.00  0.00    -0.083 Cl
ENDBRANCH  12  13
BRANCH  12  22
ATOM     20  C   UNL     1      -3.746   8.953   6.275  0.00  0.00    -0.096 C 
ATOM     21  C   UNL     1      -2.295   9.669   4.474  0.00  0.00    -0.096 C 
ATOM     22  N   UNL     1      -2.358   8.956   5.766  0.00  0.00    +0.382 N 
ATOM     23  H   UNL     1      -2.052   7.986   5.627  0.00  0.00    -0.082 HD
ENDBRANCH  12  22
ENDBRANCH  11  12
ENDBRANCH   9  11
ENDBRANCH   4   7
BRANCH   1  24
ATOM     24  S   UNL     1       3.149   4.812   0.787  0.00  0.00    +0.061 S 
ATOM     25  O   UNL     1       4.280   5.556   0.354  0.00  0.00    -0.153 OA
ATOM     26  O   UNL     1       1.917   4.820   0.080  0.00  0.00    -0.153 OA
BRANCH  24  30
ATOM     27  C   UNL     1       4.465   0.483   1.046  0.00  0.00    +0.017 A 
ATOM     28  C   UNL     1       3.114   0.798   0.874  0.00  0.00    +0.013 A 
ATOM     29  C   UNL     1       2.721   2.118   0.796  0.00  0.00    +0.029 A 
ATOM     30  C   UNL     1       3.661   3.130   0.888  0.00  0.00    +0.106 A 
ATOM     31  C   UNL     1       5.000   2.826   1.059  0.00  0.00    +0.029 A 
ATOM     32  C   UNL     1       5.409   1.512   1.139  0.00  0.00    +0.013 A 
BRANCH  27  34
ATOM     33  C   UNL     1       6.350  -1.257   1.317  0.00  0.00    +0.091 C 
ATOM     34  C   UNL     1       4.893  -0.922   1.131  0.00  0.00    +0.160 C 
ATOM     35  O   UNL     1       4.072  -1.811   1.051  0.00  0.00    -0.292 OA
ENDBRANCH  27  34
ENDBRANCH  24  30
ENDBRANCH   1  24
TORSDOF 8
