REMARK  Name = ZINC19775837
REMARK  8 active torsions:
REMARK  status: ('A' for Active; 'I' for Inactive)
REMARK    1  A    between atoms: C_1  and  C_2
REMARK    2  A    between atoms: C_4  and  N_24
REMARK    3  A    between atoms: C_7  and  N_8
REMARK    4  A    between atoms: C_9  and  C_11
REMARK    5  A    between atoms: C_11  and  N_12
REMARK    6  A    between atoms: C_14  and  C_23
REMARK    7  A    between atoms: C_19  and  C_21
REMARK    8  A    between atoms: C_19  and  C_22
REMARK                            x       y       z     vdW  Elec       q    Type
REMARK                         _______ _______ _______ _____ _____    ______ ____
ROOT
ATOM      1  N   UNL     1      -3.690   1.877   3.188  0.00  0.00    -0.287 N 
ATOM      2  C   UNL     1      -2.392   1.879   2.825  0.00  0.00    +0.201 C 
ATOM      3  O   UNL     1      -1.536   2.161   3.637  0.00  0.00    -0.278 OA
ATOM      4  H   UNL     1      -4.472   1.710   2.433  0.00  0.00    +0.155 HD
ENDROOT
BRANCH   1  11
ATOM      5  C   UNL     1      -6.283   2.903   3.748  0.00  0.00    +0.046 C 
ATOM      6  C   UNL     1      -5.300   2.586   4.845  0.00  0.00    -0.028 A 
ATOM      7  C   UNL     1      -5.648   2.793   6.165  0.00  0.00    +0.028 A 
ATOM      8  C   UNL     1      -4.742   2.501   7.176  0.00  0.00    +0.025 A 
ATOM      9  C   UNL     1      -3.485   2.001   6.859  0.00  0.00    +0.024 A 
ATOM     10  C   UNL     1      -3.139   1.789   5.539  0.00  0.00    +0.025 A 
ATOM     11  C   UNL     1      -4.043   2.087   4.528  0.00  0.00    +0.036 A 
BRANCH   8  12
ATOM     12  N   UNL     1      -5.094   2.711   8.513  0.00  0.00    -0.358 N 
ATOM     13  H   UNL     1      -4.377   2.479   9.314  0.00  0.00    +0.142 HD
ATOM     14  H   UNL     1      -6.090   3.106   8.764  0.00  0.00    +0.142 HD
ENDBRANCH   8  12
ENDBRANCH   1  11
BRANCH   2  15
ATOM     15  C   UNL     1      -2.005   1.531   1.411  0.00  0.00    +0.019 C 
BRANCH  15  16
ATOM     16  N   UNL     1      -0.562   1.605   1.273  0.00  0.00    +0.388 N 
ATOM     17  C   UNL     1      -0.003   2.949   1.473  0.00  0.00    -0.071 C 
ATOM     18  C   UNL     1       1.137   3.102   0.438  0.00  0.00    -0.048 C 
ATOM     19  C   UNL     1       1.435   1.641   0.001  0.00  0.00    -0.011 C 
ATOM     20  C   UNL     1      -0.012   1.072   0.016  0.00  0.00    -0.067 C 
ATOM     21  C   UNL     1      -0.734   1.628  -1.200  0.00  0.00    -0.009 C 
ATOM     22  C   UNL     1      -0.560   3.105  -1.477  0.00  0.00    -0.036 C 
ATOM     23  C   UNL     1       0.586   3.823  -0.791  0.00  0.00    +0.011 C 
ATOM     24  C   UNL     1      -1.876   3.843  -1.167  0.00  0.00    +0.011 C 
ATOM     25  C   UNL     1      -0.337   3.257  -3.005  0.00  0.00    +0.011 C 
ATOM     26  C   UNL     1       2.372   3.798   1.030  0.00  0.00    +0.009 C 
ATOM     27  H   UNL     1      -0.262   0.942   2.099  0.00  0.00    -0.081 HD
ENDBRANCH  15  16
ENDBRANCH   2  15
TORSDOF 4
