REMARK  Name = ZINC16027082
REMARK  11 active torsions:
REMARK  status: ('A' for Active; 'I' for Inactive)
REMARK    1  A    between atoms: C_1  and  C_2
REMARK    2  A    between atoms: C_2  and  O_3
REMARK    3  A    between atoms: O_3  and  C_4
REMARK    4  A    between atoms: C_4  and  C_6
REMARK    5  A    between atoms: C_9  and  N_12
REMARK    6  A    between atoms: C_13  and  C_15
REMARK    7  A    between atoms: C_18  and  C_32
REMARK    8  A    between atoms: C_23  and  C_31
REMARK    9  A    between atoms: C_25  and  C_30
REMARK   10  A    between atoms: C_32  and  C_34
REMARK   11  A    between atoms: C_32  and  O_35
REMARK                            x       y       z     vdW  Elec       q    Type
REMARK                         _______ _______ _______ _____ _____    ______ ____
ROOT
ATOM      1  C   UNL     1      -4.780   0.738   0.011  0.00  0.00    +0.076 C 
ATOM      2  C   UNL     1      -4.874  -0.078   1.323  0.00  0.00    -0.001 C 
ATOM      3  C   UNL     1      -5.840   0.775   2.190  0.00  0.00    -0.040 C 
ATOM      4  C   UNL     1      -6.045   1.605  -0.007  0.00  0.00    +0.049 C 
ATOM      5  C   UNL     1      -6.852   1.359  -1.253  0.00  0.00    -0.027 A 
ATOM      6  C   UNL     1      -7.458   0.241  -1.781  0.00  0.00    +0.008 A 
ATOM      7  C   UNL     1      -8.150   0.329  -2.976  0.00  0.00    -0.050 A 
ATOM      8  C   UNL     1      -8.232   1.541  -3.637  0.00  0.00    +0.008 A 
ATOM      9  C   UNL     1      -7.627   2.663  -3.111  0.00  0.00    -0.029 A 
ATOM     10  C   UNL     1      -6.927   2.584  -1.909  0.00  0.00    +0.039 A 
ATOM     11  N   UNL     1      -6.241   3.561  -1.186  0.00  0.00    -0.286 N 
ATOM     12  C   UNL     1      -5.693   3.069  -0.059  0.00  0.00    +0.211 C 
ATOM     13  O   UNL     1      -5.042   3.686   0.758  0.00  0.00    -0.277 OA
ATOM     14  C   UNL     1      -7.722   3.979  -3.838  0.00  0.00    +0.045 C 
ATOM     15  C   UNL     1      -8.814  -0.894  -3.556  0.00  0.00    +0.044 C 
ATOM     16  H   UNL     1      -6.167   4.488  -1.463  0.00  0.00    +0.155 HD
ATOM     17  N   UNL     1      -6.798   1.288   1.198  0.00  0.00    +0.395 N 
ATOM     18  H   UNL     1      -7.257   2.133   1.558  0.00  0.00    -0.083 HD
ATOM     19  H   UNL     1      -7.506   0.574   0.993  0.00  0.00    -0.083 HD
ENDROOT
BRANCH   1  21
ATOM     20  N   UNL     1      -3.031   2.054  -1.141  0.00  0.00    -0.285 N 
ATOM     21  C   UNL     1      -3.549   1.607   0.020  0.00  0.00    +0.220 C 
ATOM     22  O   UNL     1      -3.024   1.903   1.073  0.00  0.00    -0.275 OA
ATOM     23  H   UNL     1      -3.492   1.880  -1.976  0.00  0.00    +0.155 HD
BRANCH  20  27
ATOM     24  C   UNL     1       0.545   4.189  -1.137  0.00  0.00    +0.059 A 
ATOM     25  C   UNL     1      -0.447   4.486  -2.076  0.00  0.00    +0.017 A 
ATOM     26  C   UNL     1      -1.626   3.776  -2.077  0.00  0.00    +0.024 A 
ATOM     27  C   UNL     1      -1.833   2.767  -1.141  0.00  0.00    +0.033 A 
ATOM     28  C   UNL     1      -0.846   2.466  -0.208  0.00  0.00    +0.024 A 
ATOM     29  C   UNL     1       0.336   3.172  -0.201  0.00  0.00    +0.017 A 
BRANCH  24  30
ATOM     30  C   UNL     1       1.810   4.948  -1.132  0.00  0.00    +0.339 C 
ATOM     31  O   UNL     1       1.990   5.833  -1.946  0.00  0.00    -0.245 OA
BRANCH  30  32
ATOM     32  O   UNL     1       2.765   4.661  -0.226  0.00  0.00    -0.461 OA
BRANCH  32  34
ATOM     33  C   UNL     1       4.942   4.982   0.816  0.00  0.00    +0.048 C 
ATOM     34  C   UNL     1       3.983   5.449  -0.281  0.00  0.00    +0.229 C 
ENDBRANCH  32  34
ENDBRANCH  30  32
ENDBRANCH  24  30
ENDBRANCH  20  27
ENDBRANCH   1  21
BRANCH   3  35
ATOM     35  C   UNL     1      -6.535  -0.093   3.241  0.00  0.00    +0.098 C 
ATOM     36  C   UNL     1      -7.645   0.715   3.916  0.00  0.00    +0.036 C 
BRANCH  35  37
ATOM     37  O   UNL     1      -7.100  -1.244   2.610  0.00  0.00    -0.394 OA
ATOM     38  H   UNL     1      -7.756  -1.038   1.931  0.00  0.00    +0.210 HD
ENDBRANCH  35  37
ENDBRANCH   3  35
TORSDOF 7
