REMARK  Name = ZINC39935559
REMARK  11 active torsions:
REMARK  status: ('A' for Active; 'I' for Inactive)
REMARK    1  A    between atoms: C_1  and  C_2
REMARK    2  A    between atoms: C_2  and  C_3
REMARK    3  A    between atoms: N_17  and  N_18
REMARK    4  A    between atoms: C_19  and  C_20
REMARK    5  A    between atoms: C_23  and  N_28
REMARK    6  A    between atoms: C_25  and  O_26
REMARK    7  A    between atoms: O_26  and  C_27
REMARK    8  A    between atoms: N_28  and  C_29
REMARK    9  A    between atoms: N_28  and  C_31
REMARK   10  A    between atoms: C_29  and  C_30
REMARK   11  A    between atoms: C_31  and  C_32
REMARK                            x       y       z     vdW  Elec       q    Type
REMARK                         _______ _______ _______ _____ _____    ______ ____
ROOT
ATOM      1  C   UNL     1       0.731  -0.503   1.223  0.00  0.00    -0.047 A 
ATOM      2  C   UNL     1       2.116  -0.704   1.147  0.00  0.00    +0.005 A 
ATOM      3  C   UNL     1       2.831  -1.144   2.207  0.00  0.00    +0.026 A 
ATOM      4  C   UNL     1       2.141  -1.420   3.473  0.00  0.00    +0.046 A 
ATOM      5  N   UNL     1       2.575  -1.877   4.624  0.00  0.00    -0.359 N 
ATOM      6  C   UNL     1       1.484  -1.842   5.583  0.00  0.00    +0.229 C 
ATOM      7  C   UNL     1       0.233  -1.542   4.777  0.00  0.00    +0.115 C 
ATOM      8  C   UNL     1       0.672  -1.209   3.518  0.00  0.00    +0.025 A 
ATOM      9  C   UNL     1       0.025  -0.736   2.353  0.00  0.00    +0.015 A 
ATOM     10  N   UNL     1      -0.989  -1.746   5.274  0.00  0.00    -0.146 NA
ATOM     11  N   UNL     1      -1.075  -2.666   6.187  0.00  0.00    -0.113 NA
ATOM     12  C   UNL     1      -0.008  -3.413   6.559  0.00  0.00    +0.230 C 
ATOM     13  N   UNL     1       1.238  -3.104   6.279  0.00  0.00    -0.330 N 
ATOM     14  N   UNL     1      -0.243  -4.567   7.278  0.00  0.00    -0.206 N 
ATOM     15  H   UNL     1       0.500  -5.124   7.558  0.00  0.00    +0.177 HD
ATOM     16  H   UNL     1       3.477  -2.186   4.805  0.00  0.00    +0.162 HD
ATOM     17  H   UNL     1       1.970  -3.693   6.522  0.00  0.00    +0.165 HD
ENDROOT
BRANCH   1  19
ATOM     18  C   UNL     1      -0.019   1.526   0.010  0.00  0.00    +0.009 C 
ATOM     19  C   UNL     1       0.002  -0.004   0.002  0.00  0.00    +0.032 C 
ENDBRANCH   1  19
BRANCH  14  20
ATOM     20  N   UNL     1      -1.555  -4.935   7.603  0.00  0.00    -0.187 NA
ATOM     21  C   UNL     1      -1.777  -6.021   8.280  0.00  0.00    +0.142 C 
BRANCH  21  22
ATOM     22  C   UNL     1      -3.156  -6.407   8.621  0.00  0.00    +0.036 A 
ATOM     23  C   UNL     1      -3.397  -7.573   9.355  0.00  0.00    +0.015 A 
ATOM     24  C   UNL     1      -4.688  -7.931   9.673  0.00  0.00    +0.024 A 
ATOM     25  C   UNL     1      -5.755  -7.136   9.266  0.00  0.00    +0.033 A 
ATOM     26  C   UNL     1      -5.526  -5.977   8.536  0.00  0.00    +0.069 A 
ATOM     27  C   UNL     1      -4.233  -5.604   8.217  0.00  0.00    +0.130 A 
BRANCH  27  28
ATOM     28  O   UNL     1      -4.006  -4.468   7.509  0.00  0.00    -0.494 OA
ATOM     29  C   UNL     1      -5.151  -3.700   7.132  0.00  0.00    +0.277 C 
ENDBRANCH  27  28
BRANCH  25  30
ATOM     30  N   UNL     1      -7.060  -7.506   9.591  0.00  0.00    -0.330 N 
BRANCH  30  31
ATOM     31  C   UNL     1      -7.305  -8.729  10.360  0.00  0.00    +0.102 C 
ATOM     32  C   UNL     1      -7.298  -8.401  11.855  0.00  0.00    +0.024 C 
ENDBRANCH  30  31
BRANCH  30  33
ATOM     33  C   UNL     1      -8.186  -6.671   9.164  0.00  0.00    +0.102 C 
ATOM     34  C   UNL     1      -8.671  -7.134   7.789  0.00  0.00    +0.024 C 
ENDBRANCH  30  33
ENDBRANCH  25  30
ENDBRANCH  21  22
ENDBRANCH  14  20
TORSDOF 7
