REMARK  Name = ZINC67160702
REMARK  10 active torsions:
REMARK  status: ('A' for Active; 'I' for Inactive)
REMARK    1  A    between atoms: C_1  and  C_2
REMARK    2  A    between atoms: C_4  and  C_29
REMARK    3  A    between atoms: C_5  and  C_9
REMARK    4  A    between atoms: C_6  and  C_8
REMARK    5  A    between atoms: C_9  and  N_10
REMARK    6  A    between atoms: C_11  and  C_13
REMARK    7  A    between atoms: C_13  and  C_14
REMARK    8  A    between atoms: C_14  and  C_15
REMARK    9  A    between atoms: C_15  and  C_16
REMARK   10  A    between atoms: C_16  and  C_17
REMARK                            x       y       z     vdW  Elec       q    Type
REMARK                         _______ _______ _______ _____ _____    ______ ____
ROOT
ATOM      1  C   UNL     1       3.137  -6.551  -0.051  0.00  0.00    +0.096 C 
ENDROOT
BRANCH   1   3
ATOM      2  N   UNL     1       1.447  -4.746  -0.032  0.00  0.00    -0.311 N 
ATOM      3  C   UNL     1       1.710  -6.067  -0.040  0.00  0.00    +0.213 C 
ATOM      4  O   UNL     1       0.799  -6.867  -0.040  0.00  0.00    -0.276 OA
ATOM      5  H   UNL     1       2.176  -4.106  -0.032  0.00  0.00    +0.149 HD
BRANCH   2   6
ATOM      6  C   UNL     1       0.059  -4.275  -0.021  0.00  0.00    +0.140 C 
BRANCH   6  11
ATOM      7  C   UNL     1      -0.018   1.503   0.010  0.00  0.00    +0.044 C 
ATOM      8  C   UNL     1       0.002  -0.004   0.002  0.00  0.00    -0.050 A 
ATOM      9  C   UNL     1       0.006  -0.689  -1.199  0.00  0.00    +0.007 A 
ATOM     10  C   UNL     1       0.025  -2.071  -1.206  0.00  0.00    -0.045 A 
ATOM     11  C   UNL     1       0.040  -2.768  -0.013  0.00  0.00    -0.024 A 
ATOM     12  C   UNL     1       0.037  -2.084   1.188  0.00  0.00    -0.045 A 
ATOM     13  C   UNL     1       0.023  -0.702   1.195  0.00  0.00    +0.007 A 
ATOM     14  C   UNL     1       0.054  -2.844   2.489  0.00  0.00    +0.044 C 
ATOM     15  C   UNL     1       0.027  -2.817  -2.516  0.00  0.00    +0.044 C 
ENDBRANCH   6  11
ENDBRANCH   2   6
ENDBRANCH   1   3
BRANCH   1  16
ATOM     16  C   UNL     1       3.157  -8.081  -0.059  0.00  0.00    +0.009 C 
BRANCH  16  17
ATOM     17  C   UNL     1       4.606  -8.573  -0.070  0.00  0.00    +0.002 C 
BRANCH  17  18
ATOM     18  C   UNL     1       4.626 -10.102  -0.079  0.00  0.00    +0.016 C 
BRANCH  18  19
ATOM     19  C   UNL     1       6.075 -10.594  -0.089  0.00  0.00    +0.069 C 
ATOM     20  C   UNL     1       6.139 -12.100  -0.065  0.00  0.00    +0.108 C 
ATOM     21  C   UNL     1       5.939 -12.629  -1.518  0.00  0.00    +0.105 C 
ATOM     22  C   UNL     1       7.063 -12.000  -2.338  0.00  0.00    +0.093 C 
ATOM     23  S   UNL     1       6.889 -10.242  -1.716  0.00  0.00    -0.154 S 
ATOM     24  N   UNL     1       5.905 -14.049  -1.247  0.00  0.00    -0.294 N 
ATOM     25  C   UNL     1       5.332 -14.170  -0.012  0.00  0.00    +0.300 C 
ATOM     26  O   UNL     1       4.915 -15.220   0.437  0.00  0.00    -0.253 OA
ATOM     27  N   UNL     1       5.265 -12.982   0.649  0.00  0.00    -0.294 N 
ATOM     28  H   UNL     1       6.223 -14.764  -1.820  0.00  0.00    +0.151 HD
ATOM     29  H   UNL     1       4.740 -12.781   1.439  0.00  0.00    +0.151 HD
ENDBRANCH  18  19
ENDBRANCH  17  18
ENDBRANCH  16  17
ENDBRANCH   1  16
TORSDOF 7
