REMARK  Name = ZINC12888997
REMARK  6 active torsions:
REMARK  status: ('A' for Active; 'I' for Inactive)
REMARK    1  A    between atoms: C_1  and  N_61
REMARK    2  A    between atoms: C_14  and  C_16
REMARK    3  A    between atoms: C_16  and  C_17
REMARK    4  A    between atoms: C_17  and  C_19
REMARK    5  A    between atoms: C_19  and  C_20
REMARK    6  A    between atoms: C_34  and  N_63
REMARK                            x       y       z     vdW  Elec       q    Type
REMARK                         _______ _______ _______ _____ _____    ______ ____
ROOT
ATOM      1  C   UNL     1       7.996  -0.450  -0.890  0.00  0.00    +0.131 C 
ATOM      2  O   UNL     1       8.609   0.119  -0.019  0.00  0.00    -0.298 OA
ENDROOT
BRANCH   1   3
ATOM      3  C   UNL     1       6.499  -0.591  -0.787  0.00  0.00    +0.065 C 
BRANCH   3  17
ATOM      4  C   UNL     1       6.351  -1.910   1.821  0.00  0.00    -0.095 C 
ATOM      5  C   UNL     1       6.410   0.265   2.884  0.00  0.00    -0.074 C 
ATOM      6  C   UNL     1       7.127   1.621   2.827  0.00  0.00    +0.019 C 
ATOM      7  C   UNL     1       6.829   2.246   1.488  0.00  0.00    -0.022 A 
ATOM      8  C   UNL     1       7.007   3.629   1.067  0.00  0.00    +0.003 A 
ATOM      9  C   UNL     1       7.478   4.788   1.688  0.00  0.00    +0.010 A 
ATOM     10  C   UNL     1       7.517   5.964   0.995  0.00  0.00    +0.001 A 
ATOM     11  C   UNL     1       7.091   6.019  -0.326  0.00  0.00    +0.002 A 
ATOM     12  C   UNL     1       6.623   4.889  -0.959  0.00  0.00    +0.026 A 
ATOM     13  C   UNL     1       6.574   3.680  -0.273  0.00  0.00    +0.047 A 
ATOM     14  N   UNL     1       6.167   2.410  -0.621  0.00  0.00    -0.359 N 
ATOM     15  H   UNL     1       5.819   2.155  -1.490  0.00  0.00    +0.166 HD
ATOM     16  C   UNL     1       6.325   1.565   0.438  0.00  0.00    +0.007 A 
ATOM     17  C   UNL     1       6.009   0.088   0.493  0.00  0.00    -0.014 C 
ATOM     18  N   UNL     1       6.728  -0.492   1.652  0.00  0.00    +0.384 N 
ATOM     19  H   UNL     1       7.739  -0.434   1.479  0.00  0.00    -0.081 HD
ENDBRANCH   3  17
ENDBRANCH   1   3
BRANCH   1  20
ATOM     20  C   UNL     1       8.727  -1.019  -2.078  0.00  0.00    +0.065 C 
BRANCH  20  21
ATOM     21  C   UNL     1      10.226  -0.754  -1.929  0.00  0.00    -0.014 C 
ATOM     22  C   UNL     1      10.480   0.735  -1.914  0.00  0.00    +0.007 A 
ATOM     23  C   UNL     1      11.331   1.329  -1.048  0.00  0.00    -0.022 A 
ATOM     24  C   UNL     1      11.309   2.747  -1.331  0.00  0.00    +0.003 A 
ATOM     25  C   UNL     1      11.974   3.840  -0.768  0.00  0.00    +0.010 A 
ATOM     26  C   UNL     1      11.704   5.075  -1.303  0.00  0.00    +0.001 A 
ATOM     27  C   UNL     1      10.816   5.244  -2.353  0.00  0.00    +0.002 A 
ATOM     28  C   UNL     1      10.144   4.181  -2.930  0.00  0.00    +0.026 A 
ATOM     29  C   UNL     1      10.398   2.915  -2.407  0.00  0.00    +0.047 A 
ATOM     30  N   UNL     1       9.919   1.678  -2.732  0.00  0.00    -0.359 N 
ATOM     31  H   UNL     1       9.277   1.495  -3.436  0.00  0.00    +0.166 HD
ATOM     32  C   UNL     1      12.120   0.575  -0.007  0.00  0.00    +0.019 C 
ATOM     33  C   UNL     1      12.089  -0.915  -0.377  0.00  0.00    -0.074 C 
ATOM     34  C   UNL     1      10.575  -2.784  -0.652  0.00  0.00    -0.095 C 
ATOM     35  N   UNL     1      10.687  -1.311  -0.635  0.00  0.00    +0.384 N 
ATOM     36  H   UNL     1      10.093  -0.941   0.117  0.00  0.00    -0.081 HD
ENDBRANCH  20  21
ENDBRANCH   1  20
TORSDOF 4
