REMARK  Name = ZINC08894238
REMARK  11 active torsions:
REMARK  status: ('A' for Active; 'I' for Inactive)
REMARK    1  A    between atoms: C_1  and  C_2
REMARK    2  A    between atoms: C_5  and  N_9
REMARK    3  A    between atoms: C_6  and  C_8
REMARK    4  A    between atoms: C_10  and  C_12
REMARK    5  A    between atoms: C_13  and  C_37
REMARK    6  A    between atoms: N_19  and  C_22
REMARK    7  A    between atoms: C_22  and  C_24
REMARK    8  A    between atoms: C_22  and  C_25
REMARK    9  A    between atoms: N_27  and  C_28
REMARK   10  A    between atoms: C_31  and  O_35
REMARK   11  A    between atoms: O_35  and  C_36
REMARK                            x       y       z     vdW  Elec       q    Type
REMARK                         _______ _______ _______ _____ _____    ______ ____
ROOT
ATOM      1  C   UNL     1       3.712  -0.937   0.166  0.00  0.00    +0.080 A 
ATOM      2  C   UNL     1       3.937  -2.279   0.270  0.00  0.00    -0.017 A 
ATOM      3  C   UNL     1       5.246  -2.760   0.351  0.00  0.00    +0.076 A 
ATOM      4  C   UNL     1       6.264  -1.779   0.330  0.00  0.00    +0.116 A 
ATOM      5  S   UNL     1       5.362  -0.257   0.191  0.00  0.00    -0.064 S 
ATOM      6  N   UNL     1       7.549  -2.103   0.406  0.00  0.00    -0.230 NA
ATOM      7  C   UNL     1       7.937  -3.345   0.505  0.00  0.00    +0.204 A 
ATOM      8  N   UNL     1       7.053  -4.372   0.535  0.00  0.00    -0.287 N 
ATOM      9  C   UNL     1       5.725  -4.156   0.464  0.00  0.00    +0.263 A 
ATOM     10  O   UNL     1       4.938  -5.086   0.492  0.00  0.00    -0.267 OA
ATOM     11  C   UNL     1       2.777  -3.240   0.292  0.00  0.00    +0.046 C 
ENDROOT
BRANCH   1  13
ATOM     12  N   UNL     1       2.411   1.115  -0.025  0.00  0.00    -0.281 N 
ATOM     13  C   UNL     1       2.432  -0.229   0.065  0.00  0.00    +0.255 C 
ATOM     14  O   UNL     1       1.389  -0.856   0.062  0.00  0.00    -0.269 OA
ATOM     15  H   UNL     1       3.243   1.610  -0.090  0.00  0.00    +0.155 HD
BRANCH  12  20
ATOM     16  C   UNL     1      -2.542   3.880  -0.027  0.00  0.00    +0.044 C 
ATOM     17  C   UNL     1      -1.226   3.145  -0.026  0.00  0.00    -0.050 A 
ATOM     18  C   UNL     1      -1.126   1.908  -0.636  0.00  0.00    +0.005 A 
ATOM     19  C   UNL     1       0.077   1.230  -0.633  0.00  0.00    +0.024 A 
ATOM     20  C   UNL     1       1.190   1.797  -0.026  0.00  0.00    +0.037 A 
ATOM     21  C   UNL     1       1.088   3.041   0.581  0.00  0.00    -0.029 A 
ATOM     22  C   UNL     1      -0.120   3.712   0.580  0.00  0.00    +0.008 A 
ATOM     23  C   UNL     1       2.293   3.660   1.242  0.00  0.00    +0.045 C 
ENDBRANCH  12  20
ENDBRANCH   1  13
BRANCH   8  24
ATOM     24  C   UNL     1       7.551  -5.745   0.646  0.00  0.00    +0.174 C 
ATOM     25  C   UNL     1       8.349  -5.894   1.943  0.00  0.00    +0.041 C 
BRANCH  24  26
ATOM     26  C   UNL     1       8.441  -6.053  -0.530  0.00  0.00    +0.240 C 
ATOM     27  O   UNL     1       8.640  -5.209  -1.378  0.00  0.00    -0.273 OA
ATOM     28  N   UNL     1       9.017  -7.267  -0.640  0.00  0.00    -0.284 N 
ATOM     29  H   UNL     1       8.806  -7.964   0.001  0.00  0.00    +0.155 HD
BRANCH  28  30
ATOM     30  C   UNL     1       9.920  -7.523  -1.680  0.00  0.00    +0.035 A 
ATOM     31  C   UNL     1       9.723  -6.946  -2.928  0.00  0.00    +0.027 A 
ATOM     32  C   UNL     1      10.616  -7.194  -3.952  0.00  0.00    +0.049 A 
ATOM     33  C   UNL     1      11.703  -8.028  -3.738  0.00  0.00    +0.138 A 
ATOM     34  C   UNL     1      11.898  -8.610  -2.493  0.00  0.00    +0.084 A 
ATOM     35  C   UNL     1      11.008  -8.358  -1.466  0.00  0.00    +0.047 A 
ATOM     36 CL   UNL     1      13.259  -9.653  -2.226  0.00  0.00    -0.080 Cl
BRANCH  33  37
ATOM     37  O   UNL     1      12.579  -8.276  -4.749  0.00  0.00    -0.494 OA
ATOM     38  C   UNL     1      12.317  -7.644  -6.003  0.00  0.00    +0.277 C 
ENDBRANCH  33  37
ENDBRANCH  28  30
ENDBRANCH  24  26
ENDBRANCH   8  24
TORSDOF 6
