REMARK  Name = ZINC43262809
REMARK  10 active torsions:
REMARK  status: ('A' for Active; 'I' for Inactive)
REMARK    1  A    between atoms: C_1  and  C_2
REMARK    2  A    between atoms: C_2  and  C_3
REMARK    3  A    between atoms: C_3  and  C_5
REMARK    4  A    between atoms: C_3  and  N_23
REMARK    5  A    between atoms: C_5  and  C_7
REMARK    6  A    between atoms: C_5  and  N_13
REMARK    7  A    between atoms: N_13  and  C_14
REMARK    8  A    between atoms: N_13  and  C_17
REMARK    9  A    between atoms: C_14  and  C_15
REMARK   10  A    between atoms: C_15  and  O_16
REMARK                            x       y       z     vdW  Elec       q    Type
REMARK                         _______ _______ _______ _____ _____    ______ ____
ROOT
ATOM      1  C   UNL     1       1.198  -1.422  -0.624  0.00  0.00    -0.013 C 
ENDROOT
BRANCH   1   2
ATOM      2  C   UNL     1       2.173  -0.296  -0.390  0.00  0.00    -0.021 A 
ATOM      3  C   UNL     1       2.672   0.599  -1.276  0.00  0.00    +0.011 A 
ATOM      4  C   UNL     1       3.564   1.556  -0.832  0.00  0.00    +0.023 A 
ATOM      5  C   UNL     1       3.914   1.572   0.478  0.00  0.00    +0.055 A 
ATOM      6  S   UNL     1       2.963   0.208   1.130  0.00  0.00    -0.088 S 
ATOM      7 BR   UNL     1       5.095   2.739   1.383  0.00  0.00    -0.043 Br
ENDBRANCH   1   2
BRANCH   1   8
ATOM      8  N   UNL     1       1.615  -2.599   0.149  0.00  0.00    +0.389 N 
ATOM      9  H   UNL     1       2.623  -2.646   0.174  0.00  0.00    -0.080 HD
BRANCH   8  10
ATOM     10  C   UNL     1       1.085  -3.814  -0.486  0.00  0.00    -0.068 C 
ATOM     11  C   UNL     1       1.162  -4.980   0.502  0.00  0.00    -0.015 C 
ATOM     12  C   UNL     1       0.610  -6.245  -0.159  0.00  0.00    -0.002 C 
ATOM     13  C   UNL     1       1.438  -6.574  -1.403  0.00  0.00    -0.000 C 
ATOM     14  C   UNL     1       1.361  -5.407  -2.390  0.00  0.00    -0.002 C 
ATOM     15  C   UNL     1       1.913  -4.143  -1.729  0.00  0.00    -0.015 C 
ENDBRANCH   8  10
BRANCH   8  16
ATOM     16  C   UNL     1       1.095  -2.495   1.519  0.00  0.00    -0.049 C 
BRANCH  16  17
ATOM     17  C   UNL     1       2.170  -2.949   2.508  0.00  0.00    +0.137 C 
BRANCH  17  18
ATOM     18  O   UNL     1       3.255  -2.018   2.492  0.00  0.00    -0.397 OA
ATOM     19  H   UNL     1       3.975  -2.243   3.097  0.00  0.00    +0.209 HD
ENDBRANCH  17  18
ENDBRANCH  16  17
ENDBRANCH   8  16
ENDBRANCH   1   8
BRANCH   1  20
ATOM     20  C   UNL     1      -0.199  -0.987  -0.177  0.00  0.00    +0.042 C 
BRANCH  20  21
ATOM     21  N   UNL     1      -0.682   0.087  -1.055  0.00  0.00    -0.328 NA
ATOM     22  H   UNL     1      -0.104   0.910  -0.970  0.00  0.00    +0.118 HD
ATOM     23  H   UNL     1      -0.731  -0.223  -2.014  0.00  0.00    +0.118 HD
ENDBRANCH  20  21
BRANCH  20  25
ATOM     24  C   UNL     1      -2.508  -1.791   0.338  0.00  0.00    +0.005 C 
ATOM     25  C   UNL     1      -1.155  -2.180  -0.259  0.00  0.00    +0.014 C 
ENDBRANCH  20  25
ENDBRANCH   1  20
TORSDOF 9
