REMARK  Name = ZINC17192595
REMARK  7 active torsions:
REMARK  status: ('A' for Active; 'I' for Inactive)
REMARK    1  A    between atoms: C_4  and  N_7
REMARK    2  A    between atoms: C_8  and  C_25
REMARK    3  A    between atoms: C_11  and  S_12
REMARK    4  A    between atoms: S_12  and  C_13
REMARK    5  A    between atoms: C_13  and  C_14
REMARK    6  A    between atoms: N_16  and  C_17
REMARK    7  A    between atoms: C_25  and  C_26
REMARK                            x       y       z     vdW  Elec       q    Type
REMARK                         _______ _______ _______ _____ _____    ______ ____
ROOT
ATOM      1  N   UNL     1       0.042   1.115   4.089  0.00  0.00    -0.274 N 
ATOM      2  C   UNL     1       1.080   0.413   4.642  0.00  0.00    +0.144 A 
ATOM      3  N   UNL     1       1.783  -0.076   3.660  0.00  0.00    -0.133 NA
ATOM      4  N   UNL     1       1.264   0.259   2.534  0.00  0.00    -0.122 NA
ATOM      5  C   UNL     1       0.196   0.996   2.735  0.00  0.00    +0.197 A 
ENDROOT
BRANCH   1   9
ATOM      6  C   UNL     1      -2.962   3.181   6.112  0.00  0.00    +0.000 A 
ATOM      7  C   UNL     1      -3.281   2.077   5.343  0.00  0.00    +0.002 A 
ATOM      8  C   UNL     1      -2.288   1.391   4.672  0.00  0.00    +0.026 A 
ATOM      9  C   UNL     1      -0.969   1.810   4.770  0.00  0.00    +0.050 A 
ATOM     10  C   UNL     1      -0.650   2.916   5.546  0.00  0.00    +0.026 A 
ATOM     11  C   UNL     1      -1.648   3.601   6.211  0.00  0.00    +0.002 A 
ENDBRANCH   1   9
BRANCH   5  12
ATOM     12  S   UNL     1      -0.846   1.693   1.497  0.00  0.00    -0.076 S 
BRANCH  12  13
ATOM     13  C   UNL     1      -0.002   1.103   0.008  0.00  0.00    +0.173 C 
BRANCH  13  14
ATOM     14  C   UNL     1      -0.738   1.591  -1.213  0.00  0.00    +0.228 C 
ATOM     15  O   UNL     1      -1.734   2.272  -1.089  0.00  0.00    -0.275 OA
ATOM     16  N   UNL     1      -0.288   1.272  -2.443  0.00  0.00    -0.283 N 
ATOM     17  H   UNL     1       0.543   0.783  -2.544  0.00  0.00    +0.155 HD
BRANCH  16  18
ATOM     18  C   UNL     1      -1.023   1.647  -3.576  0.00  0.00    +0.069 A 
ATOM     19  C   UNL     1      -1.723   2.845  -3.586  0.00  0.00    +0.029 A 
ATOM     20  C   UNL     1      -2.446   3.213  -4.704  0.00  0.00    +0.040 A 
ATOM     21  C   UNL     1      -2.473   2.388  -5.816  0.00  0.00    +0.126 A 
ATOM     22  C   UNL     1      -1.775   1.192  -5.811  0.00  0.00    +0.078 A 
ATOM     23  C   UNL     1      -1.046   0.822  -4.695  0.00  0.00    +0.147 A 
ATOM     24  F   UNL     1      -0.361  -0.343  -4.691  0.00  0.00    -0.203 F 
ATOM     25  F   UNL     1      -3.180   2.751  -6.908  0.00  0.00    -0.205 F 
ENDBRANCH  16  18
ENDBRANCH  13  14
ENDBRANCH  12  13
ENDBRANCH   5  12
BRANCH   2  26
ATOM     26  C   UNL     1       1.358   0.240   6.113  0.00  0.00    +0.130 C 
BRANCH  26  27
ATOM     27  C   UNL     1       0.650  -0.992   6.617  0.00  0.00    +0.033 A 
ATOM     28  C   UNL     1       1.305  -2.170   6.684  0.00  0.00    +0.091 A 
ATOM     29  C   UNL     1       0.619  -3.313   7.160  0.00  0.00    +0.254 A 
ATOM     30  O   UNL     1       1.188  -4.387   7.230  0.00  0.00    -0.268 OA
ATOM     31  N   UNL     1      -0.671  -3.201   7.536  0.00  0.00    -0.275 N 
ATOM     32  H   UNL     1      -1.163  -4.004   7.873  0.00  0.00    +0.173 HD
ATOM     33  C   UNL     1      -1.300  -2.014   7.458  0.00  0.00    +0.327 A 
ATOM     34  O   UNL     1      -2.464  -1.928   7.801  0.00  0.00    -0.247 OA
ATOM     35  N   UNL     1      -0.657  -0.919   7.013  0.00  0.00    -0.311 N 
ATOM     36  H   UNL     1      -1.140  -0.044   6.971  0.00  0.00    +0.170 HD
ENDBRANCH  26  27
ENDBRANCH   2  26
TORSDOF 7
