REMARK  Name = ZINC37819227
REMARK  6 active torsions:
REMARK  status: ('A' for Active; 'I' for Inactive)
REMARK    1  A    between atoms: C_1  and  N_2
REMARK    2  A    between atoms: N_2  and  C_3
REMARK    3  A    between atoms: N_2  and  C_4
REMARK    4  A    between atoms: C_4  and  C_5
REMARK    5  A    between atoms: C_13  and  C_15
REMARK    6  A    between atoms: C_18  and  O_22
REMARK                            x       y       z     vdW  Elec       q    Type
REMARK                         _______ _______ _______ _____ _____    ______ ____
ROOT
ATOM      1  C   UNL     1      -2.067  -0.116  -1.267  0.00  0.00    +0.199 C 
ATOM      2  O   UNL     1      -1.471   0.527  -2.104  0.00  0.00    -0.278 OA
ATOM      3  N   UNL     1      -3.349  -0.476  -1.480  0.00  0.00    -0.300 N 
ATOM      4  C   UNL     1      -4.086  -1.250  -0.471  0.00  0.00    +0.126 C 
ATOM      5  C   UNL     1      -5.370  -0.491  -0.114  0.00  0.00    +0.126 C 
ATOM      6  N   UNL     1      -6.056  -0.117  -1.359  0.00  0.00    -0.300 N 
ATOM      7  C   UNL     1      -5.319   0.657  -2.368  0.00  0.00    +0.126 C 
ATOM      8  C   UNL     1      -4.036  -0.096  -2.722  0.00  0.00    +0.126 C 
ATOM      9  C   UNL     1      -7.337  -0.476  -1.572  0.00  0.00    +0.202 C 
ATOM     10  O   UNL     1      -7.935  -1.115  -0.732  0.00  0.00    -0.277 OA
ENDROOT
BRANCH   9  11
ATOM     11  C   UNL     1      -8.027  -0.085  -2.853  0.00  0.00    +0.019 C 
ATOM     12  C   UNL     1      -8.506   1.379  -2.765  0.00  0.00    +0.023 C 
ATOM     13  C   UNL     1      -9.877   1.342  -3.490  0.00  0.00    +0.097 C 
ATOM     14  C   UNL     1     -10.414  -0.051  -3.074  0.00  0.00    -0.050 C 
ATOM     15  N   UNL     1      -9.219  -0.927  -3.059  0.00  0.00    +0.388 N 
ATOM     16  H   UNL     1      -9.142  -1.416  -3.938  0.00  0.00    -0.085 HD
ATOM     17  H   UNL     1      -9.297  -1.595  -2.307  0.00  0.00    -0.085 HD
BRANCH  13  18
ATOM     18  O   UNL     1     -10.735   2.383  -3.018  0.00  0.00    -0.394 OA
ATOM     19  H   UNL     1     -11.603   2.400  -3.443  0.00  0.00    +0.210 HD
ENDBRANCH  13  18
ENDBRANCH   9  11
BRANCH   1  20
ATOM     20  C   UNL     1      -1.376  -0.512   0.012  0.00  0.00    +0.018 C 
BRANCH  20  22
ATOM     21  C   UNL     1      -0.018   1.465   0.010  0.00  0.00    -0.096 C 
ATOM     22  N   UNL     1       0.002  -0.004   0.002  0.00  0.00    +0.382 N 
ATOM     23  C   UNL     1       0.713  -0.491   1.192  0.00  0.00    -0.096 C 
ATOM     24  H   UNL     1       0.474  -0.330  -0.828  0.00  0.00    -0.082 HD
ENDBRANCH  20  22
ENDBRANCH   1  20
TORSDOF 4
