REMARK  Name = ZINC45313758
REMARK  10 active torsions:
REMARK  status: ('A' for Active; 'I' for Inactive)
REMARK    1  A    between atoms: C_1  and  C_2
REMARK    2  A    between atoms: C_7  and  N_8
REMARK    3  A    between atoms: C_9  and  C_11
REMARK    4  A    between atoms: C_11  and  N_12
REMARK    5  A    between atoms: N_12  and  C_13
REMARK    6  A    between atoms: N_12  and  C_14
REMARK    7  A    between atoms: C_14  and  C_16
REMARK    8  A    between atoms: C_14  and  C_17
REMARK    9  A    between atoms: N_19  and  C_20
REMARK   10  A    between atoms: C_23  and  C_26
REMARK                            x       y       z     vdW  Elec       q    Type
REMARK                         _______ _______ _______ _____ _____    ______ ____
ROOT
ATOM      1  C   UNL     1      -0.378  -0.134   7.248  0.00  0.00    +0.017 C 
ATOM      2  C   UNL     1      -0.237  -1.527   7.865  0.00  0.00    -0.004 C 
ENDROOT
BRANCH   1   3
ATOM      3  C   UNL     1       0.889   0.649   7.482  0.00  0.00    +0.203 C 
ATOM      4  O   UNL     1       1.732   0.712   6.613  0.00  0.00    -0.277 OA
ATOM      5  N   UNL     1       1.085   1.278   8.658  0.00  0.00    -0.287 N 
ATOM      6  H   UNL     1       0.447   1.167   9.380  0.00  0.00    +0.155 HD
BRANCH   5   7
ATOM      7  C   UNL     1       2.204   2.090   8.836  0.00  0.00    +0.033 A 
ATOM      8  C   UNL     1       2.724   2.802   7.759  0.00  0.00    +0.024 A 
ATOM      9  C   UNL     1       3.829   3.604   7.932  0.00  0.00    +0.015 A 
ATOM     10  C   UNL     1       4.429   3.703   9.190  0.00  0.00    +0.037 A 
ATOM     11  C   UNL     1       3.905   2.987  10.269  0.00  0.00    +0.015 A 
ATOM     12  C   UNL     1       2.796   2.190  10.091  0.00  0.00    +0.024 A 
BRANCH  10  13
ATOM     13  C   UNL     1       5.615   4.562   9.378  0.00  0.00    +0.242 C 
ATOM     14  O   UNL     1       6.070   5.184   8.438  0.00  0.00    -0.270 OA
ATOM     15  N   UNL     1       6.192   4.657  10.592  0.00  0.00    -0.325 N 
ATOM     16  H   UNL     1       5.829   4.160  11.342  0.00  0.00    +0.145 HD
ATOM     17  H   UNL     1       6.971   5.221  10.716  0.00  0.00    +0.145 HD
ENDBRANCH  10  13
ENDBRANCH   5   7
ENDBRANCH   1   3
BRANCH   1  18
ATOM     18  N   UNL     1      -0.616  -0.259   5.804  0.00  0.00    +0.391 N 
ATOM     19  C   UNL     1      -1.783  -1.121   5.574  0.00  0.00    -0.094 C 
ATOM     20  H   UNL     1       0.195  -0.667   5.363  0.00  0.00    -0.080 HD
BRANCH  18  21
ATOM     21  C   UNL     1      -0.869   1.070   5.232  0.00  0.00    +0.020 C 
BRANCH  21  23
ATOM     22  N   UNL     1      -1.192   2.063   2.990  0.00  0.00    -0.287 N 
ATOM     23  C   UNL     1      -0.963   0.962   3.732  0.00  0.00    +0.201 C 
ATOM     24  O   UNL     1      -0.833  -0.117   3.193  0.00  0.00    -0.278 OA
ATOM     25  H   UNL     1      -1.239   2.934   3.416  0.00  0.00    +0.155 HD
BRANCH  22  32
ATOM     26  C   UNL     1      -2.873   3.954   1.687  0.00  0.00    +0.046 C 
ATOM     27  C   UNL     1      -2.174   2.853   0.930  0.00  0.00    -0.028 A 
ATOM     28  C   UNL     1      -2.336   2.744  -0.437  0.00  0.00    +0.020 A 
ATOM     29  C   UNL     1      -1.696   1.734  -1.133  0.00  0.00    +0.018 A 
ATOM     30  C   UNL     1      -0.892   0.830  -0.461  0.00  0.00    +0.017 A 
ATOM     31  C   UNL     1      -0.726   0.935   0.906  0.00  0.00    +0.024 A 
ATOM     32  C   UNL     1      -1.363   1.952   1.606  0.00  0.00    +0.036 A 
ATOM     33 BR   UNL     1      -1.921   1.588  -3.005  0.00  0.00    -0.050 Br
ENDBRANCH  22  32
ENDBRANCH  21  23
ENDBRANCH  18  21
ENDBRANCH   1  18
TORSDOF 7
