REMARK  Name = ZINC07479487
REMARK  2 active torsions:
REMARK  status: ('A' for Active; 'I' for Inactive)
REMARK    1  A    between atoms: N_13  and  C_14
REMARK    2  A    between atoms: C_14  and  C_15
REMARK                            x       y       z     vdW  Elec       q    Type
REMARK                         _______ _______ _______ _____ _____    ______ ____
ROOT
ATOM      1  C   UNL     1      -0.017   1.353   0.012  0.00  0.00    +0.203 A 
ATOM      2  N   UNL     1       1.090   2.046   0.005  0.00  0.00    -0.230 NA
ATOM      3  C   UNL     1       2.275   1.440  -0.012  0.00  0.00    +0.116 A 
ATOM      4  C   UNL     1       2.394   0.044  -0.024  0.00  0.00    +0.076 A 
ATOM      5  C   UNL     1       3.765  -0.487  -0.042  0.00  0.00    -0.023 A 
ATOM      6  C   UNL     1       4.765   0.411  -0.043  0.00  0.00    -0.004 A 
ATOM      7  S   UNL     1       3.959   1.996  -0.026  0.00  0.00    -0.073 S 
ATOM      8  C   UNL     1       6.119  -0.246  -0.057  0.00  0.00    +0.043 C 
ATOM      9  C   UNL     1       5.846  -1.705   0.371  0.00  0.00    +0.010 C 
ATOM     10  C   UNL     1       4.379  -1.890  -0.064  0.00  0.00    +0.037 C 
ATOM     11  C   UNL     1       1.163  -0.688  -0.016  0.00  0.00    +0.263 A 
ATOM     12  O   UNL     1       1.166  -1.907  -0.024  0.00  0.00    -0.267 OA
ATOM     13  N   UNL     1       0.003  -0.005   0.002  0.00  0.00    -0.290 N 
ENDROOT
BRANCH  13  14
ATOM     14  C   UNL     1      -1.264  -0.741   0.010  0.00  0.00    +0.222 C 
BRANCH  14  15
ATOM     15  C   UNL     1      -1.713  -0.984  -1.408  0.00  0.00    +0.235 C 
ATOM     16  O   UNL     1      -1.091  -0.504  -2.332  0.00  0.00    -0.274 OA
ATOM     17  N   UNL     1      -2.807  -1.733  -1.649  0.00  0.00    -0.300 N 
ATOM     18  C   UNL     1      -3.185  -2.073  -3.028  0.00  0.00    +0.108 C 
ATOM     19  C   UNL     1      -2.149  -3.028  -3.607  0.00  0.00    +0.019 C 
ATOM     20  C   UNL     1      -2.320  -4.412  -2.959  0.00  0.00    +0.002 C 
ATOM     21  C   UNL     1      -1.704  -4.400  -1.565  0.00  0.00    +0.000 C 
ATOM     22  C   UNL     1      -2.790  -4.570  -0.487  0.00  0.00    +0.002 C 
ATOM     23  C   UNL     1      -3.989  -3.680  -0.818  0.00  0.00    +0.019 C 
ATOM     24  C   UNL     1      -3.622  -2.219  -0.548  0.00  0.00    +0.108 C 
ENDBRANCH  14  15
ENDBRANCH  13  14
TORSDOF 2
