REMARK  Name = ZINC63637465
REMARK  10 active torsions:
REMARK  status: ('A' for Active; 'I' for Inactive)
REMARK    1  A    between atoms: C_1  and  C_2
REMARK    2  A    between atoms: C_3  and  C_10
REMARK    3  A    between atoms: C_4  and  C_8
REMARK    4  A    between atoms: C_4  and  C_9
REMARK    5  A    between atoms: C_11  and  C_12
REMARK    6  A    between atoms: C_12  and  C_14
REMARK    7  A    between atoms: C_12  and  C_15
REMARK    8  A    between atoms: N_16  and  N_17
REMARK    9  A    between atoms: C_18  and  C_20
REMARK   10  A    between atoms: C_22  and  C_31
REMARK                            x       y       z     vdW  Elec       q    Type
REMARK                         _______ _______ _______ _____ _____    ______ ____
ROOT
ATOM      1  N   UNL     1      -6.043   0.025   3.636  0.00  0.00    -0.205 N 
ATOM      2  C   UNL     1      -6.455   0.914   4.561  0.00  0.00    +0.259 C 
ATOM      3  O   UNL     1      -6.448   2.100   4.308  0.00  0.00    -0.271 OA
ATOM      4  H   UNL     1      -6.111  -0.926   3.814  0.00  0.00    +0.177 HD
ENDROOT
BRANCH   2   5
ATOM      5  C   UNL     1      -6.926   0.435   5.910  0.00  0.00    +0.199 C 
ATOM      6  C   UNL     1      -8.390   0.060   5.848  0.00  0.00    -0.000 C 
ATOM      7  C   UNL     1      -9.030   0.896   6.747  0.00  0.00    +0.006 A 
ATOM      8  C   UNL     1     -10.386   1.028   7.132  0.00  0.00    +0.030 A 
ATOM      9  C   UNL     1     -10.734   1.955   8.058  0.00  0.00    +0.042 A 
ATOM     10  C   UNL     1      -9.783   2.795   8.651  0.00  0.00    +0.022 A 
ATOM     11  C   UNL     1      -8.470   2.726   8.332  0.00  0.00    +0.027 A 
ATOM     12  C   UNL     1      -8.025   1.779   7.369  0.00  0.00    +0.044 A 
ATOM     13  N   UNL     1      -6.826   1.517   6.894  0.00  0.00    -0.370 N 
ATOM     14 CL   UNL     1     -12.401   2.106   8.520  0.00  0.00    -0.084 Cl
ATOM     15  H   UNL     1      -6.007   1.968   7.153  0.00  0.00    +0.161 HD
BRANCH   6  16
ATOM     16  C   UNL     1      -9.004  -0.973   5.010  0.00  0.00    -0.019 A 
ATOM     17  C   UNL     1     -10.264  -0.757   4.434  0.00  0.00    +0.008 A 
ATOM     18  C   UNL     1     -10.833  -1.735   3.647  0.00  0.00    +0.001 A 
ATOM     19  C   UNL     1     -10.164  -2.927   3.425  0.00  0.00    +0.000 A 
ATOM     20  C   UNL     1      -8.919  -3.149   3.990  0.00  0.00    +0.001 A 
ATOM     21  C   UNL     1      -8.332  -2.182   4.775  0.00  0.00    +0.008 A 
ENDBRANCH   6  16
ENDBRANCH   2   5
BRANCH   1  23
ATOM     22  C   UNL     1      -5.124  -0.370   1.540  0.00  0.00    +0.110 C 
ATOM     23  N   UNL     1      -5.516   0.474   2.419  0.00  0.00    -0.192 NA
BRANCH  22  24
ATOM     24  C   UNL     1      -4.556   0.113   0.231  0.00  0.00    +0.051 C 
ATOM     25  C   UNL     1      -5.411  -0.417  -0.922  0.00  0.00    +0.018 C 
BRANCH  24  27
ATOM     26  C   UNL     1      -2.142   0.477  -0.046  0.00  0.00    +0.000 C 
ATOM     27  C   UNL     1      -3.143  -0.388   0.080  0.00  0.00    -0.018 C 
BRANCH  26  30
ATOM     28  C   UNL     1      -1.295  -1.009   2.065  0.00  0.00    +0.039 C 
ATOM     29  C   UNL     1      -0.327  -0.722   0.946  0.00  0.00    -0.069 C 
ATOM     30  C   UNL     1      -0.752  -0.006  -0.071  0.00  0.00    -0.043 C 
ATOM     31  C   UNL     1       0.098   0.348  -1.257  0.00  0.00    -0.010 C 
ATOM     32  C   UNL     1       1.577   0.143  -0.924  0.00  0.00    +0.011 C 
ATOM     33  C   UNL     1       1.750  -1.252  -0.311  0.00  0.00    +0.005 C 
ATOM     34  C   UNL     1       1.067  -1.265   1.060  0.00  0.00    +0.031 C 
ATOM     35  C   UNL     1      -0.285  -0.544  -2.439  0.00  0.00    +0.016 C 
ATOM     36  C   UNL     1      -0.140   1.812  -1.632  0.00  0.00    +0.016 C 
ENDBRANCH  26  30
ENDBRANCH  24  27
ENDBRANCH  22  24
ENDBRANCH   1  23
TORSDOF 6
