REMARK  Name = ZINC44533795
REMARK  8 active torsions:
REMARK  status: ('A' for Active; 'I' for Inactive)
REMARK    1  A    between atoms: C_1  and  C_2
REMARK    2  A    between atoms: C_2  and  C_3
REMARK    3  A    between atoms: C_6  and  N_22
REMARK    4  A    between atoms: C_8  and  S_9
REMARK    5  A    between atoms: S_9  and  N_12
REMARK    6  A    between atoms: N_12  and  C_13
REMARK    7  A    between atoms: C_13  and  C_14
REMARK    8  A    between atoms: N_19  and  C_21
REMARK                            x       y       z     vdW  Elec       q    Type
REMARK                         _______ _______ _______ _____ _____    ______ ____
ROOT
ATOM      1  S   UNL     1       2.744  -0.208   0.278  0.00  0.00    +0.059 S 
ATOM      2  O   UNL     1       2.036  -0.863   1.321  0.00  0.00    -0.153 OA
ATOM      3  O   UNL     1       4.153  -0.312   0.130  0.00  0.00    -0.153 OA
ENDROOT
BRANCH   1   9
ATOM      4  C   UNL     1       2.496  -0.263  -2.440  0.00  0.00    -0.021 A 
ATOM      5  C   UNL     1       1.947  -0.702  -3.631  0.00  0.00    +0.007 A 
ATOM      6  C   UNL     1       0.935  -1.640  -3.623  0.00  0.00    +0.023 A 
ATOM      7  C   UNL     1       0.467  -2.144  -2.415  0.00  0.00    +0.026 A 
ATOM      8  C   UNL     1       1.020  -1.701  -1.221  0.00  0.00    +0.051 A 
ATOM      9  C   UNL     1       2.036  -0.766  -1.237  0.00  0.00    +0.110 A 
BRANCH   7  10
ATOM     10  N   UNL     1      -0.558  -3.093  -2.403  0.00  0.00    -0.358 N 
ATOM     11  H   UNL     1      -0.943  -3.401  -3.238  0.00  0.00    +0.142 HD
ATOM     12  H   UNL     1      -0.884  -3.444  -1.559  0.00  0.00    +0.142 HD
ENDBRANCH   7  10
BRANCH   4  14
ATOM     13  C   UNL     1       4.954   0.052  -2.528  0.00  0.00    +0.009 C 
ATOM     14  C   UNL     1       3.601   0.762  -2.454  0.00  0.00    +0.034 C 
ENDBRANCH   4  14
ENDBRANCH   1   9
BRANCH   1  15
ATOM     15  N   UNL     1       2.400   1.406   0.413  0.00  0.00    -0.190 NA
ATOM     16  H   UNL     1       3.119   2.058   0.399  0.00  0.00    +0.148 HD
BRANCH  15  17
ATOM     17  C   UNL     1       1.011   1.850   0.555  0.00  0.00    +0.107 C 
BRANCH  17  18
ATOM     18  C   UNL     1       0.986   3.289   1.073  0.00  0.00    -0.012 C 
ATOM     19  C   UNL     1       1.602   4.221   0.025  0.00  0.00    +0.001 C 
ATOM     20  C   UNL     1       1.501   5.667   0.520  0.00  0.00    -0.018 C 
ATOM     21  C   UNL     1       0.035   6.002   0.804  0.00  0.00    -0.079 C 
ATOM     22  N   UNL     1      -0.487   5.094   1.832  0.00  0.00    +0.378 N 
ATOM     23  C   UNL     1      -0.460   3.712   1.338  0.00  0.00    -0.074 C 
ATOM     24  C   UNL     1      -1.870   5.469   2.157  0.00  0.00    -0.096 C 
ATOM     25  H   UNL     1       0.082   5.164   2.662  0.00  0.00    -0.082 HD
ENDBRANCH  17  18
ENDBRANCH  15  17
ENDBRANCH   1  15
TORSDOF 6
