REMARK  Name = ZINC26603083
REMARK  5 active torsions:
REMARK  status: ('A' for Active; 'I' for Inactive)
REMARK    1  A    between atoms: C_1  and  N_2
REMARK    2  A    between atoms: C_6  and  C_8
REMARK    3  A    between atoms: C_8  and  N_9
REMARK    4  A    between atoms: C_13  and  C_15
REMARK    5  A    between atoms: N_17  and  C_18
REMARK                            x       y       z     vdW  Elec       q    Type
REMARK                         _______ _______ _______ _____ _____    ______ ____
ROOT
ATOM      1  N   UNL     1       1.569  -4.918  -3.540  0.00  0.00    +0.393 N 
ATOM      2  C   UNL     1       0.874  -5.120  -4.829  0.00  0.00    -0.077 C 
ATOM      3  C   UNL     1       1.651  -6.268  -5.522  0.00  0.00    -0.020 C 
ATOM      4  C   UNL     1       2.005  -7.179  -4.317  0.00  0.00    -0.008 C 
ATOM      5  C   UNL     1       2.266  -6.168  -3.181  0.00  0.00    +0.020 C 
ATOM      6  H   UNL     1       2.300  -4.102  -3.635  0.00  0.00    -0.080 HD
ENDROOT
BRANCH   5   7
ATOM      7  C   UNL     1       1.720  -6.703  -1.883  0.00  0.00    +0.204 C 
ATOM      8  O   UNL     1       0.523  -6.815  -1.728  0.00  0.00    -0.277 OA
ATOM      9  N   UNL     1       2.564  -7.059  -0.893  0.00  0.00    -0.286 N 
ATOM     10  H   UNL     1       3.642  -6.868  -0.995  0.00  0.00    +0.155 HD
BRANCH   9  11
ATOM     11  C   UNL     1       2.067  -7.672   0.263  0.00  0.00    +0.053 A 
ATOM     12  C   UNL     1       0.834  -8.309   0.238  0.00  0.00    +0.044 A 
ATOM     13  C   UNL     1       0.346  -8.912   1.382  0.00  0.00    +0.043 A 
ATOM     14  C   UNL     1       1.086  -8.882   2.551  0.00  0.00    +0.021 A 
ATOM     15  C   UNL     1       2.314  -8.249   2.579  0.00  0.00    +0.023 A 
ATOM     16  C   UNL     1       2.810  -7.648   1.437  0.00  0.00    +0.062 A 
ATOM     17 CL   UNL     1       4.356  -6.859   1.471  0.00  0.00    -0.082 Cl
ATOM     18 CL   UNL     1      -1.196  -9.709   1.352  0.00  0.00    -0.083 Cl
ENDBRANCH   9  11
ENDBRANCH   5   7
BRANCH   1  19
ATOM     19  C   UNL     1       0.624  -4.522  -2.489  0.00  0.00    +0.020 C 
BRANCH  19  25
ATOM     20  C   UNL     1      -2.217   0.785  -1.330  0.00  0.00    +0.129 C 
ATOM     21  N   UNL     1      -1.840  -0.619  -1.144  0.00  0.00    -0.302 N 
ATOM     22  C   UNL     1      -0.976  -1.203  -1.998  0.00  0.00    +0.306 C 
ATOM     23  O   UNL     1      -0.509  -0.566  -2.921  0.00  0.00    -0.252 OA
ATOM     24  N   UNL     1      -0.629  -2.494  -1.827  0.00  0.00    -0.242 N 
ATOM     25  C   UNL     1       0.236  -3.078  -2.680  0.00  0.00    +0.204 C 
ATOM     26  O   UNL     1       0.701  -2.443  -3.601  0.00  0.00    -0.277 OA
ATOM     27  H   UNL     1      -2.262  -1.196  -0.308  0.00  0.00    +0.150 HD
ATOM     28  H   UNL     1      -1.051  -3.071  -0.991  0.00  0.00    +0.159 HD
ENDBRANCH  19  25
ENDBRANCH   1  19
TORSDOF 4
