REMARK  Name = ZINC33250798
REMARK  8 active torsions:
REMARK  status: ('A' for Active; 'I' for Inactive)
REMARK    1  A    between atoms: C_1  and  C_2
REMARK    2  A    between atoms: C_5  and  C_36
REMARK    3  A    between atoms: C_6  and  C_8
REMARK    4  A    between atoms: C_9  and  C_10
REMARK    5  A    between atoms: C_11  and  S_16
REMARK    6  A    between atoms: C_12  and  C_15
REMARK    7  A    between atoms: S_16  and  N_19
REMARK    8  A    between atoms: C_23  and  C_26
REMARK                            x       y       z     vdW  Elec       q    Type
REMARK                         _______ _______ _______ _____ _____    ______ ____
ROOT
ATOM      1  S   UNL     1      -2.660  -3.677  -0.023  0.00  0.00    +0.066 S 
ATOM      2  O   UNL     1      -3.249  -4.844  -0.581  0.00  0.00    -0.153 OA
ATOM      3  O   UNL     1      -1.503  -3.068  -0.578  0.00  0.00    -0.153 OA
ENDROOT
BRANCH   1   5
ATOM      4  C   UNL     1      -3.763  -1.076   0.013  0.00  0.00    +0.187 A 
ATOM      5  C   UNL     1      -3.917  -2.442   0.001  0.00  0.00    +0.174 A 
ATOM      6  C   UNL     1      -5.313  -2.623   0.015  0.00  0.00    +0.107 A 
ATOM      7  N   UNL     1      -5.845  -1.433   0.025  0.00  0.00    -0.081 NA
ATOM      8  O   UNL     1      -5.007  -0.562   0.024  0.00  0.00    -0.353 OA
ATOM      9  C   UNL     1      -6.050  -3.938   0.013  0.00  0.00    +0.071 C 
BRANCH   4  11
ATOM     10  C   UNL     1      -2.513   1.015   0.018  0.00  0.00    +0.012 C 
ATOM     11  C   UNL     1      -2.500  -0.331   0.009  0.00  0.00    +0.051 C 
BRANCH  10  17
ATOM     12  C   UNL     1       2.473   1.052  -0.028  0.00  0.00    +0.044 C 
ATOM     13  C   UNL     1       1.158   1.787  -0.008  0.00  0.00    -0.050 A 
ATOM     14  C   UNL     1       1.141   3.171   0.000  0.00  0.00    +0.003 A 
ATOM     15  C   UNL     1      -0.062   3.855   0.018  0.00  0.00    +0.004 A 
ATOM     16  C   UNL     1      -1.254   3.161   0.028  0.00  0.00    -0.043 A 
ATOM     17  C   UNL     1      -1.245   1.764   0.013  0.00  0.00    -0.022 A 
ATOM     18  C   UNL     1      -0.025   1.079   0.001  0.00  0.00    +0.011 A 
ATOM     19  C   UNL     1      -2.563   3.908   0.047  0.00  0.00    +0.044 C 
ENDBRANCH  10  17
ENDBRANCH   4  11
ENDBRANCH   1   5
BRANCH   1  20
ATOM     20  N   UNL     1      -2.297  -4.036   1.552  0.00  0.00    -0.176 NA
ATOM     21  C   UNL     1      -1.242  -3.301   2.263  0.00  0.00    +0.109 C 
ATOM     22  C   UNL     1      -1.829  -2.745   3.569  0.00  0.00    +0.018 C 
ATOM     23  C   UNL     1      -2.448  -3.891   4.373  0.00  0.00    +0.015 C 
ATOM     24  C   UNL     1      -3.583  -4.527   3.567  0.00  0.00    +0.091 C 
ATOM     25  C   UNL     1      -3.019  -5.100   2.263  0.00  0.00    +0.122 C 
BRANCH  24  26
ATOM     26  C   UNL     1      -4.212  -5.634   4.372  0.00  0.00    +0.223 C 
ATOM     27  O   UNL     1      -4.210  -6.770   3.947  0.00  0.00    -0.275 OA
ATOM     28  N   UNL     1      -4.777  -5.362   5.566  0.00  0.00    -0.270 N 
ATOM     29  C   UNL     1      -5.452  -6.365   6.262  0.00  0.00    +0.125 A 
ATOM     30  C   UNL     1      -6.122  -6.053   7.439  0.00  0.00    +0.045 A 
ATOM     31  C   UNL     1      -6.792  -7.055   8.118  0.00  0.00    +0.025 A 
ATOM     32  C   UNL     1      -6.759  -8.343   7.599  0.00  0.00    +0.059 A 
ATOM     33  C   UNL     1      -6.068  -8.582   6.426  0.00  0.00    +0.132 A 
ATOM     34  N   UNL     1      -5.443  -7.604   5.799  0.00  0.00    -0.239 NA
ATOM     35 CL   UNL     1      -7.578  -9.639   8.414  0.00  0.00    -0.082 Cl
ATOM     36  H   UNL     1      -4.705  -4.350   5.990  0.00  0.00    +0.156 HD
ENDBRANCH  24  26
ENDBRANCH   1  20
TORSDOF 5
