REMARK  Name = ZINC28444059
REMARK  7 active torsions:
REMARK  status: ('A' for Active; 'I' for Inactive)
REMARK    1  A    between atoms: C_6  and  C_7
REMARK    2  A    between atoms: C_15  and  S_27
REMARK    3  A    between atoms: C_19  and  S_22
REMARK    4  A    between atoms: S_22  and  C_23
REMARK    5  A    between atoms: C_23  and  C_24
REMARK    6  A    between atoms: S_27  and  C_28
REMARK    7  A    between atoms: C_28  and  C_29
REMARK                            x       y       z     vdW  Elec       q    Type
REMARK                         _______ _______ _______ _____ _____    ______ ____
ROOT
ATOM      1  C   UNL     1       5.879   4.663  -0.029  0.00  0.00    +0.002 A 
ATOM      2  C   UNL     1       6.470   5.884  -0.029  0.00  0.00    +0.056 A 
ATOM      3  S   UNL     1       5.083   7.003  -0.009  0.00  0.00    -0.078 S 
ATOM      4  C   UNL     1       3.767   5.812  -0.003  0.00  0.00    +0.101 A 
ATOM      5  C   UNL     1       4.423   4.589  -0.015  0.00  0.00    +0.059 A 
ATOM      6  C   UNL     1       3.552   3.385  -0.014  0.00  0.00    +0.175 A 
ATOM      7  N   UNL     1       3.808   2.100  -0.023  0.00  0.00    -0.128 NA
ATOM      8  N   UNL     1       2.705   1.437  -0.010  0.00  0.00    -0.122 NA
ATOM      9  C   UNL     1       1.681   2.259  -0.002  0.00  0.00    +0.199 A 
ATOM     10  N   UNL     1       2.187   3.531   0.000  0.00  0.00    -0.237 N 
ATOM     11  C   UNL     1       1.605   4.788   0.013  0.00  0.00    +0.245 A 
ATOM     12  N   UNL     1       2.394   5.911   0.011  0.00  0.00    -0.249 N 
ATOM     13  C   UNL     1       1.527   6.971   0.025  0.00  0.00    +0.198 A 
ATOM     14  N   UNL     1       0.313   6.477   0.035  0.00  0.00    -0.120 NA
ATOM     15  N   UNL     1       0.359   5.192   0.028  0.00  0.00    -0.109 NA
ENDROOT
BRANCH   1  21
ATOM     16  C   UNL     1       6.452   2.414   0.881  0.00  0.00    +0.010 A 
ATOM     17  C   UNL     1       7.213   1.264   0.861  0.00  0.00    +0.020 A 
ATOM     18  C   UNL     1       8.228   1.119  -0.070  0.00  0.00    +0.041 A 
ATOM     19  C   UNL     1       8.481   2.125  -0.987  0.00  0.00    +0.020 A 
ATOM     20  C   UNL     1       7.722   3.277  -0.978  0.00  0.00    +0.010 A 
ATOM     21  C   UNL     1       6.698   3.427  -0.044  0.00  0.00    -0.017 A 
ATOM     22 CL   UNL     1       9.188  -0.327  -0.086  0.00  0.00    -0.084 Cl
ENDBRANCH   1  21
BRANCH  13  23
ATOM     23  S   UNL     1       1.962   8.679   0.030  0.00  0.00    -0.076 S 
BRANCH  23  24
ATOM     24  C   UNL     1       0.365   9.539   0.050  0.00  0.00    +0.172 C 
BRANCH  24  25
ATOM     25  C   UNL     1       0.597  11.028   0.055  0.00  0.00    +0.221 C 
ATOM     26  O   UNL     1       1.728  11.466   0.046  0.00  0.00    -0.275 OA
ATOM     27  N   UNL     1      -0.453  11.873   0.070  0.00  0.00    -0.329 N 
ATOM     28  H   UNL     1      -0.284  12.960   0.074  0.00  0.00    +0.145 HD
ATOM     29  H   UNL     1      -1.479  11.476   0.079  0.00  0.00    +0.145 HD
ENDBRANCH  24  25
ENDBRANCH  23  24
ENDBRANCH  13  23
BRANCH   9  30
ATOM     30  S   UNL     1      -0.022   1.810   0.012  0.00  0.00    -0.076 S 
BRANCH  30  31
ATOM     31  C   UNL     1       0.002  -0.004   0.002  0.00  0.00    +0.172 C 
BRANCH  31  32
ATOM     32  C   UNL     1      -1.412  -0.526   0.013  0.00  0.00    +0.221 C 
ATOM     33  O   UNL     1      -2.344   0.250   0.026  0.00  0.00    -0.275 OA
ATOM     34  N   UNL     1      -1.640  -1.854   0.008  0.00  0.00    -0.329 N 
ATOM     35  H   UNL     1      -2.672  -2.235   0.016  0.00  0.00    +0.145 HD
ATOM     36  H   UNL     1      -0.794  -2.557  -0.004  0.00  0.00    +0.145 HD
ENDBRANCH  31  32
ENDBRANCH  30  31
ENDBRANCH   9  30
TORSDOF 7
