REMARK  Name = ZINC08532388
REMARK  8 active torsions:
REMARK  status: ('A' for Active; 'I' for Inactive)
REMARK    1  A    between atoms: C_1  and  C_2
REMARK    2  A    between atoms: C_2  and  C_4
REMARK    3  A    between atoms: C_2  and  N_18
REMARK    4  A    between atoms: N_6  and  C_7
REMARK    5  A    between atoms: C_8  and  C_15
REMARK    6  A    between atoms: N_18  and  C_19
REMARK    7  A    between atoms: N_18  and  C_20
REMARK    8  A    between atoms: C_20  and  C_21
REMARK                            x       y       z     vdW  Elec       q    Type
REMARK                         _______ _______ _______ _____ _____    ______ ____
ROOT
ATOM      1  C   UNL     1       0.333  -0.530   1.617  0.00  0.00    +0.204 C 
ATOM      2  O   UNL     1      -0.468  -1.119   2.311  0.00  0.00    -0.277 OA
ATOM      3  N   UNL     1       1.580  -0.300   2.074  0.00  0.00    -0.281 N 
ATOM      4  H   UNL     1       2.220   0.172   1.519  0.00  0.00    +0.155 HD
ENDROOT
BRANCH   3   5
ATOM      5  C   UNL     1       1.947  -0.737   3.338  0.00  0.00    +0.084 A 
ATOM      6  C   UNL     1       3.168  -0.586   3.968  0.00  0.00    +0.068 A 
ATOM      7  C   UNL     1       3.301  -1.142   5.314  0.00  0.00    -0.023 A 
ATOM      8  C   UNL     1       2.188  -1.743   5.771  0.00  0.00    -0.004 A 
ATOM      9  S   UNL     1       1.009  -1.563   4.456  0.00  0.00    -0.077 S 
ATOM     10  C   UNL     1       2.380  -2.301   7.155  0.00  0.00    +0.043 C 
ATOM     11  C   UNL     1       3.912  -2.344   7.349  0.00  0.00    +0.010 C 
ATOM     12  C   UNL     1       4.383  -1.235   6.387  0.00  0.00    +0.037 C 
BRANCH   6  13
ATOM     13  C   UNL     1       4.285   0.102   3.313  0.00  0.00    +0.244 C 
ATOM     14  O   UNL     1       4.424   1.304   3.452  0.00  0.00    -0.270 OA
ATOM     15  N   UNL     1       5.157  -0.595   2.558  0.00  0.00    -0.325 N 
ATOM     16  H   UNL     1       5.046  -1.552   2.448  0.00  0.00    +0.145 HD
ATOM     17  H   UNL     1       5.896  -0.139   2.125  0.00  0.00    +0.145 HD
ENDBRANCH   6  13
ENDBRANCH   3   5
BRANCH   1  19
ATOM     18  C   UNL     1      -0.574   1.385   0.330  0.00  0.00    -0.004 C 
ATOM     19  C   UNL     1      -0.066  -0.055   0.244  0.00  0.00    +0.016 C 
BRANCH  19  20
ATOM     20  N   UNL     1      -1.131  -0.919  -0.283  0.00  0.00    +0.388 N 
ATOM     21  C   UNL     1      -0.631  -2.296  -0.399  0.00  0.00    -0.095 C 
ATOM     22  H   UNL     1      -1.921  -0.900   0.344  0.00  0.00    -0.081 HD
BRANCH  20  23
ATOM     23  C   UNL     1      -1.544  -0.436  -1.607  0.00  0.00    -0.042 C 
BRANCH  23  24
ATOM     24  C   UNL     1      -2.717  -1.246  -2.095  0.00  0.00    -0.064 A 
ATOM     25  C   UNL     1      -2.504  -2.396  -2.831  0.00  0.00    +0.004 A 
ATOM     26  C   UNL     1      -3.580  -3.140  -3.278  0.00  0.00    +0.038 A 
ATOM     27  C   UNL     1      -4.871  -2.733  -2.988  0.00  0.00    +0.123 A 
ATOM     28  C   UNL     1      -5.083  -1.580  -2.251  0.00  0.00    +0.038 A 
ATOM     29  C   UNL     1      -4.006  -0.841  -1.800  0.00  0.00    +0.004 A 
ATOM     30  F   UNL     1      -5.923  -3.459  -3.425  0.00  0.00    -0.205 F 
ENDBRANCH  23  24
ENDBRANCH  20  23
ENDBRANCH  19  20
ENDBRANCH   1  19
TORSDOF 6
