REMARK  Name = ZINC43216954
REMARK  7 active torsions:
REMARK  status: ('A' for Active; 'I' for Inactive)
REMARK    1  A    between atoms: C_1  and  C_2
REMARK    2  A    between atoms: C_2  and  C_4
REMARK    3  A    between atoms: C_2  and  O_22
REMARK    4  A    between atoms: C_4  and  C_6
REMARK    5  A    between atoms: C_4  and  N_21
REMARK    6  A    between atoms: C_8  and  C_11
REMARK    7  A    between atoms: N_13  and  C_14
REMARK                            x       y       z     vdW  Elec       q    Type
REMARK                         _______ _______ _______ _____ _____    ______ ____
ROOT
ATOM      1  C   UNL     1       0.885  -2.010   1.188  0.00  0.00    +0.184 A 
ATOM      2  N   UNL     1       0.182  -2.858   1.878  0.00  0.00    -0.210 NA
ATOM      3  C   UNL     1       0.570  -4.117   1.538  0.00  0.00    +0.164 A 
ATOM      4  C   UNL     1       1.550  -3.995   0.601  0.00  0.00    +0.230 A 
ATOM      5  O   UNL     1       1.729  -2.681   0.392  0.00  0.00    -0.449 OA
ENDROOT
BRANCH   3   6
ATOM      6  C   UNL     1       0.031  -5.376   2.082  0.00  0.00    +0.270 C 
ATOM      7  O   UNL     1       0.467  -6.443   1.692  0.00  0.00    -0.268 OA
ATOM      8  N   UNL     1      -0.945  -5.346   3.011  0.00  0.00    -0.280 N 
ATOM      9  H   UNL     1      -1.246  -4.497   3.371  0.00  0.00    +0.155 HD
BRANCH   8  10
ATOM     10  C   UNL     1      -1.524  -6.539   3.456  0.00  0.00    +0.034 A 
ATOM     11  C   UNL     1      -2.875  -6.580   3.774  0.00  0.00    +0.024 A 
ATOM     12  C   UNL     1      -3.444  -7.760   4.213  0.00  0.00    +0.016 A 
ATOM     13  C   UNL     1      -2.669  -8.899   4.337  0.00  0.00    +0.013 A 
ATOM     14  C   UNL     1      -1.323  -8.861   4.021  0.00  0.00    +0.016 A 
ATOM     15  C   UNL     1      -0.750  -7.686   3.576  0.00  0.00    +0.024 A 
ATOM     16  I   UNL     1      -3.536 -10.685   5.004  0.00  0.00    -0.044 I 
ENDBRANCH   8  10
ENDBRANCH   3   6
BRANCH   1  17
ATOM     17  C   UNL     1       0.764  -0.510   1.266  0.00  0.00    +0.042 C 
BRANCH  17  18
ATOM     18  N   UNL     1       2.106   0.087   1.320  0.00  0.00    +0.387 N 
ATOM     19  H   UNL     1       2.620  -0.167   0.490  0.00  0.00    -0.089 HD
ATOM     20  H   UNL     1       2.025   1.091   1.372  0.00  0.00    -0.089 HD
ATOM     21  H   UNL     1       2.593  -0.255   2.135  0.00  0.00    -0.089 HD
ENDBRANCH  17  18
BRANCH  17  23
ATOM     22  C   UNL     1       0.013   1.537   0.047  0.00  0.00    +0.036 C 
ATOM     23  C   UNL     1       0.026   0.007   0.030  0.00  0.00    +0.106 C 
BRANCH  23  24
ATOM     24  O   UNL     1       0.691  -0.450  -1.149  0.00  0.00    -0.393 OA
ATOM     25  H   UNL     1       1.609  -0.156  -1.222  0.00  0.00    +0.210 HD
ENDBRANCH  23  24
ENDBRANCH  17  23
ENDBRANCH   1  17
TORSDOF 6
