REMARK  Name = ZINC39683809
REMARK  9 active torsions:
REMARK  status: ('A' for Active; 'I' for Inactive)
REMARK    1  A    between atoms: C_1  and  C_2
REMARK    2  A    between atoms: C_2  and  C_4
REMARK    3  A    between atoms: C_2  and  N_8
REMARK    4  A    between atoms: N_6  and  C_7
REMARK    5  A    between atoms: C_9  and  C_11
REMARK    6  A    between atoms: C_22  and  C_24
REMARK    7  A    between atoms: C_29  and  O_30
REMARK    8  A    between atoms: O_30  and  C_31
REMARK    9  A    between atoms: C_31  and  C_33
REMARK                            x       y       z     vdW  Elec       q    Type
REMARK                         _______ _______ _______ _____ _____    ______ ____
ROOT
ATOM      1  C   UNL     1      -3.910  -0.983  -1.174  0.00  0.00    +0.100 C 
ATOM      2  C   UNL     1      -3.736  -2.443  -0.702  0.00  0.00    +0.121 C 
ATOM      3  N   UNL     1      -4.648  -3.228  -1.567  0.00  0.00    -0.296 N 
ATOM      4  C   UNL     1      -4.512  -2.606  -2.906  0.00  0.00    +0.115 C 
ATOM      5  C   UNL     1      -4.418  -1.093  -2.622  0.00  0.00    -0.004 C 
ATOM      6  C   UNL     1      -3.429  -0.437  -3.580  0.00  0.00    -0.010 C 
ATOM      7  C   UNL     1      -3.984  -0.508  -5.006  0.00  0.00    -0.082 C 
ATOM      8  N   UNL     1      -5.281   0.178  -5.063  0.00  0.00    +0.379 N 
ATOM      9  C   UNL     1      -6.252  -0.516  -4.209  0.00  0.00    -0.082 C 
ATOM     10  C   UNL     1      -5.793  -0.446  -2.750  0.00  0.00    -0.010 C 
ATOM     11  C   UNL     1      -5.426  -4.271  -1.217  0.00  0.00    +0.250 C 
ATOM     12  O   UNL     1      -6.053  -4.875  -2.066  0.00  0.00    -0.270 OA
ATOM     13  H   UNL     1      -5.172   1.128  -4.743  0.00  0.00    -0.086 HD
ATOM     14  H   UNL     1      -5.615   0.183  -6.015  0.00  0.00    -0.086 HD
ENDROOT
BRANCH  11  15
ATOM     15  C   UNL     1      -5.518  -4.680   0.198  0.00  0.00    +0.079 A 
ATOM     16  C   UNL     1      -4.402  -4.582   1.032  0.00  0.00    +0.017 A 
ATOM     17  C   UNL     1      -4.494  -4.966   2.352  0.00  0.00    +0.001 A 
ATOM     18  C   UNL     1      -5.690  -5.449   2.857  0.00  0.00    +0.004 A 
ATOM     19  C   UNL     1      -6.801  -5.551   2.044  0.00  0.00    +0.047 A 
ATOM     20  C   UNL     1      -6.727  -5.164   0.715  0.00  0.00    +0.144 A 
BRANCH  20  21
ATOM     21  O   UNL     1      -7.820  -5.259  -0.085  0.00  0.00    -0.425 OA
BRANCH  21  22
ATOM     22  C   UNL     1      -8.612  -4.180  -0.201  0.00  0.00    +0.309 C 
ATOM     23  O   UNL     1      -8.293  -3.138   0.321  0.00  0.00    -0.251 OA
ATOM     24  C   UNL     1      -9.896  -4.269  -0.984  0.00  0.00    +0.136 C 
ENDBRANCH  21  22
ENDBRANCH  20  21
ENDBRANCH  11  15
BRANCH   1  26
ATOM     25  N   UNL     1      -2.560   1.085  -1.033  0.00  0.00    -0.304 N 
ATOM     26  C   UNL     1      -2.589  -0.258  -1.136  0.00  0.00    +0.219 C 
ATOM     27  O   UNL     1      -1.552  -0.884  -1.197  0.00  0.00    -0.275 OA
ATOM     28  H   UNL     1      -3.389   1.586  -0.985  0.00  0.00    +0.149 HD
BRANCH  25  30
ATOM     29  C   UNL     1      -0.787   2.034  -2.425  0.00  0.00    +0.038 C 
ATOM     30  C   UNL     1      -1.276   1.790  -0.996  0.00  0.00    +0.156 C 
BRANCH  30  31
ATOM     31  C   UNL     1      -1.448   3.110  -0.290  0.00  0.00    +0.233 C 
ATOM     32  O   UNL     1      -2.535   3.431   0.139  0.00  0.00    -0.274 OA
ATOM     33  N   UNL     1      -0.392   3.934  -0.137  0.00  0.00    -0.317 N 
ATOM     34  C   UNL     1      -0.559   5.218   0.549  0.00  0.00    +0.128 C 
ATOM     35  H   UNL     1       0.478   3.677  -0.480  0.00  0.00    +0.148 HD
ENDBRANCH  30  31
ENDBRANCH  25  30
ENDBRANCH   1  26
TORSDOF 6
