REMARK  Name = ZINC63824806
REMARK  10 active torsions:
REMARK  status: ('A' for Active; 'I' for Inactive)
REMARK    1  A    between atoms: C_1  and  C_2
REMARK    2  A    between atoms: C_4  and  N_21
REMARK    3  A    between atoms: C_7  and  C_9
REMARK    4  A    between atoms: N_11  and  C_12
REMARK    5  A    between atoms: N_21  and  C_22
REMARK    6  A    between atoms: C_22  and  C_23
REMARK    7  A    between atoms: C_23  and  C_24
REMARK    8  A    between atoms: C_24  and  C_25
REMARK    9  A    between atoms: C_24  and  C_26
REMARK   10  A    between atoms: C_27  and  C_29
REMARK                            x       y       z     vdW  Elec       q    Type
REMARK                         _______ _______ _______ _____ _____    ______ ____
ROOT
ATOM      1  C   UNL     1      -0.114   0.902  -0.120  0.00  0.00    +0.062 C 
ATOM      2  C   UNL     1      -0.811   1.478  -1.326  0.00  0.00    +0.021 C 
ATOM      3  N   UNL     1      -0.083   1.751  -2.429  0.00  0.00    -0.320 N 
ATOM      4  C   UNL     1      -0.824   2.314  -3.578  0.00  0.00    +0.226 C 
ATOM      5  S   UNL     1      -2.524   2.370  -2.877  0.00  0.00    -0.077 S 
ATOM      6  C   UNL     1      -2.142   1.698  -1.267  0.00  0.00    +0.089 C 
ATOM      7  H   UNL     1       0.872   1.587  -2.466  0.00  0.00    +0.148 HD
ENDROOT
BRANCH   6   8
ATOM      8  C   UNL     1      -3.052   1.447  -0.151  0.00  0.00    +0.255 C 
ATOM      9  O   UNL     1      -2.625   0.982   0.890  0.00  0.00    -0.269 OA
ATOM     10  N   UNL     1      -4.364   1.731  -0.274  0.00  0.00    -0.274 N 
ATOM     11  H   UNL     1      -4.704   2.102  -1.103  0.00  0.00    +0.153 HD
BRANCH  10  12
ATOM     12  C   UNL     1      -5.276   1.480   0.845  0.00  0.00    +0.269 C 
ATOM     13  N   UNL     1      -5.598   0.049   0.921  0.00  0.00    -0.348 N 
ATOM     14  C   UNL     1      -6.884  -0.070   0.766  0.00  0.00    +0.061 A 
ATOM     15  C   UNL     1      -7.785  -1.232   0.746  0.00  0.00    +0.027 A 
ATOM     16  C   UNL     1      -9.107  -1.045   0.562  0.00  0.00    +0.002 A 
ATOM     17  C   UNL     1      -9.675   0.229   0.384  0.00  0.00    +0.002 A 
ATOM     18  C   UNL     1      -8.940   1.359   0.385  0.00  0.00    +0.027 A 
ATOM     19  C   UNL     1      -7.486   1.278   0.578  0.00  0.00    +0.061 A 
ATOM     20  N   UNL     1      -6.548   2.179   0.624  0.00  0.00    -0.348 N 
ATOM     21  H   UNL     1      -4.967  -0.674   1.061  0.00  0.00    +0.163 HD
ATOM     22  H   UNL     1      -6.667   3.137   0.530  0.00  0.00    +0.163 HD
ENDBRANCH  10  12
ENDBRANCH   6   8
BRANCH   4  23
ATOM     23  N   UNL     1      -0.342   3.656  -3.914  0.00  0.00    -0.274 N 
ATOM     24  C   UNL     1       0.324   4.383  -2.995  0.00  0.00    +0.214 C 
ATOM     25  O   UNL     1       0.610   3.891  -1.924  0.00  0.00    -0.276 OA
ATOM     26  C   UNL     1       0.713   5.807  -3.299  0.00  0.00    +0.109 C 
BRANCH  23  27
ATOM     27  C   UNL     1      -0.584   4.208  -5.250  0.00  0.00    +0.110 C 
BRANCH  27  28
ATOM     28  C   UNL     1      -1.842   5.078  -5.221  0.00  0.00    +0.022 C 
BRANCH  28  29
ATOM     29  C   UNL     1      -2.095   5.655  -6.616  0.00  0.00    -0.016 C 
ATOM     30  C   UNL     1      -2.412   4.517  -7.588  0.00  0.00    +0.007 C 
ATOM     31  C   UNL     1      -3.279   6.623  -6.560  0.00  0.00    +0.007 C 
ENDBRANCH  28  29
ENDBRANCH  27  28
ENDBRANCH  23  27
ENDBRANCH   4  23
TORSDOF 6
