REMARK  Name = ZINC16464613
REMARK  12 active torsions:
REMARK  status: ('A' for Active; 'I' for Inactive)
REMARK    1  A    between atoms: C_1  and  C_2
REMARK    2  A    between atoms: C_7  and  N_8
REMARK    3  A    between atoms: C_9  and  C_27
REMARK    4  A    between atoms: C_12  and  S_13
REMARK    5  A    between atoms: S_13  and  C_14
REMARK    6  A    between atoms: C_14  and  C_15
REMARK    7  A    between atoms: C_17  and  C_20
REMARK    8  A    between atoms: N_22  and  C_23
REMARK    9  A    between atoms: C_23  and  C_24
REMARK   10  A    between atoms: C_24  and  N_58
REMARK   11  A    between atoms: C_25  and  N_58
REMARK   12  A    between atoms: C_26  and  N_58
REMARK                            x       y       z     vdW  Elec       q    Type
REMARK                         _______ _______ _______ _____ _____    ______ ____
ROOT
ATOM      1  N   UNL     1       1.907  -5.395  -2.412  0.00  0.00    -0.270 N 
ATOM      2  C   UNL     1       2.114  -6.572  -1.726  0.00  0.00    +0.169 A 
ATOM      3  N   UNL     1       2.077  -6.282  -0.446  0.00  0.00    -0.128 NA
ATOM      4  N   UNL     1       1.869  -5.024  -0.285  0.00  0.00    -0.122 NA
ATOM      5  C   UNL     1       1.761  -4.431  -1.454  0.00  0.00    +0.197 A 
ENDROOT
BRANCH   1  12
ATOM      6  C   UNL     1      -0.612  -5.649  -3.713  0.00  0.00    +0.046 C 
ATOM      7  C   UNL     1       0.650  -5.337  -4.476  0.00  0.00    -0.026 A 
ATOM      8  C   UNL     1       0.604  -5.161  -5.846  0.00  0.00    +0.007 A 
ATOM      9  C   UNL     1       1.762  -4.881  -6.547  0.00  0.00    +0.020 A 
ATOM     10  C   UNL     1       2.969  -4.771  -5.880  0.00  0.00    +0.043 A 
ATOM     11  C   UNL     1       3.020  -4.940  -4.509  0.00  0.00    +0.046 A 
ATOM     12  C   UNL     1       1.859  -5.222  -3.803  0.00  0.00    +0.055 A 
ATOM     13 CL   UNL     1       4.421  -4.418  -6.765  0.00  0.00    -0.083 Cl
ENDBRANCH   1  12
BRANCH   2  14
ATOM     14  C   UNL     1       2.329  -7.908  -2.318  0.00  0.00    +0.022 A 
ATOM     15  C   UNL     1       2.651  -8.051  -3.674  0.00  0.00    +0.031 A 
ATOM     16  C   UNL     1       2.849  -9.316  -4.184  0.00  0.00    +0.111 A 
ATOM     17  N   UNL     1       2.729 -10.383  -3.416  0.00  0.00    -0.263 NA
ATOM     18  C   UNL     1       2.423 -10.294  -2.135  0.00  0.00    +0.111 A 
ATOM     19  C   UNL     1       2.213  -9.067  -1.541  0.00  0.00    +0.031 A 
ENDBRANCH   2  14
BRANCH   5  20
ATOM     20  S   UNL     1       1.473  -2.715  -1.733  0.00  0.00    -0.079 S 
BRANCH  20  21
ATOM     21  C   UNL     1       1.391  -2.128  -0.022  0.00  0.00    +0.140 C 
BRANCH  21  22
ATOM     22  C   UNL     1       1.144  -0.642  -0.012  0.00  0.00    +0.089 A 
ATOM     23  N   UNL     1       0.002  -0.004   0.002  0.00  0.00    -0.239 NA
ATOM     24  C   UNL     1      -0.016   1.330   0.009  0.00  0.00    +0.133 A 
ATOM     25  C   UNL     1       1.192   1.980   0.001  0.00  0.00    +0.080 A 
ATOM     26  S   UNL     1       2.303   0.648  -0.016  0.00  0.00    -0.079 S 
BRANCH  24  27
ATOM     27  C   UNL     1      -1.286   2.076   0.019  0.00  0.00    +0.263 C 
ATOM     28  O   UNL     1      -1.276   3.292   0.026  0.00  0.00    -0.269 OA
ATOM     29  N   UNL     1      -2.458   1.411   0.022  0.00  0.00    -0.312 N 
ATOM     30  H   UNL     1      -2.466   0.441   0.017  0.00  0.00    +0.149 HD
BRANCH  29  31
ATOM     31  C   UNL     1      -3.721   2.154   0.032  0.00  0.00    +0.086 C 
BRANCH  31  32
ATOM     32  C   UNL     1      -4.892   1.169   0.033  0.00  0.00    -0.061 C 
BRANCH  32  35
ATOM     33  C   UNL     1      -6.336   2.666  -1.206  0.00  0.00    -0.097 C 
ATOM     34  C   UNL     1      -7.295   1.014   0.282  0.00  0.00    -0.097 C 
ATOM     35  N   UNL     1      -6.157   1.932   0.065  0.00  0.00    +0.377 N 
ATOM     36  H   UNL     1      -6.120   2.607   0.838  0.00  0.00    -0.083 HD
ENDBRANCH  32  35
ENDBRANCH  31  32
ENDBRANCH  29  31
ENDBRANCH  24  27
ENDBRANCH  21  22
ENDBRANCH  20  21
ENDBRANCH   5  20
TORSDOF 9
