REMARK  Name = ZINC11824696
REMARK  10 active torsions:
REMARK  status: ('A' for Active; 'I' for Inactive)
REMARK    1  A    between atoms: C_1  and  C_2
REMARK    2  A    between atoms: C_2  and  O_3
REMARK    3  A    between atoms: O_3  and  C_4
REMARK    4  A    between atoms: C_6  and  C_23
REMARK    5  A    between atoms: C_9  and  O_10
REMARK    6  A    between atoms: O_10  and  C_11
REMARK    7  A    between atoms: C_11  and  C_12
REMARK    8  A    between atoms: C_12  and  O_13
REMARK    9  A    between atoms: O_13  and  C_14
REMARK   10  A    between atoms: C_23  and  N_42
REMARK                            x       y       z     vdW  Elec       q    Type
REMARK                         _______ _______ _______ _____ _____    ______ ____
ROOT
ATOM      1  C   UNL     1      -0.148   1.182   2.380  0.00  0.00    +0.162 A 
ATOM      2  C   UNL     1       0.990   0.393   2.422  0.00  0.00    +0.051 A 
ATOM      3  C   UNL     1       1.534   0.028   3.639  0.00  0.00    -0.061 A 
ATOM      4  C   UNL     1       0.938   0.439   4.817  0.00  0.00    +0.005 A 
ATOM      5  C   UNL     1      -0.201   1.221   4.783  0.00  0.00    +0.049 A 
ATOM      6  C   UNL     1      -0.748   1.595   3.566  0.00  0.00    +0.162 A 
ENDROOT
BRANCH   1   7
ATOM      7  O   UNL     1      -0.682   1.547   1.184  0.00  0.00    -0.489 OA
BRANCH   7   9
ATOM      8  C   UNL     1      -0.753   1.593  -1.232  0.00  0.00    +0.048 C 
ATOM      9  C   UNL     1      -0.013   1.086   0.008  0.00  0.00    +0.226 C 
ENDBRANCH   7   9
ENDBRANCH   1   7
BRANCH   6  10
ATOM     10  O   UNL     1      -1.869   2.365   3.531  0.00  0.00    -0.485 OA
BRANCH  10  11
ATOM     11  C   UNL     1      -2.430   2.752   4.787  0.00  0.00    +0.270 C 
BRANCH  11  12
ATOM     12  C   UNL     1      -3.675   3.608   4.547  0.00  0.00    +0.270 C 
BRANCH  12  13
ATOM     13  O   UNL     1      -4.681   2.817   3.911  0.00  0.00    -0.486 OA
BRANCH  13  14
ATOM     14  C   UNL     1      -5.860   3.431   3.625  0.00  0.00    +0.157 A 
ATOM     15  C   UNL     1      -6.893   3.420   4.552  0.00  0.00    +0.085 A 
ATOM     16  C   UNL     1      -8.089   4.050   4.262  0.00  0.00    +0.043 A 
ATOM     17  C   UNL     1      -8.261   4.682   3.043  0.00  0.00    +0.044 A 
ATOM     18  C   UNL     1      -7.235   4.690   2.115  0.00  0.00    +0.043 A 
ATOM     19  C   UNL     1      -6.035   4.066   2.403  0.00  0.00    +0.085 A 
ATOM     20 CL   UNL     1      -4.748   4.078   1.238  0.00  0.00    -0.080 Cl
ATOM     21 CL   UNL     1      -9.766   5.466   2.679  0.00  0.00    -0.083 Cl
ATOM     22 CL   UNL     1      -6.680   2.620   6.079  0.00  0.00    -0.080 Cl
ENDBRANCH  13  14
ENDBRANCH  12  13
ENDBRANCH  11  12
ENDBRANCH  10  11
ENDBRANCH   6  10
BRANCH   3  23
ATOM     23  C   UNL     1       2.775  -0.826   3.682  0.00  0.00    -0.050 C 
BRANCH  23  26
ATOM     24  H   UNL     1       1.810  -2.471   2.907  0.00  0.00    -0.090 HD
ATOM     25  H   UNL     1       3.210  -2.838   3.727  0.00  0.00    -0.090 HD
ATOM     26  N   UNL     1       2.381  -2.245   3.720  0.00  0.00    +0.381 N 
ATOM     27  H   UNL     1       1.836  -2.422   4.572  0.00  0.00    -0.090 HD
ENDBRANCH  23  26
ENDBRANCH   3  23
TORSDOF 9
