REMARK  Name = ZINC14954220
REMARK  7 active torsions:
REMARK  status: ('A' for Active; 'I' for Inactive)
REMARK    1  A    between atoms: C_2  and  C_9
REMARK    2  A    between atoms: C_9  and  N_44
REMARK    3  A    between atoms: C_10  and  C_11
REMARK    4  A    between atoms: C_10  and  N_44
REMARK    5  A    between atoms: C_11  and  O_22
REMARK    6  A    between atoms: N_15  and  C_18
REMARK    7  A    between atoms: C_18  and  C_19
REMARK                            x       y       z     vdW  Elec       q    Type
REMARK                         _______ _______ _______ _____ _____    ______ ____
ROOT
ATOM      1  C   UNL     1      -1.964   4.849   0.366  0.00  0.00    -0.037 C 
ENDROOT
BRANCH   1   2
ATOM      2  C   UNL     1      -1.944   3.356   0.033  0.00  0.00    +0.127 C 
ATOM      3  C   UNL     1      -0.954   3.102  -1.106  0.00  0.00    +0.044 C 
ATOM      4  C   UNL     1      -0.744   1.588  -1.238  0.00  0.00    +0.022 C 
ATOM      5  C   UNL     1      -0.013   1.086   0.008  0.00  0.00    +0.108 C 
ATOM      6  N   UNL     1      -0.687   1.552   1.213  0.00  0.00    -0.299 N 
ATOM      7  C   UNL     1      -1.533   2.579   1.250  0.00  0.00    +0.245 C 
ATOM      8  O   UNL     1      -1.999   2.902   2.322  0.00  0.00    -0.273 OA
BRANCH   2   9
ATOM      9  O   UNL     1      -3.251   2.944  -0.374  0.00  0.00    -0.381 OA
ATOM     10  H   UNL     1      -3.932   3.076   0.300  0.00  0.00    +0.211 HD
ENDBRANCH   2   9
BRANCH   6  11
ATOM     11  C   UNL     1      -0.413   0.848   2.469  0.00  0.00    +0.111 C 
BRANCH  11  12
ATOM     12  C   UNL     1       0.778   1.503   3.171  0.00  0.00    +0.006 C 
ATOM     13  C   UNL     1       2.040   0.658   3.357  0.00  0.00    +0.005 C 
ATOM     14  C   UNL     1       1.152   0.984   4.561  0.00  0.00    +0.005 C 
ENDBRANCH  11  12
ENDBRANCH   6  11
ENDBRANCH   1   2
BRANCH   1  15
ATOM     15  N   UNL     1      -2.827   5.071   1.541  0.00  0.00    +0.384 N 
ATOM     16  H   UNL     1      -3.779   4.748   1.328  0.00  0.00    -0.085 HD
ATOM     17  H   UNL     1      -2.457   4.541   2.338  0.00  0.00    -0.085 HD
BRANCH  15  18
ATOM     18  C   UNL     1      -2.865   6.505   1.885  0.00  0.00    -0.046 C 
BRANCH  18  20
ATOM     19  C   UNL     1      -3.216   6.642   4.359  0.00  0.00    +0.040 A 
ATOM     20  C   UNL     1      -3.753   6.701   3.087  0.00  0.00    -0.059 A 
ATOM     21  C   UNL     1      -5.102   6.945   2.916  0.00  0.00    +0.040 A 
ATOM     22  C   UNL     1      -5.920   7.120   4.020  0.00  0.00    +0.126 A 
ATOM     23  C   UNL     1      -5.383   7.062   5.295  0.00  0.00    +0.076 A 
ATOM     24  C   UNL     1      -4.030   6.823   5.464  0.00  0.00    +0.126 A 
ATOM     25  F   UNL     1      -3.505   6.766   6.708  0.00  0.00    -0.205 F 
ATOM     26  F   UNL     1      -7.240   7.354   3.853  0.00  0.00    -0.205 F 
ENDBRANCH  18  20
ENDBRANCH  15  18
ENDBRANCH   1  15
TORSDOF 7
