REMARK  Name = ZINC02701404
REMARK  13 active torsions:
REMARK  status: ('A' for Active; 'I' for Inactive)
REMARK    1  A    between atoms: C_1  and  C_2
REMARK    2  A    between atoms: C_2  and  C_4
REMARK    3  A    between atoms: C_9  and  O_10
REMARK    4  A    between atoms: O_10  and  C_11
REMARK    5  A    between atoms: C_11  and  C_12
REMARK    6  A    between atoms: C_12  and  C_14
REMARK    7  A    between atoms: C_12  and  O_25
REMARK    8  A    between atoms: C_14  and  N_56
REMARK    9  A    between atoms: C_15  and  C_23
REMARK   10  A    between atoms: C_15  and  C_24
REMARK   11  A    between atoms: C_17  and  O_22
REMARK   12  A    between atoms: C_19  and  C_20
REMARK   13  A    between atoms: C_19  and  C_21
REMARK                            x       y       z     vdW  Elec       q    Type
REMARK                         _______ _______ _______ _____ _____    ______ ____
ROOT
ATOM      1  C   UNL     1       1.232  -2.474   3.854  0.00  0.00    +0.135 C 
ENDROOT
BRANCH   1   2
ATOM      2  O   UNL     1       1.695  -1.164   4.188  0.00  0.00    -0.390 OA
ATOM      3  H   UNL     1       2.386  -1.152   4.864  0.00  0.00    +0.210 HD
ENDBRANCH   1   2
BRANCH   1   4
ATOM      4  C   UNL     1       2.419  -3.343   3.435  0.00  0.00    +0.258 C 
BRANCH   4   5
ATOM      5  O   UNL     1       3.294  -3.524   4.549  0.00  0.00    -0.489 OA
BRANCH   5  11
ATOM      6  C   UNL     1       5.310  -4.497   5.395  0.00  0.00    +0.059 A 
ATOM      7  C   UNL     1       6.452  -5.276   5.169  0.00  0.00    +0.015 A 
ATOM      8  C   UNL     1       6.678  -5.817   3.924  0.00  0.00    +0.001 A 
ATOM      9  C   UNL     1       5.780  -5.596   2.891  0.00  0.00    +0.004 A 
ATOM     10  C   UNL     1       4.647  -4.836   3.099  0.00  0.00    +0.046 A 
ATOM     11  C   UNL     1       4.404  -4.276   4.345  0.00  0.00    +0.131 A 
BRANCH   6  13
ATOM     12  C   UNL     1       6.037  -4.157   7.843  0.00  0.00    +0.092 C 
ATOM     13  C   UNL     1       5.061  -3.917   6.720  0.00  0.00    +0.164 C 
ATOM     14  O   UNL     1       4.071  -3.244   6.911  0.00  0.00    -0.292 OA
ENDBRANCH   6  13
ENDBRANCH   5  11
ENDBRANCH   4   5
ENDBRANCH   1   4
BRANCH   1  15
ATOM     15  C   UNL     1       0.233  -2.383   2.699  0.00  0.00    -0.042 C 
BRANCH  15  25
ATOM     16  C   UNL     1      -0.270  -3.997   0.966  0.00  0.00    -0.068 C 
ATOM     17  C   UNL     1      -0.867  -5.359   0.623  0.00  0.00    +0.019 C 
ATOM     18  C   UNL     1      -2.222  -5.541   1.305  0.00  0.00    +0.112 C 
ATOM     19  C   UNL     1      -2.031  -5.418   2.817  0.00  0.00    +0.019 C 
ATOM     20  C   UNL     1      -1.471  -4.038   3.164  0.00  0.00    -0.068 C 
ATOM     21  C   UNL     1      -1.076  -4.062   4.657  0.00  0.00    -0.010 C 
ATOM     22  C   UNL     1      -2.559  -2.976   2.997  0.00  0.00    -0.010 C 
ATOM     23  C   UNL     1      -0.990  -2.901   0.174  0.00  0.00    -0.010 C 
ATOM     24  C   UNL     1       1.203  -4.005   0.497  0.00  0.00    -0.010 C 
ATOM     25  N   UNL     1      -0.196  -3.758   2.443  0.00  0.00    +0.388 N 
ATOM     26  H   UNL     1       0.517  -4.393   2.823  0.00  0.00    -0.080 HD
BRANCH  18  27
ATOM     27  O   UNL     1      -2.732  -6.845   1.000  0.00  0.00    -0.392 OA
ATOM     28  H   UNL     1      -2.879  -6.999   0.057  0.00  0.00    +0.210 HD
ENDBRANCH  18  27
ENDBRANCH  15  25
ENDBRANCH   1  15
TORSDOF 8
