REMARK  Name = ZINC34756827
REMARK  6 active torsions:
REMARK  status: ('A' for Active; 'I' for Inactive)
REMARK    1  A    between atoms: C_1  and  C_2
REMARK    2  A    between atoms: C_2  and  N_3
REMARK    3  A    between atoms: C_16  and  S_18
REMARK    4  A    between atoms: S_18  and  C_19
REMARK    5  A    between atoms: C_19  and  C_20
REMARK    6  A    between atoms: N_22  and  C_23
REMARK                            x       y       z     vdW  Elec       q    Type
REMARK                         _______ _______ _______ _____ _____    ______ ____
ROOT
ATOM      1  N   UNL     1      -2.277   0.340  -0.044  0.00  0.00    +0.382 N 
ATOM      2  C   UNL     1      -3.723   0.157   0.137  0.00  0.00    -0.060 C 
ATOM      3  C   UNL     1      -4.039  -1.339   0.231  0.00  0.00    +0.088 C 
ATOM      4  N   UNL     1      -3.486  -2.009  -0.957  0.00  0.00    -0.318 N 
ATOM      5  C   UNL     1      -2.081  -1.750  -1.307  0.00  0.00    +0.088 C 
ATOM      6  C   UNL     1      -1.857  -0.234  -1.329  0.00  0.00    -0.060 C 
ATOM      7  C   UNL     1      -4.265  -2.857  -1.722  0.00  0.00    +0.134 A 
ATOM      8  C   UNL     1      -4.235  -4.262  -1.495  0.00  0.00    +0.051 A 
ATOM      9  C   UNL     1      -3.453  -5.014  -0.510  0.00  0.00    -0.025 A 
ATOM     10  C   UNL     1      -3.607  -6.353  -0.500  0.00  0.00    -0.004 A 
ATOM     11  S   UNL     1      -4.785  -6.693  -1.780  0.00  0.00    -0.073 S 
ATOM     12  C   UNL     1      -5.069  -5.030  -2.331  0.00  0.00    +0.115 A 
ATOM     13  N   UNL     1      -5.821  -4.472  -3.259  0.00  0.00    -0.214 NA
ATOM     14  C   UNL     1      -5.809  -3.156  -3.427  0.00  0.00    +0.191 A 
ATOM     15  N   UNL     1      -5.050  -2.373  -2.669  0.00  0.00    -0.206 NA
ATOM     16  C   UNL     1      -2.927  -7.338   0.401  0.00  0.00    +0.043 C 
ATOM     17  C   UNL     1      -1.738  -6.638   1.075  0.00  0.00    +0.005 C 
ATOM     18  C   UNL     1      -2.210  -5.288   1.624  0.00  0.00    +0.005 C 
ATOM     19  C   UNL     1      -2.502  -4.331   0.468  0.00  0.00    +0.037 C 
ATOM     20  H   UNL     1      -1.786  -0.122   0.706  0.00  0.00    -0.082 HD
ENDROOT
BRANCH   1  22
ATOM     21  C   UNL     1      -2.283   2.349   1.357  0.00  0.00    -0.017 C 
ATOM     22  C   UNL     1      -1.961   1.774  -0.024  0.00  0.00    -0.082 C 
ENDBRANCH   1  22
BRANCH  14  23
ATOM     23  S   UNL     1      -6.823  -2.434  -4.674  0.00  0.00    -0.077 S 
BRANCH  23  24
ATOM     24  C   UNL     1      -7.665  -3.851  -5.431  0.00  0.00    +0.173 C 
BRANCH  24  25
ATOM     25  C   UNL     1      -8.576  -3.366  -6.529  0.00  0.00    +0.228 C 
ATOM     26  O   UNL     1      -8.650  -2.181  -6.776  0.00  0.00    -0.275 OA
ATOM     27  N   UNL     1      -9.308  -4.250  -7.236  0.00  0.00    -0.284 N 
ATOM     28  H   UNL     1      -9.312  -5.187  -6.985  0.00  0.00    +0.155 HD
BRANCH  27  29
ATOM     29  C   UNL     1     -10.062  -3.816  -8.328  0.00  0.00    +0.041 A 
ATOM     30  C   UNL     1      -9.605  -2.787  -9.123  0.00  0.00    +0.024 A 
ATOM     31  C   UNL     1     -10.348  -2.347 -10.214  0.00  0.00    +0.002 A 
ATOM     32  C   UNL     1     -11.544  -2.918 -10.526  0.00  0.00    +0.008 A 
ATOM     33  C   UNL     1     -12.046  -3.970  -9.741  0.00  0.00    -0.016 A 
ATOM     34  C   UNL     1     -11.296  -4.430  -8.630  0.00  0.00    +0.003 A 
ATOM     35  C   UNL     1     -11.796  -5.484  -7.849  0.00  0.00    +0.010 A 
ATOM     36  C   UNL     1     -12.990  -6.053  -8.171  0.00  0.00    +0.001 A 
ATOM     37  C   UNL     1     -13.726  -5.605  -9.266  0.00  0.00    +0.001 A 
ATOM     38  C   UNL     1     -13.277  -4.579 -10.039  0.00  0.00    +0.008 A 
ENDBRANCH  27  29
ENDBRANCH  24  25
ENDBRANCH  23  24
ENDBRANCH  14  23
TORSDOF 5
