REMARK  Name = ZINC39675258
REMARK  11 active torsions:
REMARK  status: ('A' for Active; 'I' for Inactive)
REMARK    1  A    between atoms: C_1  and  C_2
REMARK    2  A    between atoms: C_2  and  C_4
REMARK    3  A    between atoms: C_2  and  N_14
REMARK    4  A    between atoms: C_4  and  C_5
REMARK    5  A    between atoms: C_5  and  C_6
REMARK    6  A    between atoms: C_9  and  O_12
REMARK    7  A    between atoms: O_12  and  C_13
REMARK    8  A    between atoms: C_15  and  C_17
REMARK    9  A    between atoms: C_28  and  C_30
REMARK   10  A    between atoms: C_33  and  O_36
REMARK   11  A    between atoms: O_36  and  C_37
REMARK                            x       y       z     vdW  Elec       q    Type
REMARK                         _______ _______ _______ _____ _____    ______ ____
ROOT
ATOM      1  C   UNL     1      -2.945  -1.580  -1.329  0.00  0.00    +0.100 C 
ATOM      2  C   UNL     1      -3.268  -2.972  -0.740  0.00  0.00    +0.121 C 
ATOM      3  N   UNL     1      -4.368  -3.491  -1.587  0.00  0.00    -0.296 N 
ATOM      4  C   UNL     1      -4.007  -3.066  -2.961  0.00  0.00    +0.115 C 
ATOM      5  C   UNL     1      -3.431  -1.647  -2.787  0.00  0.00    -0.004 C 
ATOM      6  C   UNL     1      -2.262  -1.432  -3.743  0.00  0.00    -0.010 C 
ATOM      7  C   UNL     1      -2.778  -1.444  -5.185  0.00  0.00    -0.082 C 
ATOM      8  N   UNL     1      -3.779  -0.384  -5.357  0.00  0.00    +0.379 N 
ATOM      9  C   UNL     1      -4.941  -0.648  -4.501  0.00  0.00    -0.082 C 
ATOM     10  C   UNL     1      -4.516  -0.603  -3.030  0.00  0.00    -0.010 C 
ATOM     11  C   UNL     1      -5.451  -4.192  -1.196  0.00  0.00    +0.247 C 
ATOM     12  O   UNL     1      -5.676  -4.354  -0.013  0.00  0.00    -0.270 OA
ATOM     13  H   UNL     1      -3.372   0.505  -5.104  0.00  0.00    -0.086 HD
ATOM     14  H   UNL     1      -4.073  -0.354  -6.322  0.00  0.00    -0.086 HD
ENDROOT
BRANCH  11  15
ATOM     15  C   UNL     1      -6.364  -4.761  -2.206  0.00  0.00    +0.037 A 
ATOM     16  C   UNL     1      -5.921  -4.968  -3.515  0.00  0.00    +0.016 A 
ATOM     17  C   UNL     1      -6.776  -5.501  -4.454  0.00  0.00    +0.047 A 
ATOM     18  C   UNL     1      -8.079  -5.832  -4.101  0.00  0.00    +0.130 A 
ATOM     19  C   UNL     1      -8.524  -5.627  -2.801  0.00  0.00    +0.047 A 
ATOM     20  C   UNL     1      -7.673  -5.101  -1.854  0.00  0.00    +0.016 A 
BRANCH  18  21
ATOM     21  O   UNL     1      -8.919  -6.355  -5.030  0.00  0.00    -0.406 OA
BRANCH  21  22
ATOM     22  C   UNL     1     -10.244  -6.672  -4.600  0.00  0.00    +0.575 C 
ATOM     23  F   UNL     1     -10.874  -5.513  -4.135  0.00  0.00    -0.133 F 
ATOM     24  F   UNL     1     -10.970  -7.198  -5.675  0.00  0.00    -0.133 F 
ATOM     25  F   UNL     1     -10.187  -7.617  -3.570  0.00  0.00    -0.133 F 
ENDBRANCH  21  22
ENDBRANCH  18  21
ENDBRANCH  11  15
BRANCH   1  27
ATOM     26  N   UNL     1      -1.001  -0.062  -1.151  0.00  0.00    -0.312 N 
ATOM     27  C   UNL     1      -1.462  -1.322  -1.281  0.00  0.00    +0.218 C 
ATOM     28  O   UNL     1      -0.682  -2.248  -1.360  0.00  0.00    -0.275 OA
ATOM     29  H   UNL     1      -1.625   0.678  -1.087  0.00  0.00    +0.149 HD
BRANCH  26  31
ATOM     30  C   UNL     1       0.987   0.294  -2.530  0.00  0.00    +0.028 C 
ATOM     31  C   UNL     1       0.442   0.189  -1.104  0.00  0.00    +0.070 C 
BRANCH  31  32
ATOM     32  C   UNL     1       0.707   1.499  -0.359  0.00  0.00    +0.026 C 
BRANCH  32  33
ATOM     33  C   UNL     1       0.275   1.352   1.101  0.00  0.00    +0.037 C 
BRANCH  33  34
ATOM     34  C   UNL     1       0.537   2.642   1.835  0.00  0.00    -0.047 A 
ATOM     35  C   UNL     1       1.756   2.849   2.453  0.00  0.00    +0.007 A 
ATOM     36  C   UNL     1       1.999   4.030   3.126  0.00  0.00    +0.046 A 
ATOM     37  C   UNL     1       1.017   5.009   3.183  0.00  0.00    +0.120 A 
ATOM     38  C   UNL     1      -0.205   4.799   2.562  0.00  0.00    +0.046 A 
ATOM     39  C   UNL     1      -0.441   3.618   1.885  0.00  0.00    +0.007 A 
BRANCH  37  40
ATOM     40  O   UNL     1       1.253   6.172   3.845  0.00  0.00    -0.495 OA
ATOM     41  C   UNL     1       0.197   7.135   3.862  0.00  0.00    +0.277 C 
ENDBRANCH  37  40
ENDBRANCH  33  34
ENDBRANCH  32  33
ENDBRANCH  31  32
ENDBRANCH  26  31
ENDBRANCH   1  27
TORSDOF 9
