REMARK  Name = ZINC62962802
REMARK  7 active torsions:
REMARK  status: ('A' for Active; 'I' for Inactive)
REMARK    1  A    between atoms: C_1  and  N_2
REMARK    2  A    between atoms: C_6  and  C_7
REMARK    3  A    between atoms: C_7  and  N_8
REMARK    4  A    between atoms: N_8  and  C_9
REMARK    5  A    between atoms: N_8  and  C_10
REMARK    6  A    between atoms: C_10  and  C_17
REMARK    7  A    between atoms: C_17  and  N_18
REMARK                            x       y       z     vdW  Elec       q    Type
REMARK                         _______ _______ _______ _____ _____    ______ ____
ROOT
ATOM      1  C   UNL     1       1.571   0.070   4.395  0.00  0.00    +0.027 C 
ATOM      2  C   UNL     1       0.748   1.292   4.798  0.00  0.00    +0.044 C 
ATOM      3  C   UNL     1       1.391   1.993   6.027  0.00  0.00    +0.168 C 
ATOM      4  S   UNL     1       3.174   1.829   5.577  0.00  0.00    -0.029 S 
ATOM      5  O   UNL     1       3.942   1.668   6.761  0.00  0.00    -0.174 OA
ATOM      6  O   UNL     1       3.518   2.850   4.650  0.00  0.00    -0.174 OA
ATOM      7  C   UNL     1       3.075   0.216   4.695  0.00  0.00    +0.186 C 
ENDROOT
BRANCH   1   8
ATOM      8  N   UNL     1       1.398  -0.160   2.954  0.00  0.00    -0.293 NA
ATOM      9  C   UNL     1       1.967  -1.454   2.555  0.00  0.00    +0.105 C 
BRANCH   8  10
ATOM     10  C   UNL     1       1.986   0.936   2.172  0.00  0.00    +0.157 C 
BRANCH  10  16
ATOM     11  C   UNL     1       3.184  -0.784  -0.109  0.00  0.00    +0.150 C 
ATOM     12  N   UNL     1       2.026   0.105  -0.231  0.00  0.00    -0.338 N 
ATOM     13  C   UNL     1       1.282   0.320  -1.359  0.00  0.00    +0.104 A 
ATOM     14  C   UNL     1       0.321   1.204  -1.030  0.00  0.00    +0.101 A 
ATOM     15  N   UNL     1       0.474   1.520   0.265  0.00  0.00    -0.349 N 
ATOM     16  C   UNL     1       1.490   0.862   0.751  0.00  0.00    +0.101 A 
ATOM     17  H   UNL     1      -0.085   2.137   0.762  0.00  0.00    +0.166 HD
ENDBRANCH  10  16
ENDBRANCH   8  10
ENDBRANCH   1   8
BRANCH   1  18
ATOM     18  C   UNL     1       1.036  -1.148   5.151  0.00  0.00    -0.062 C 
BRANCH  18  19
ATOM     19  N   UNL     1      -0.370  -1.370   4.791  0.00  0.00    +0.379 N 
ATOM     20  H   UNL     1      -0.905  -0.539   4.997  0.00  0.00    -0.090 HD
ATOM     21  H   UNL     1      -0.437  -1.577   3.806  0.00  0.00    -0.090 HD
ATOM     22  H   UNL     1      -0.736  -2.145   5.324  0.00  0.00    -0.090 HD
ENDBRANCH  18  19
ENDBRANCH   1  18
TORSDOF 5
