REMARK  Name = ZINC27238366
REMARK  14 active torsions:
REMARK  status: ('A' for Active; 'I' for Inactive)
REMARK    1  A    between atoms: C_1  and  C_2
REMARK    2  A    between atoms: C_2  and  O_3
REMARK    3  A    between atoms: O_3  and  C_4
REMARK    4  A    between atoms: C_7  and  C_10
REMARK    5  A    between atoms: C_10  and  C_11
REMARK    6  A    between atoms: C_10  and  C_19
REMARK    7  A    between atoms: C_10  and  O_38
REMARK    8  A    between atoms: C_14  and  O_17
REMARK    9  A    between atoms: O_17  and  C_18
REMARK   10  A    between atoms: C_19  and  C_21
REMARK   11  A    between atoms: C_19  and  O_29
REMARK   12  A    between atoms: C_21  and  N_22
REMARK   13  A    between atoms: O_29  and  C_30
REMARK   14  A    between atoms: C_35  and  C_36
REMARK                            x       y       z     vdW  Elec       q    Type
REMARK                         _______ _______ _______ _____ _____    ______ ____
ROOT
ATOM      1  C   UNL     1      -2.925   4.829   4.173  0.00  0.00    +0.151 C 
ENDROOT
BRANCH   1   5
ATOM      2  C   UNL     1      -5.769   7.824   3.075  0.00  0.00    +0.121 A 
ATOM      3  C   UNL     1      -6.175   6.712   3.800  0.00  0.00    +0.046 A 
ATOM      4  C   UNL     1      -5.253   5.746   4.153  0.00  0.00    +0.010 A 
ATOM      5  C   UNL     1      -3.928   5.885   3.786  0.00  0.00    -0.008 A 
ATOM      6  C   UNL     1      -3.520   6.994   3.069  0.00  0.00    +0.010 A 
ATOM      7  C   UNL     1      -4.438   7.961   2.708  0.00  0.00    +0.046 A 
BRANCH   2   8
ATOM      8  O   UNL     1      -6.673   8.776   2.725  0.00  0.00    -0.492 OA
BRANCH   8  10
ATOM      9  C   UNL     1      -7.339  10.851   1.681  0.00  0.00    +0.048 C 
ATOM     10  C   UNL     1      -6.184   9.893   1.980  0.00  0.00    +0.225 C 
ENDBRANCH   8  10
ENDBRANCH   2   8
ENDBRANCH   1   5
BRANCH   1  11
ATOM     11  C   UNL     1      -1.893   5.429   5.092  0.00  0.00    -0.008 A 
ATOM     12  C   UNL     1      -0.744   5.992   4.567  0.00  0.00    +0.010 A 
ATOM     13  C   UNL     1       0.201   6.548   5.407  0.00  0.00    +0.046 A 
ATOM     14  C   UNL     1       0.003   6.532   6.780  0.00  0.00    +0.120 A 
ATOM     15  C   UNL     1      -1.148   5.962   7.305  0.00  0.00    +0.046 A 
ATOM     16  C   UNL     1      -2.093   5.412   6.460  0.00  0.00    +0.010 A 
BRANCH  14  17
ATOM     17  O   UNL     1       0.933   7.074   7.608  0.00  0.00    -0.495 OA
ATOM     18  C   UNL     1       2.093   7.643   6.998  0.00  0.00    +0.277 C 
ENDBRANCH  14  17
ENDBRANCH   1  11
BRANCH   1  19
ATOM     19  O   UNL     1      -3.595   3.759   4.843  0.00  0.00    -0.376 OA
ATOM     20  H   UNL     1      -3.022   2.891   5.203  0.00  0.00    +0.211 HD
ENDBRANCH   1  19
BRANCH   1  21
ATOM     21  C   UNL     1      -2.238   4.293   2.916  0.00  0.00    +0.198 C 
BRANCH  21  22
ATOM     22  C   UNL     1      -3.272   3.600   2.026  0.00  0.00    -0.030 C 
BRANCH  22  23
ATOM     23  N   UNL     1      -4.282   4.577   1.597  0.00  0.00    +0.382 N 
ATOM     24  C   UNL     1      -3.703   5.558   0.653  0.00  0.00    -0.079 C 
ATOM     25  C   UNL     1      -3.706   5.068  -0.770  0.00  0.00    -0.019 C 
ATOM     26  C   UNL     1      -4.987   5.580  -1.461  0.00  0.00    -0.002 C 
ATOM     27  C   UNL     1      -6.158   4.788  -1.103  0.00  0.00    -0.002 C 
ATOM     28  C   UNL     1      -6.452   4.833   0.411  0.00  0.00    -0.019 C 
ATOM     29  C   UNL     1      -5.503   3.897   1.109  0.00  0.00    -0.079 C 
ATOM     30  H   UNL     1      -4.602   5.164   2.470  0.00  0.00    -0.082 HD
ENDBRANCH  22  23
ENDBRANCH  21  22
BRANCH  21  31
ATOM     31  O   UNL     1      -1.226   3.355   3.289  0.00  0.00    -0.487 OA
BRANCH  31  32
ATOM     32  C   UNL     1      -0.211   3.159   2.407  0.00  0.00    +0.124 A 
ATOM     33  C   UNL     1      -0.162   3.892   1.230  0.00  0.00    +0.047 A 
ATOM     34  C   UNL     1       0.873   3.695   0.337  0.00  0.00    +0.023 A 
ATOM     35  C   UNL     1       1.855   2.759   0.611  0.00  0.00    +0.041 A 
ATOM     36  C   UNL     1       1.805   2.023   1.781  0.00  0.00    +0.027 A 
ATOM     37  C   UNL     1       0.774   2.221   2.679  0.00  0.00    -0.007 A 
ATOM     38  C   UNL     1       0.721   1.420   3.954  0.00  0.00    +0.047 C 
ATOM     39 CL   UNL     1       3.151   2.508  -0.517  0.00  0.00    -0.084 Cl
ENDBRANCH  31  32
ENDBRANCH  21  31
ENDBRANCH   1  21
TORSDOF 11
