REMARK  Name = ZINC59056392
REMARK  12 active torsions:
REMARK  status: ('A' for Active; 'I' for Inactive)
REMARK    1  A    between atoms: C_1  and  C_2
REMARK    2  A    between atoms: C_5  and  N_26
REMARK    3  A    between atoms: C_7  and  N_8
REMARK    4  A    between atoms: N_11  and  C_12
REMARK    5  A    between atoms: C_12  and  C_13
REMARK    6  A    between atoms: C_13  and  C_15
REMARK    7  A    between atoms: C_13  and  N_23
REMARK    8  A    between atoms: C_18  and  O_21
REMARK    9  A    between atoms: O_21  and  C_22
REMARK   10  A    between atoms: N_23  and  C_24
REMARK   11  A    between atoms: N_23  and  C_25
REMARK   12  A    between atoms: C_27  and  C_29
REMARK                            x       y       z     vdW  Elec       q    Type
REMARK                         _______ _______ _______ _____ _____    ______ ____
ROOT
ATOM      1  N   UNL     1       1.016  -1.750   2.841  0.00  0.00    -0.269 N 
ATOM      2  C   UNL     1       1.530  -2.898   3.325  0.00  0.00    +0.304 C 
ATOM      3  O   UNL     1       1.586  -3.885   2.616  0.00  0.00    -0.253 OA
ATOM      4  N   UNL     1       1.980  -2.954   4.594  0.00  0.00    -0.300 N 
ATOM      5  H   UNL     1       1.029  -0.947   3.385  0.00  0.00    +0.156 HD
ATOM      6  H   UNL     1       1.935  -2.167   5.159  0.00  0.00    +0.150 HD
ENDROOT
BRANCH   1  13
ATOM      7  C   UNL     1      -1.066   0.116   2.322  0.00  0.00    +0.045 C 
ATOM      8  C   UNL     1      -0.553  -0.820   1.258  0.00  0.00    -0.029 A 
ATOM      9  C   UNL     1      -1.093  -0.782  -0.013  0.00  0.00    +0.007 A 
ATOM     10  C   UNL     1      -0.626  -1.638  -0.991  0.00  0.00    +0.024 A 
ATOM     11  C   UNL     1       0.389  -2.541  -0.699  0.00  0.00    +0.035 A 
ATOM     12  C   UNL     1       0.933  -2.582   0.577  0.00  0.00    +0.047 A 
ATOM     13  C   UNL     1       0.466  -1.716   1.555  0.00  0.00    +0.039 A 
BRANCH  11  14
ATOM     14  N   UNL     1       0.861  -3.409  -1.690  0.00  0.00    -0.285 N 
ATOM     15  C   UNL     1       0.898  -3.007  -2.976  0.00  0.00    +0.220 C 
ATOM     16  O   UNL     1       0.609  -1.865  -3.263  0.00  0.00    -0.275 OA
ATOM     17  H   UNL     1       1.162  -4.300  -1.451  0.00  0.00    +0.155 HD
BRANCH  15  18
ATOM     18  C   UNL     1       1.298  -3.977  -4.057  0.00  0.00    +0.075 C 
ATOM     19  C   UNL     1       2.634  -3.736  -4.763  0.00  0.00    +0.013 C 
ATOM     20  C   UNL     1       1.321  -3.460  -5.497  0.00  0.00    +0.013 C 
ENDBRANCH  15  18
ENDBRANCH  11  14
ENDBRANCH   1  13
BRANCH   4  21
ATOM     21  C   UNL     1       2.538  -4.202   5.119  0.00  0.00    +0.095 C 
BRANCH  21  22
ATOM     22  C   UNL     1       3.091  -3.962   6.525  0.00  0.00    -0.021 C 
BRANCH  22  23
ATOM     23  C   UNL     1       4.238  -2.988   6.454  0.00  0.00    -0.059 A 
ATOM     24  C   UNL     1       5.492  -3.425   6.067  0.00  0.00    +0.005 A 
ATOM     25  C   UNL     1       6.545  -2.534   6.001  0.00  0.00    +0.046 A 
ATOM     26  C   UNL     1       6.345  -1.200   6.323  0.00  0.00    +0.120 A 
ATOM     27  C   UNL     1       5.087  -0.763   6.711  0.00  0.00    +0.046 A 
ATOM     28  C   UNL     1       4.035  -1.657   6.770  0.00  0.00    +0.005 A 
BRANCH  26  29
ATOM     29  O   UNL     1       7.380  -0.321   6.260  0.00  0.00    -0.495 OA
ATOM     30  C   UNL     1       7.101   1.037   6.606  0.00  0.00    +0.277 C 
ENDBRANCH  26  29
ENDBRANCH  22  23
BRANCH  22  31
ATOM     31  N   UNL     1       3.562  -5.233   7.090  0.00  0.00    +0.382 N 
ATOM     32  C   UNL     1       4.063  -5.008   8.453  0.00  0.00    -0.096 C 
ATOM     33  C   UNL     1       2.451  -6.194   7.130  0.00  0.00    -0.096 C 
ATOM     34  H   UNL     1       4.305  -5.602   6.515  0.00  0.00    -0.082 HD
ENDBRANCH  22  31
ENDBRANCH  21  22
ENDBRANCH   4  21
TORSDOF 8
