REMARK  Name = ZINC13634088
REMARK  6 active torsions:
REMARK  status: ('A' for Active; 'I' for Inactive)
REMARK    1  A    between atoms: C_1  and  C_2
REMARK    2  A    between atoms: C_5  and  N_9
REMARK    3  A    between atoms: C_18  and  C_20
REMARK    4  A    between atoms: C_20  and  S_21
REMARK    5  A    between atoms: S_21  and  C_22
REMARK    6  A    between atoms: C_25  and  C_27
REMARK                            x       y       z     vdW  Elec       q    Type
REMARK                         _______ _______ _______ _____ _____    ______ ____
ROOT
ATOM      1  N   UNL     1       0.171  -4.199   2.345  0.00  0.00    -0.328 N 
ATOM      2  C   UNL     1       0.024  -4.879   1.158  0.00  0.00    +0.180 C 
ATOM      3  N   UNL     1       0.030  -4.228   0.030  0.00  0.00    -0.371 N 
ATOM      4  N   UNL     1      -0.130  -6.250   1.163  0.00  0.00    -0.298 N 
ATOM      5  C   UNL     1      -0.011  -6.951   2.338  0.00  0.00    +0.211 A 
ATOM      6  N   UNL     1      -0.002  -8.310   2.308  0.00  0.00    -0.293 N 
ATOM      7  C   UNL     1       0.115  -9.006   3.459  0.00  0.00    +0.253 A 
ATOM      8  O   UNL     1       0.126 -10.226   3.450  0.00  0.00    -0.268 OA
ATOM      9  C   UNL     1       0.224  -8.297   4.669  0.00  0.00    +0.094 A 
ATOM     10  C   UNL     1       0.208  -6.933   4.637  0.00  0.00    +0.060 A 
ATOM     11  N   UNL     1       0.097  -6.294   3.475  0.00  0.00    -0.218 NA
ATOM     12  H   UNL     1       0.249  -4.689   3.179  0.00  0.00    +0.169 HD
ATOM     13  H   UNL     1      -0.138  -4.698  -0.802  0.00  0.00    +0.159 HD
ATOM     14  H   UNL     1       0.201  -3.273   0.022  0.00  0.00    +0.159 HD
ATOM     15  H   UNL     1      -0.322  -6.720   0.336  0.00  0.00    +0.172 HD
ATOM     16  H   UNL     1      -0.079  -8.779   1.462  0.00  0.00    +0.172 HD
ENDROOT
BRANCH   1  21
ATOM     17  C   UNL     1       0.317   1.473   2.364  0.00  0.00    +0.045 C 
ATOM     18  C   UNL     1       0.278  -0.034   2.360  0.00  0.00    -0.032 A 
ATOM     19  C   UNL     1       1.076  -0.742   1.480  0.00  0.00    +0.007 A 
ATOM     20  C   UNL     1       1.042  -2.123   1.473  0.00  0.00    +0.026 A 
ATOM     21  C   UNL     1       0.207  -2.801   2.351  0.00  0.00    +0.043 A 
ATOM     22  C   UNL     1      -0.594  -2.088   3.234  0.00  0.00    +0.046 A 
ATOM     23  C   UNL     1      -0.552  -0.706   3.240  0.00  0.00    +0.046 A 
ATOM     24 CL   UNL     1      -1.546   0.187   4.348  0.00  0.00    -0.083 Cl
ENDBRANCH   1  21
BRANCH  10  25
ATOM     25  C   UNL     1       0.323  -6.149   5.919  0.00  0.00    +0.132 C 
BRANCH  25  26
ATOM     26  S   UNL     1       1.989  -5.442   6.048  0.00  0.00    -0.091 S 
BRANCH  26  27
ATOM     27  C   UNL     1       1.963  -4.568   7.578  0.00  0.00    +0.159 A 
ATOM     28  N   UNL     1       0.988  -4.432   8.468  0.00  0.00    -0.135 NA
ATOM     29  N   UNL     1       1.142  -3.762   9.525  0.00  0.00    -0.146 NA
ATOM     30  C   UNL     1       2.276  -3.156   9.814  0.00  0.00    +0.100 A 
ATOM     31  S   UNL     1       3.248  -3.615   8.382  0.00  0.00    -0.044 S 
ATOM     32  C   UNL     1       2.650  -2.320  11.010  0.00  0.00    +0.075 C 
ENDBRANCH  26  27
ENDBRANCH  25  26
ENDBRANCH  10  25
TORSDOF 4
