REMARK  Name = ZINC66243453
REMARK  10 active torsions:
REMARK  status: ('A' for Active; 'I' for Inactive)
REMARK    1  A    between atoms: C_1  and  C_2
REMARK    2  A    between atoms: C_5  and  C_26
REMARK    3  A    between atoms: N_8  and  C_10
REMARK    4  A    between atoms: C_10  and  C_11
REMARK    5  A    between atoms: C_16  and  C_17
REMARK    6  A    between atoms: C_17  and  N_18
REMARK    7  A    between atoms: N_20  and  C_21
REMARK    8  A    between atoms: C_21  and  C_22
REMARK    9  A    between atoms: C_22  and  O_23
REMARK   10  A    between atoms: O_23  and  C_24
REMARK                            x       y       z     vdW  Elec       q    Type
REMARK                         _______ _______ _______ _____ _____    ______ ____
ROOT
ATOM      1  C   UNL     1       3.041  -2.188   2.520  0.00  0.00    -0.059 A 
ATOM      2  C   UNL     1       3.941  -3.113   2.025  0.00  0.00    +0.002 A 
ATOM      3  C   UNL     1       5.246  -2.739   1.766  0.00  0.00    +0.000 A 
ATOM      4  C   UNL     1       5.651  -1.438   2.002  0.00  0.00    +0.000 A 
ATOM      5  C   UNL     1       4.752  -0.513   2.497  0.00  0.00    +0.005 A 
ATOM      6  C   UNL     1       3.445  -0.886   2.751  0.00  0.00    -0.027 A 
ENDROOT
BRANCH   1   7
ATOM      7  C   UNL     1       1.618  -2.596   2.802  0.00  0.00    -0.043 C 
BRANCH   7  13
ATOM      8  C   UNL     1       1.374  -5.328  -1.253  0.00  0.00    +0.005 C 
ATOM      9  C   UNL     1       1.299  -5.353   0.275  0.00  0.00    -0.031 C 
ATOM     10  C   UNL     1      -0.060  -5.909   0.711  0.00  0.00    +0.003 C 
ATOM     11  C   UNL     1      -0.155  -5.856   2.238  0.00  0.00    -0.031 C 
ATOM     12  C   UNL     1       0.060  -4.415   2.708  0.00  0.00    -0.075 C 
ATOM     13  N   UNL     1       1.386  -3.951   2.283  0.00  0.00    +0.383 N 
ATOM     14  C   UNL     1       1.461  -3.931   0.817  0.00  0.00    -0.075 C 
ATOM     15  C   UNL     1       0.918  -6.758   2.849  0.00  0.00    +0.005 C 
ATOM     16  H   UNL     1       2.091  -4.574   2.646  0.00  0.00    -0.081 HD
ENDBRANCH   7  13
ENDBRANCH   1   7
BRANCH   6  17
ATOM     17  C   UNL     1       2.463   0.124   3.285  0.00  0.00    +0.151 C 
BRANCH  17  18
ATOM     18  N   UNL     1       2.228  -0.129   4.709  0.00  0.00    -0.354 N 
ATOM     19  C   UNL     1       1.362   0.672   5.416  0.00  0.00    +0.169 C 
ATOM     20  N   UNL     1       1.153   0.448   6.683  0.00  0.00    -0.356 N 
ATOM     21  N   UNL     1       0.717   1.710   4.786  0.00  0.00    -0.371 N 
ATOM     22  H   UNL     1       2.684  -0.861   5.154  0.00  0.00    +0.163 HD
ATOM     23  H   UNL     1       0.872   1.877   3.843  0.00  0.00    +0.159 HD
ATOM     24  H   UNL     1       0.106   2.275   5.285  0.00  0.00    +0.159 HD
ATOM     25  H   UNL     1       0.542   1.012   7.181  0.00  0.00    +0.162 HD
BRANCH  20  26
ATOM     26  C   UNL     1       1.841  -0.658   7.354  0.00  0.00    +0.143 C 
BRANCH  26  27
ATOM     27  C   UNL     1       1.423  -0.702   8.825  0.00  0.00    +0.180 C 
BRANCH  27  28
ATOM     28  O   UNL     1       0.031  -1.012   8.915  0.00  0.00    -0.381 OA
ATOM     29  C   UNL     1      -0.464  -1.077  10.254  0.00  0.00    +0.194 C 
ENDBRANCH  27  28
ENDBRANCH  26  27
ENDBRANCH  20  26
ENDBRANCH  17  18
ENDBRANCH   6  17
TORSDOF 7
