REMARK  Name = ZINC21239281
REMARK  13 active torsions:
REMARK  status: ('A' for Active; 'I' for Inactive)
REMARK    1  A    between atoms: C_1  and  C_2
REMARK    2  A    between atoms: C_2  and  C_3
REMARK    3  A    between atoms: C_3  and  C_4
REMARK    4  A    between atoms: C_4  and  N_5
REMARK    5  A    between atoms: C_9  and  S_32
REMARK    6  A    between atoms: C_13  and  C_14
REMARK    7  A    between atoms: C_14  and  O_15
REMARK    8  A    between atoms: O_15  and  C_16
REMARK    9  A    between atoms: C_16  and  C_18
REMARK   10  A    between atoms: C_18  and  C_19
REMARK   11  A    between atoms: C_18  and  C_25
REMARK   12  A    between atoms: C_18  and  O_31
REMARK   13  A    between atoms: S_32  and  N_35
REMARK                            x       y       z     vdW  Elec       q    Type
REMARK                         _______ _______ _______ _____ _____    ______ ____
ROOT
ATOM      1  N   UNL     1     -12.734  -6.720  -0.901  0.00  0.00    -0.325 N 
ATOM      2  C   UNL     1     -12.497  -8.062  -0.683  0.00  0.00    +0.069 A 
ATOM      3  C   UNL     1     -12.473  -8.868   0.447  0.00  0.00    +0.030 A 
ATOM      4  C   UNL     1     -12.194 -10.213   0.321  0.00  0.00    +0.030 A 
ATOM      5  C   UNL     1     -11.937 -10.763  -0.927  0.00  0.00    +0.107 A 
ATOM      6  C   UNL     1     -11.951  -9.984  -2.049  0.00  0.00    +0.058 A 
ATOM      7  C   UNL     1     -12.237  -8.620  -1.946  0.00  0.00    +0.091 A 
ATOM      8  N   UNL     1     -12.327  -7.612  -2.850  0.00  0.00    -0.229 NA
ATOM      9  C   UNL     1     -12.618  -6.501  -2.239  0.00  0.00    +0.149 A 
ENDROOT
BRANCH   5  10
ATOM     10  S   UNL     1     -11.583 -12.484  -1.064  0.00  0.00    +0.056 S 
ATOM     11  O   UNL     1     -11.087 -12.899   0.201  0.00  0.00    -0.153 OA
ATOM     12  O   UNL     1     -10.842 -12.651  -2.265  0.00  0.00    -0.153 OA
BRANCH  10  13
ATOM     13  N   UNL     1     -13.027 -13.265  -1.286  0.00  0.00    -0.204 NA
ATOM     14  H   UNL     1     -12.848 -14.346  -1.377  0.00  0.00    +0.144 HD
ATOM     15  H   UNL     1     -13.507 -12.894  -2.204  0.00  0.00    +0.144 HD
ENDBRANCH  10  13
ENDBRANCH   5  10
BRANCH   1  16
ATOM     16  C   UNL     1     -13.052  -5.717   0.118  0.00  0.00    +0.123 C 
BRANCH  16  17
ATOM     17  C   UNL     1     -11.757  -5.092   0.640  0.00  0.00    +0.021 C 
BRANCH  17  19
ATOM     18  C   UNL     1     -10.793  -3.420   2.227  0.00  0.00    +0.004 C 
ATOM     19  C   UNL     1     -12.089  -4.045   1.705  0.00  0.00    -0.002 C 
ENDBRANCH  17  19
ENDBRANCH  16  17
ENDBRANCH   1  16
BRANCH   9  20
ATOM     20  C   UNL     1     -12.801  -5.166  -2.914  0.00  0.00    +0.306 C 
BRANCH  20  21
ATOM     21  O   UNL     1     -11.525  -4.474  -2.972  0.00  0.00    -0.454 OA
BRANCH  21  22
ATOM     22  C   UNL     1     -11.515  -3.262  -3.548  0.00  0.00    +0.349 C 
ATOM     23  O   UNL     1     -12.538  -2.794  -3.989  0.00  0.00    -0.247 OA
BRANCH  22  24
ATOM     24  C   UNL     1     -10.228  -2.484  -3.644  0.00  0.00    +0.213 C 
BRANCH  24  25
ATOM     25  C   UNL     1     -10.309  -1.519  -4.799  0.00  0.00    -0.001 A 
ATOM     26  C   UNL     1      -9.450  -1.654  -5.874  0.00  0.00    +0.007 A 
ATOM     27  C   UNL     1      -9.528  -0.771  -6.935  0.00  0.00    +0.000 A 
ATOM     28  C   UNL     1     -10.458   0.251  -6.917  0.00  0.00    +0.000 A 
ATOM     29  C   UNL     1     -11.313   0.389  -5.840  0.00  0.00    +0.000 A 
ATOM     30  C   UNL     1     -11.239  -0.497  -4.781  0.00  0.00    +0.007 A 
ENDBRANCH  24  25
BRANCH  24  31
ATOM     31  C   UNL     1     -10.006  -1.719  -2.365  0.00  0.00    -0.001 A 
ATOM     32  C   UNL     1     -11.067  -1.086  -1.745  0.00  0.00    +0.007 A 
ATOM     33  C   UNL     1     -10.864  -0.388  -0.569  0.00  0.00    +0.000 A 
ATOM     34  C   UNL     1      -9.599  -0.315  -0.018  0.00  0.00    +0.000 A 
ATOM     35  C   UNL     1      -8.537  -0.944  -0.641  0.00  0.00    +0.000 A 
ATOM     36  C   UNL     1      -8.740  -1.646  -1.814  0.00  0.00    +0.007 A 
ENDBRANCH  24  31
BRANCH  24  37
ATOM     37  O   UNL     1      -9.140  -3.387  -3.854  0.00  0.00    -0.370 OA
ATOM     38  H   UNL     1      -8.115  -3.001  -3.950  0.00  0.00    +0.212 HD
ENDBRANCH  24  37
ENDBRANCH  22  24
ENDBRANCH  21  22
ENDBRANCH  20  21
ENDBRANCH   9  20
TORSDOF 12
