REMARK  Name = ZINC63027495
REMARK  9 active torsions:
REMARK  status: ('A' for Active; 'I' for Inactive)
REMARK    1  A    between atoms: C_1  and  C_2
REMARK    2  A    between atoms: C_2  and  C_4
REMARK    3  A    between atoms: C_2  and  N_21
REMARK    4  A    between atoms: C_4  and  C_6
REMARK    5  A    between atoms: C_4  and  C_18
REMARK    6  A    between atoms: C_11  and  S_12
REMARK    7  A    between atoms: S_12  and  C_15
REMARK    8  A    between atoms: C_18  and  C_19
REMARK    9  A    between atoms: C_18  and  C_20
REMARK                            x       y       z     vdW  Elec       q    Type
REMARK                         _______ _______ _______ _____ _____    ______ ____
ROOT
ATOM      1  C   UNL     1       2.430   0.084   1.480  0.00  0.00    -0.021 A 
ATOM      2  C   UNL     1       2.565   1.435   1.741  0.00  0.00    +0.006 A 
ATOM      3  C   UNL     1       3.776   1.936   2.180  0.00  0.00    +0.000 A 
ATOM      4  C   UNL     1       4.852   1.087   2.359  0.00  0.00    +0.002 A 
ATOM      5  C   UNL     1       4.716  -0.264   2.099  0.00  0.00    +0.027 A 
ATOM      6  C   UNL     1       3.504  -0.766   1.664  0.00  0.00    +0.098 A 
ENDROOT
BRANCH   6   7
ATOM      7  S   UNL     1       3.330  -2.489   1.338  0.00  0.00    +0.058 S 
ATOM      8  O   UNL     1       2.680  -2.555   0.076  0.00  0.00    -0.164 OA
ATOM      9  O   UNL     1       4.635  -3.024   1.510  0.00  0.00    -0.164 OA
BRANCH   7  10
ATOM     10  C   UNL     1       2.227  -3.101   2.642  0.00  0.00    +0.485 C 
ATOM     11  F   UNL     1       2.711  -2.697   3.890  0.00  0.00    -0.183 F 
ATOM     12  F   UNL     1       0.943  -2.579   2.449  0.00  0.00    -0.183 F 
ENDBRANCH   7  10
ENDBRANCH   6   7
BRANCH   1  13
ATOM     13  C   UNL     1       1.110  -0.463   1.001  0.00  0.00    +0.009 C 
BRANCH  13  14
ATOM     14  C   UNL     1      -0.015   0.067   1.892  0.00  0.00    -0.011 C 
ATOM     15  C   UNL     1      -1.325  -0.638   1.534  0.00  0.00    +0.008 C 
ATOM     16  C   UNL     1       0.325  -0.204   3.359  0.00  0.00    +0.008 C 
ENDBRANCH  13  14
BRANCH  13  18
ATOM     17  C   UNL     1       1.980  -0.570  -1.339  0.00  0.00    -0.014 C 
ATOM     18  C   UNL     1       0.868  -0.019  -0.443  0.00  0.00    -0.071 C 
BRANCH  18  19
ATOM     19  N   UNL     1       0.866   1.448  -0.511  0.00  0.00    +0.380 N 
ATOM     20  H   UNL     1       0.568   1.742  -1.429  0.00  0.00    -0.090 HD
ATOM     21  H   UNL     1       0.231   1.816   0.182  0.00  0.00    -0.090 HD
ATOM     22  H   UNL     1       1.796   1.794  -0.332  0.00  0.00    -0.090 HD
ENDBRANCH  18  19
ENDBRANCH  13  18
ENDBRANCH   1  13
TORSDOF 6
