REMARK  Name = ZINC42273343
REMARK  3 active torsions:
REMARK  status: ('A' for Active; 'I' for Inactive)
REMARK    1  A    between atoms: C_1  and  C_2
REMARK    2  A    between atoms: C_11  and  N_13
REMARK    3  A    between atoms: N_13  and  C_14
REMARK                            x       y       z     vdW  Elec       q    Type
REMARK                         _______ _______ _______ _____ _____    ______ ____
ROOT
ATOM      1  C   UNL     1       0.562   1.623   0.548  0.00  0.00    +0.045 C 
ATOM      2  C   UNL     1       0.443   0.129   0.392  0.00  0.00    -0.029 A 
ATOM      3  C   UNL     1       0.440  -0.433  -0.868  0.00  0.00    +0.005 A 
ATOM      4  C   UNL     1       0.330  -1.803  -1.022  0.00  0.00    +0.001 A 
ATOM      5  C   UNL     1       0.224  -2.615   0.094  0.00  0.00    +0.004 A 
ATOM      6  C   UNL     1       0.228  -2.057   1.352  0.00  0.00    -0.031 A 
ATOM      7  C   UNL     1       0.342  -0.682   1.520  0.00  0.00    +0.038 A 
ATOM      8  N   UNL     1       0.329  -0.359   2.878  0.00  0.00    -0.286 N 
ATOM      9  C   UNL     1       0.216  -1.447   3.658  0.00  0.00    +0.208 C 
ATOM     10  O   UNL     1       0.178  -1.463   4.870  0.00  0.00    -0.277 OA
ATOM     11  C   UNL     1       0.130  -2.648   2.740  0.00  0.00    +0.049 C 
ATOM     12  H   UNL     1       0.394   0.546   3.219  0.00  0.00    +0.155 HD
ENDROOT
BRANCH  11  13
ATOM     13  N   UNL     1      -1.147  -3.353   2.910  0.00  0.00    +0.392 N 
ATOM     14  H   UNL     1      -1.244  -3.645   3.871  0.00  0.00    -0.084 HD
ATOM     15  H   UNL     1      -1.907  -2.736   2.668  0.00  0.00    -0.084 HD
BRANCH  13  16
ATOM     16  C   UNL     1      -1.176  -4.532   2.035  0.00  0.00    -0.048 C 
ATOM     17  C   UNL     1      -0.066  -5.509   2.458  0.00  0.00    +0.008 C 
ATOM     18  C   UNL     1      -0.313  -6.865   1.737  0.00  0.00    +0.164 C 
ATOM     19  S   UNL     1      -2.145  -6.995   1.883  0.00  0.00    -0.033 S 
ATOM     20  O   UNL     1      -2.463  -7.725   3.061  0.00  0.00    -0.174 OA
ATOM     21  O   UNL     1      -2.680  -7.414   0.635  0.00  0.00    -0.174 OA
ATOM     22  C   UNL     1      -2.556  -5.223   2.149  0.00  0.00    +0.150 C 
ENDBRANCH  13  16
ENDBRANCH  11  13
TORSDOF 2
