REMARK  Name = ZINC19992644
REMARK  8 active torsions:
REMARK  status: ('A' for Active; 'I' for Inactive)
REMARK    1  A    between atoms: C_1  and  C_2
REMARK    2  A    between atoms: C_2  and  N_3
REMARK    3  A    between atoms: C_7  and  C_9
REMARK    4  A    between atoms: C_9  and  N_10
REMARK    5  A    between atoms: N_10  and  S_11
REMARK    6  A    between atoms: S_11  and  C_14
REMARK    7  A    between atoms: C_16  and  N_22
REMARK    8  A    between atoms: C_17  and  C_21
REMARK                            x       y       z     vdW  Elec       q    Type
REMARK                         _______ _______ _______ _____ _____    ______ ____
ROOT
ATOM      1  S   UNL     1      -3.106  -0.686  -2.171  0.00  0.00    +0.058 S 
ATOM      2  O   UNL     1      -4.371  -0.129  -1.840  0.00  0.00    -0.153 OA
ATOM      3  O   UNL     1      -2.399  -0.323  -3.349  0.00  0.00    -0.153 OA
ENDROOT
BRANCH   1   4
ATOM      4  C   UNL     1      -3.327  -2.433  -2.236  0.00  0.00    +0.108 A 
ATOM      5  C   UNL     1      -4.361  -3.024  -1.537  0.00  0.00    +0.051 A 
ATOM      6  C   UNL     1      -4.536  -4.401  -1.588  0.00  0.00    +0.031 A 
ATOM      7  C   UNL     1      -3.668  -5.180  -2.344  0.00  0.00    -0.011 A 
ATOM      8  C   UNL     1      -2.636  -4.583  -3.042  0.00  0.00    +0.047 A 
ATOM      9  C   UNL     1      -2.469  -3.210  -2.992  0.00  0.00    +0.049 A 
ATOM     10 CL   UNL     1      -1.551  -5.556  -3.986  0.00  0.00    -0.083 Cl
ATOM     11  C   UNL     1      -3.854  -6.675  -2.403  0.00  0.00    +0.047 C 
BRANCH   6  12
ATOM     12  N   UNL     1      -5.581  -5.001  -0.882  0.00  0.00    -0.358 N 
ATOM     13  H   UNL     1      -5.718  -6.092  -0.924  0.00  0.00    +0.142 HD
ATOM     14  H   UNL     1      -6.267  -4.383  -0.285  0.00  0.00    +0.142 HD
ENDBRANCH   6  12
ENDBRANCH   1   4
BRANCH   1  15
ATOM     15  N   UNL     1      -2.099  -0.367  -0.896  0.00  0.00    -0.191 NA
ATOM     16  H   UNL     1      -2.520   0.052   0.029  0.00  0.00    +0.148 HD
BRANCH  15  17
ATOM     17  C   UNL     1      -0.713  -0.840  -0.922  0.00  0.00    +0.090 C 
BRANCH  17  22
ATOM     18  N   UNL     1       1.512  -0.515   0.075  0.00  0.00    +0.382 N 
ATOM     19  C   UNL     1       1.875  -1.122   1.374  0.00  0.00    -0.078 C 
ATOM     20  C   UNL     1       0.879  -0.509   2.389  0.00  0.00    -0.020 C 
ATOM     21  C   UNL     1      -0.421  -0.430   1.545  0.00  0.00    -0.016 C 
ATOM     22  C   UNL     1       0.102  -0.089   0.134  0.00  0.00    -0.053 C 
ATOM     23  H   UNL     1       2.153   0.357  -0.121  0.00  0.00    -0.081 HD
BRANCH  18  25
ATOM     24  C   UNL     1       3.224  -1.780  -1.136  0.00  0.00    -0.017 C 
ATOM     25  C   UNL     1       1.732  -1.460  -1.028  0.00  0.00    -0.082 C 
ENDBRANCH  18  25
ENDBRANCH  17  22
ENDBRANCH  15  17
ENDBRANCH   1  15
TORSDOF 6
