REMARK  Name = ZINC66133129
REMARK  7 active torsions:
REMARK  status: ('A' for Active; 'I' for Inactive)
REMARK    1  A    between atoms: C_4  and  C_7
REMARK    2  A    between atoms: C_7  and  C_8
REMARK    3  A    between atoms: C_8  and  O_9
REMARK    4  A    between atoms: O_9  and  C_10
REMARK    5  A    between atoms: C_19  and  C_20
REMARK    6  A    between atoms: N_31  and  C_32
REMARK    7  A    between atoms: C_32  and  C_33
REMARK                            x       y       z     vdW  Elec       q    Type
REMARK                         _______ _______ _______ _____ _____    ______ ____
ROOT
ATOM      1  C   UNL     1       5.640  -1.366   2.051  0.00  0.00    +0.128 A 
ATOM      2  C   UNL     1       4.784  -0.838   3.022  0.00  0.00    +0.046 A 
ATOM      3  C   UNL     1       5.086  -0.930   4.345  0.00  0.00    +0.012 A 
ATOM      4  C   UNL     1       6.275  -1.564   4.746  0.00  0.00    -0.017 A 
ATOM      5  C   UNL     1       6.618  -1.677   6.104  0.00  0.00    +0.008 A 
ATOM      6  C   UNL     1       7.777  -2.297   6.457  0.00  0.00    +0.001 A 
ATOM      7  C   UNL     1       8.632  -2.824   5.491  0.00  0.00    +0.001 A 
ATOM      8  C   UNL     1       8.333  -2.733   4.166  0.00  0.00    +0.009 A 
ATOM      9  C   UNL     1       7.145  -2.100   3.763  0.00  0.00    -0.008 A 
ATOM     10  C   UNL     1       6.801  -1.992   2.405  0.00  0.00    +0.040 A 
ENDROOT
BRANCH  10  11
ATOM     11  C   UNL     1       7.710  -2.561   1.346  0.00  0.00    +0.197 C 
ATOM     12  N   UNL     1       8.744  -1.574   1.012  0.00  0.00    -0.321 N 
ATOM     13  C   UNL     1       8.394  -0.490   0.216  0.00  0.00    +0.041 A 
ATOM     14  C   UNL     1       9.028   0.736   0.326  0.00  0.00    +0.024 A 
ATOM     15  C   UNL     1       8.639   1.782  -0.487  0.00  0.00    +0.002 A 
ATOM     16  C   UNL     1       7.620   1.616  -1.411  0.00  0.00    +0.001 A 
ATOM     17  C   UNL     1       6.977   0.401  -1.534  0.00  0.00    +0.015 A 
ATOM     18  C   UNL     1       7.360  -0.663  -0.722  0.00  0.00    +0.058 A 
ATOM     19  C   UNL     1       6.714  -1.984  -0.817  0.00  0.00    +0.250 C 
ATOM     20  O   UNL     1       6.002  -2.254  -1.766  0.00  0.00    -0.270 OA
ATOM     21  N   UNL     1       6.922  -2.888   0.158  0.00  0.00    -0.272 N 
ATOM     22  H   UNL     1       9.651  -1.676   1.340  0.00  0.00    +0.148 HD
BRANCH  21  23
ATOM     23  C   UNL     1       6.346  -4.229   0.024  0.00  0.00    +0.141 C 
BRANCH  23  24
ATOM     24  C   UNL     1       5.018  -4.291   0.781  0.00  0.00    +0.136 C 
ATOM     25  C   UNL     1       4.460  -5.730   0.744  0.00  0.00    +0.035 C 
ATOM     26  C   UNL     1       2.938  -5.489   0.557  0.00  0.00    +0.031 C 
ATOM     27  C   UNL     1       2.948  -4.216  -0.327  0.00  0.00    +0.160 C 
ATOM     28  O   UNL     1       4.058  -3.436   0.150  0.00  0.00    -0.375 OA
ENDBRANCH  23  24
ENDBRANCH  21  23
ENDBRANCH  10  11
BRANCH   1  29
ATOM     29  O   UNL     1       5.311  -1.259   0.737  0.00  0.00    -0.491 OA
BRANCH  29  30
ATOM     30  C   UNL     1       4.063  -0.633   0.430  0.00  0.00    +0.233 C 
BRANCH  30  31
ATOM     31  C   UNL     1       3.822  -0.691  -1.080  0.00  0.00    +0.076 C 
BRANCH  31  35
ATOM     32  C   UNL     1       0.220   1.400  -2.029  0.00  0.00    +0.000 A 
ATOM     33  C   UNL     1       1.411   2.092  -1.917  0.00  0.00    +0.000 A 
ATOM     34  C   UNL     1       2.577   1.415  -1.610  0.00  0.00    +0.004 A 
ATOM     35  C   UNL     1       2.551   0.047  -1.414  0.00  0.00    -0.044 A 
ATOM     36  C   UNL     1       1.359  -0.645  -1.525  0.00  0.00    +0.004 A 
ATOM     37  C   UNL     1       0.194   0.032  -1.834  0.00  0.00    +0.000 A 
ENDBRANCH  31  35
ENDBRANCH  30  31
ENDBRANCH  29  30
ENDBRANCH   1  29
TORSDOF 7
