REMARK  Name = ZINC66747434
REMARK  6 active torsions:
REMARK  status: ('A' for Active; 'I' for Inactive)
REMARK    1  A    between atoms: C_1  and  N_2
REMARK    2  A    between atoms: N_10  and  C_14
REMARK    3  A    between atoms: C_14  and  C_15
REMARK    4  A    between atoms: C_15  and  C_16
REMARK    5  A    between atoms: N_18  and  C_19
REMARK    6  A    between atoms: C_19  and  C_20
REMARK                            x       y       z     vdW  Elec       q    Type
REMARK                         _______ _______ _______ _____ _____    ______ ____
ROOT
ATOM      1  C   UNL     1      -0.018   1.465   0.010  0.00  0.00    -0.096 C 
ATOM      2  N   UNL     1       0.002  -0.004   0.002  0.00  0.00    +0.378 N 
ATOM      3  C   UNL     1      -1.376  -0.510   0.001  0.00  0.00    -0.077 C 
ATOM      4  C   UNL     1      -1.360  -2.038  -0.100  0.00  0.00    +0.017 C 
ATOM      5  C   UNL     1      -0.586  -2.614   1.081  0.00  0.00    +0.109 C 
ATOM      6  C   UNL     1       0.816  -2.015   1.141  0.00  0.00    +0.017 C 
ATOM      7  C   UNL     1       0.712  -0.488   1.192  0.00  0.00    -0.077 C 
ATOM      8  C   UNL     1      -0.515  -4.120   0.984  0.00  0.00    +0.246 C 
ATOM      9  O   UNL     1      -0.004  -4.775   0.101  0.00  0.00    -0.273 OA
ATOM     10  N   UNL     1      -1.139  -4.581   2.088  0.00  0.00    -0.224 N 
ATOM     11  C   UNL     1      -1.587  -3.580   2.856  0.00  0.00    +0.309 C 
ATOM     12  O   UNL     1      -2.183  -3.745   3.902  0.00  0.00    -0.252 OA
ATOM     13  N   UNL     1      -1.305  -2.369   2.337  0.00  0.00    -0.285 N 
ATOM     14  H   UNL     1      -1.531  -1.507   2.719  0.00  0.00    +0.151 HD
ATOM     15  H   UNL     1       0.477  -0.328  -0.827  0.00  0.00    -0.082 HD
ENDROOT
BRANCH  10  16
ATOM     16  C   UNL     1      -1.307  -6.002   2.406  0.00  0.00    +0.127 C 
BRANCH  16  17
ATOM     17  C   UNL     1      -0.112  -6.484   3.231  0.00  0.00    +0.115 C 
BRANCH  17  18
ATOM     18  C   UNL     1      -0.284  -7.945   3.558  0.00  0.00    +0.215 C 
ATOM     19  O   UNL     1      -1.266  -8.541   3.170  0.00  0.00    -0.276 OA
ATOM     20  N   UNL     1       0.653  -8.588   4.282  0.00  0.00    -0.315 N 
ATOM     21  H   UNL     1       1.438  -8.111   4.593  0.00  0.00    +0.149 HD
BRANCH  20  22
ATOM     22  C   UNL     1       0.486 -10.008   4.600  0.00  0.00    +0.107 C 
BRANCH  22  23
ATOM     23  C   UNL     1       1.681 -10.490   5.425  0.00  0.00    +0.006 C 
ATOM     24  C   UNL     1       2.951 -10.413   4.576  0.00  0.00    +0.005 C 
ATOM     25  C   UNL     1       4.146 -10.895   5.401  0.00  0.00    +0.000 C 
ATOM     26  C   UNL     1       3.913 -12.342   5.839  0.00  0.00    +0.000 C 
ATOM     27  C   UNL     1       2.642 -12.420   6.688  0.00  0.00    +0.000 C 
ATOM     28  C   UNL     1       1.447 -11.938   5.863  0.00  0.00    +0.005 C 
ENDBRANCH  22  23
ENDBRANCH  20  22
ENDBRANCH  17  18
ENDBRANCH  16  17
ENDBRANCH  10  16
TORSDOF 5
