REMARK  Name = ZINC12659320
REMARK  15 active torsions:
REMARK  status: ('A' for Active; 'I' for Inactive)
REMARK    1  A    between atoms: C_1  and  C_2
REMARK    2  A    between atoms: N_6  and  O_7
REMARK    3  A    between atoms: O_7  and  C_8
REMARK    4  A    between atoms: C_8  and  C_9
REMARK    5  A    between atoms: N_11  and  C_12
REMARK    6  A    between atoms: C_12  and  C_14
REMARK    7  A    between atoms: C_12  and  C_19
REMARK    8  A    between atoms: C_14  and  C_15
REMARK    9  A    between atoms: C_15  and  C_16
REMARK   10  A    between atoms: C_16  and  C_17
REMARK   11  A    between atoms: C_19  and  O_21
REMARK   12  A    between atoms: O_21  and  C_22
REMARK   13  A    between atoms: C_33  and  C_42
REMARK   14  A    between atoms: C_38  and  C_39
REMARK   15  A    between atoms: C_38  and  O_41
REMARK                            x       y       z     vdW  Elec       q    Type
REMARK                         _______ _______ _______ _____ _____    ______ ____
ROOT
ATOM      1  C   UNL     1       0.389   2.509   1.155  0.00  0.00    +0.016 C 
ATOM      2  C   UNL     1       0.349   4.036   0.998  0.00  0.00    -0.007 C 
ATOM      3  C   UNL     1      -0.395   4.498   2.227  0.00  0.00    +0.017 C 
ATOM      4  C   UNL     1      -1.246   5.738   1.968  0.00  0.00    +0.059 C 
ATOM      5  C   UNL     1      -2.157   5.456   0.788  0.00  0.00    +0.080 C 
ATOM      6  N   UNL     1      -3.417   5.760   0.820  0.00  0.00    -0.089 NA
ATOM      7  C   UNL     1      -1.534   4.851  -0.404  0.00  0.00    +0.026 C 
ATOM      8  C   UNL     1      -0.354   4.257  -0.297  0.00  0.00    -0.062 C 
ATOM      9  C   UNL     1       0.344   3.779  -1.558  0.00  0.00    +0.031 C 
ATOM     10  C   UNL     1       1.722   4.425  -1.591  0.00  0.00    +0.008 C 
ATOM     11  C   UNL     1       2.539   4.177  -0.331  0.00  0.00    -0.003 C 
ATOM     12  C   UNL     1       1.796   4.439   0.964  0.00  0.00    +0.002 C 
ATOM     13  C   UNL     1       2.048   5.855   1.467  0.00  0.00    +0.005 C 
ATOM     14  C   UNL     1       3.502   5.982   1.952  0.00  0.00    +0.011 C 
ATOM     15  C   UNL     1       4.412   5.238   1.001  0.00  0.00    +0.011 C 
ATOM     16  C   UNL     1       3.743   5.112  -0.383  0.00  0.00    +0.002 C 
ATOM     17  C   UNL     1       4.899   4.602  -1.258  0.00  0.00    +0.008 C 
ATOM     18  C   UNL     1       6.138   5.357  -0.710  0.00  0.00    +0.049 C 
ATOM     19  C   UNL     1       5.713   5.980   0.642  0.00  0.00    +0.132 C 
ATOM     20  C   UNL     1       4.795   3.873   1.573  0.00  0.00    +0.015 C 
ENDROOT
BRANCH  19  21
ATOM     21  C   UNL     1       6.736   5.731   1.666  0.00  0.00    -0.070 C 
ATOM     22  C   UNL     1       7.553   5.533   2.485  0.00  0.00    +0.007 C 
ENDBRANCH  19  21
BRANCH  19  23
ATOM     23  O   UNL     1       5.469   7.376   0.493  0.00  0.00    -0.376 OA
ATOM     24  H   UNL     1       6.242   7.882   0.208  0.00  0.00    +0.211 HD
ENDBRANCH  19  23
BRANCH   6  25
ATOM     25  O   UNL     1      -4.234   5.511  -0.310  0.00  0.00    -0.384 OA
BRANCH  25  26
ATOM     26  C   UNL     1      -5.599   5.895  -0.136  0.00  0.00    +0.358 C 
BRANCH  26  27
ATOM     27  C   UNL     1      -6.372   5.587  -1.393  0.00  0.00    +0.254 C 
ATOM     28  O   UNL     1      -5.808   5.089  -2.344  0.00  0.00    -0.272 OA
ATOM     29  N   UNL     1      -7.689   5.866  -1.460  0.00  0.00    -0.299 N 
ATOM     30  H   UNL     1      -8.139   6.264  -0.699  0.00  0.00    +0.150 HD
BRANCH  29  31
ATOM     31  C   UNL     1      -8.440   5.567  -2.682  0.00  0.00    +0.182 C 
BRANCH  31  32
ATOM     32  C   UNL     1      -8.892   4.130  -2.654  0.00  0.00    +0.327 C 
ATOM     33  O   UNL     1      -8.616   3.427  -1.711  0.00  0.00    -0.249 OA
BRANCH  32  34
ATOM     34  O   UNL     1      -9.602   3.630  -3.678  0.00  0.00    -0.467 OA
ATOM     35  C   UNL     1     -10.005   2.238  -3.584  0.00  0.00    +0.280 C 
ENDBRANCH  32  34
ENDBRANCH  31  32
BRANCH  31  36
ATOM     36  C   UNL     1      -9.661   6.485  -2.768  0.00  0.00    +0.034 C 
BRANCH  36  37
ATOM     37  C   UNL     1      -9.198   7.935  -2.921  0.00  0.00    +0.010 C 
BRANCH  37  38
ATOM     38  C   UNL     1     -10.419   8.853  -3.007  0.00  0.00    +0.068 C 
BRANCH  38  39
ATOM     39  C   UNL     1      -9.964  10.282  -3.158  0.00  0.00    +0.063 C 
ATOM     40  N   UNL     1     -10.889  11.289  -3.255  0.00  0.00    -0.348 N 
ATOM     41  H   UNL     1      -8.310  11.446  -3.291  0.00  0.00    +0.157 HD
ATOM     42  H   UNL     1     -11.836  11.082  -3.226  0.00  0.00    +0.143 HD
ATOM     43  H   UNL     1     -10.595  12.208  -3.352  0.00  0.00    +0.143 HD
ATOM     44  N   UNL     1      -8.668  10.496  -3.190  0.00  0.00    -0.391 N 
ATOM     45  H   UNL     1      -8.015   9.707  -3.113  0.00  0.00    +0.157 HD
ENDBRANCH  38  39
ENDBRANCH  37  38
ENDBRANCH  36  37
ENDBRANCH  31  36
ENDBRANCH  29  31
ENDBRANCH  26  27
ENDBRANCH  25  26
ENDBRANCH   6  25
TORSDOF 12
