REMARK  Name = ZINC66908859
REMARK  7 active torsions:
REMARK  status: ('A' for Active; 'I' for Inactive)
REMARK    1  A    between atoms: C_1  and  N_2
REMARK    2  A    between atoms: N_2  and  C_3
REMARK    3  A    between atoms: C_7  and  C_10
REMARK    4  A    between atoms: C_10  and  N_11
REMARK    5  A    between atoms: N_14  and  C_15
REMARK    6  A    between atoms: C_15  and  C_16
REMARK    7  A    between atoms: C_16  and  O_26
REMARK                            x       y       z     vdW  Elec       q    Type
REMARK                         _______ _______ _______ _____ _____    ______ ____
ROOT
ATOM      1  N   UNL     1      -1.438  -2.470  -5.618  0.00  0.00    -0.295 N 
ATOM      2  C   UNL     1      -1.673  -3.204  -6.723  0.00  0.00    +0.300 C 
ATOM      3  O   UNL     1      -0.759  -3.482  -7.474  0.00  0.00    -0.253 OA
ATOM      4  N   UNL     1      -2.923  -3.630  -6.995  0.00  0.00    -0.296 N 
ATOM      5  H   UNL     1      -2.167  -2.248  -5.018  0.00  0.00    +0.151 HD
ATOM      6  H   UNL     1      -3.652  -3.408  -6.396  0.00  0.00    +0.150 HD
ENDROOT
BRANCH   1   7
ATOM      7  C   UNL     1      -0.080  -2.007  -5.322  0.00  0.00    +0.142 C 
BRANCH   7  14
ATOM      8  C   UNL     1      -0.365   2.512  -0.718  0.00  0.00    +0.130 C 
ATOM      9  N   UNL     1      -0.132   1.069  -0.620  0.00  0.00    -0.323 N 
ATOM     10  C   UNL     1       0.083   0.449   0.690  0.00  0.00    +0.130 C 
ATOM     11  C   UNL     1      -0.115   0.288  -1.770  0.00  0.00    +0.098 A 
ATOM     12  C   UNL     1       0.101  -1.083  -1.669  0.00  0.00    +0.042 A 
ATOM     13  C   UNL     1       0.115  -1.847  -2.821  0.00  0.00    +0.010 A 
ATOM     14  C   UNL     1      -0.087  -1.213  -4.040  0.00  0.00    -0.014 A 
ATOM     15  C   UNL     1      -0.296   0.151  -4.067  0.00  0.00    +0.089 A 
ATOM     16  N   UNL     1      -0.310   0.855  -2.950  0.00  0.00    -0.349 N 
ATOM     17  H   UNL     1      -0.462   1.812  -2.997  0.00  0.00    +0.167 HD
ENDBRANCH   7  14
ENDBRANCH   1   7
BRANCH   4  18
ATOM     18  C   UNL     1      -3.179  -4.428  -8.197  0.00  0.00    +0.145 C 
BRANCH  18  19
ATOM     19  C   UNL     1      -4.684  -4.664  -8.341  0.00  0.00    +0.107 C 
ATOM     20  C   UNL     1      -5.402  -3.317  -8.394  0.00  0.00    +0.041 C 
ATOM     21  C   UNL     1      -6.871  -3.566  -8.756  0.00  0.00    +0.008 C 
ATOM     22  C   UNL     1      -6.937  -4.022 -10.212  0.00  0.00    +0.035 C 
ATOM     23  C   UNL     1      -5.982  -5.161 -10.455  0.00  0.00    -0.041 A 
ATOM     24  C   UNL     1      -4.944  -5.453  -9.598  0.00  0.00    -0.011 A 
ATOM     25  C   UNL     1      -4.095  -6.514  -9.883  0.00  0.00    +0.007 A 
ATOM     26  C   UNL     1      -4.283  -7.278 -11.016  0.00  0.00    +0.000 A 
ATOM     27  C   UNL     1      -5.327  -6.987 -11.874  0.00  0.00    +0.000 A 
ATOM     28  C   UNL     1      -6.171  -5.933 -11.593  0.00  0.00    +0.004 A 
BRANCH  19  29
ATOM     29  O   UNL     1      -5.155  -5.405  -7.213  0.00  0.00    -0.382 OA
ATOM     30  H   UNL     1      -4.737  -6.271  -7.109  0.00  0.00    +0.211 HD
ENDBRANCH  19  29
ENDBRANCH  18  19
ENDBRANCH   4  18
TORSDOF 5
