REMARK  Name = ZINC23229913
REMARK  8 active torsions:
REMARK  status: ('A' for Active; 'I' for Inactive)
REMARK    1  A    between atoms: C_4  and  O_7
REMARK    2  A    between atoms: O_7  and  C_8
REMARK    3  A    between atoms: C_8  and  C_9
REMARK    4  A    between atoms: C_9  and  N_10
REMARK    5  A    between atoms: N_13  and  C_16
REMARK    6  A    between atoms: C_16  and  C_17
REMARK    7  A    between atoms: N_19  and  C_20
REMARK    8  A    between atoms: C_21  and  C_29
REMARK                            x       y       z     vdW  Elec       q    Type
REMARK                         _______ _______ _______ _____ _____    ______ ____
ROOT
ATOM      1  C   UNL     1      -0.016   1.988   1.785  0.00  0.00    +0.201 C 
ATOM      2  O   UNL     1      -0.390   1.181   2.610  0.00  0.00    -0.278 OA
ATOM      3  N   UNL     1      -0.019   3.303   2.079  0.00  0.00    -0.281 N 
ATOM      4  H   UNL     1       0.320   4.035   1.331  0.00  0.00    +0.155 HD
ENDROOT
BRANCH   3   5
ATOM      5  C   UNL     1      -0.448   3.734   3.325  0.00  0.00    +0.084 A 
ATOM      6  C   UNL     1      -0.518   5.031   3.812  0.00  0.00    +0.068 A 
ATOM      7  C   UNL     1      -1.014   5.215   5.166  0.00  0.00    -0.023 A 
ATOM      8  C   UNL     1      -1.349   4.078   5.815  0.00  0.00    -0.004 A 
ATOM      9  S   UNL     1      -1.021   2.781   4.655  0.00  0.00    -0.077 S 
ATOM     10  C   UNL     1      -1.878   3.958   7.211  0.00  0.00    +0.043 C 
ATOM     11  C   UNL     1      -1.636   5.289   7.936  0.00  0.00    +0.005 C 
ATOM     12  C   UNL     1      -2.102   6.435   7.034  0.00  0.00    +0.005 C 
ATOM     13  C   UNL     1      -1.156   6.574   5.840  0.00  0.00    +0.037 C 
BRANCH   6  14
ATOM     14  C   UNL     1      -0.110   6.175   2.991  0.00  0.00    +0.244 C 
ATOM     15  O   UNL     1      -0.925   6.735   2.281  0.00  0.00    -0.270 OA
ATOM     16  N   UNL     1       1.166   6.605   3.021  0.00  0.00    -0.325 N 
ATOM     17  H   UNL     1       1.472   7.463   2.404  0.00  0.00    +0.145 HD
ATOM     18  H   UNL     1       1.903   6.098   3.662  0.00  0.00    +0.145 HD
ENDBRANCH   6  14
ENDBRANCH   3   5
BRANCH   1  19
ATOM     19  C   UNL     1       0.451   1.520   0.430  0.00  0.00    +0.019 C 
BRANCH  19  23
ATOM     20  N   UNL     1       1.338  -2.572  -0.130  0.00  0.00    -0.303 NA
ATOM     21  C   UNL     1       0.393  -1.939  -1.060  0.00  0.00    +0.066 C 
ATOM     22  C   UNL     1       0.576  -0.420  -1.014  0.00  0.00    -0.063 C 
ATOM     23  N   UNL     1       0.358   0.056   0.359  0.00  0.00    +0.387 N 
ATOM     24  C   UNL     1       1.303  -0.578   1.290  0.00  0.00    -0.063 C 
ATOM     25  C   UNL     1       1.119  -2.097   1.243  0.00  0.00    +0.066 C 
ATOM     26  H   UNL     1      -0.660  -0.232   0.661  0.00  0.00    -0.081 HD
BRANCH  20  27
ATOM     27  C   UNL     1       1.245  -4.037  -0.201  0.00  0.00    +0.125 C 
BRANCH  27  28
ATOM     28  C   UNL     1       1.934  -4.530  -1.474  0.00  0.00    +0.244 C 
BRANCH  28  29
ATOM     29  O   UNL     1       3.331  -4.236  -1.404  0.00  0.00    -0.491 OA
BRANCH  29  33
ATOM     30  C   UNL     1       5.649  -5.376  -4.621  0.00  0.00    +0.000 A 
ATOM     31  C   UNL     1       6.232  -4.740  -3.541  0.00  0.00    +0.004 A 
ATOM     32  C   UNL     1       5.458  -4.357  -2.462  0.00  0.00    +0.045 A 
ATOM     33  C   UNL     1       4.094  -4.612  -2.464  0.00  0.00    +0.121 A 
ATOM     34  C   UNL     1       3.512  -5.255  -3.546  0.00  0.00    +0.045 A 
ATOM     35  C   UNL     1       4.290  -5.631  -4.625  0.00  0.00    +0.004 A 
ENDBRANCH  29  33
ENDBRANCH  28  29
ENDBRANCH  27  28
ENDBRANCH  20  27
ENDBRANCH  19  23
ENDBRANCH   1  19
TORSDOF 8
