REMARK  Name = ZINC12201678
REMARK  10 active torsions:
REMARK  status: ('A' for Active; 'I' for Inactive)
REMARK    1  A    between atoms: C_4  and  C_7
REMARK    2  A    between atoms: C_7  and  N_56
REMARK    3  A    between atoms: C_10  and  C_11
REMARK    4  A    between atoms: C_10  and  N_56
REMARK    5  A    between atoms: C_16  and  O_17
REMARK    6  A    between atoms: O_17  and  C_18
REMARK    7  A    between atoms: C_18  and  C_19
REMARK    8  A    between atoms: C_19  and  C_21
REMARK    9  A    between atoms: C_19  and  O_27
REMARK   10  A    between atoms: C_21  and  N_59
REMARK                            x       y       z     vdW  Elec       q    Type
REMARK                         _______ _______ _______ _____ _____    ______ ____
ROOT
ATOM      1  C   UNL     1       3.716  -0.346  -0.330  0.00  0.00    -0.023 A 
ATOM      2  C   UNL     1       4.602   0.038   0.659  0.00  0.00    +0.005 A 
ATOM      3  C   UNL     1       5.842  -0.566   0.750  0.00  0.00    +0.000 A 
ATOM      4  C   UNL     1       6.200  -1.555  -0.148  0.00  0.00    +0.004 A 
ATOM      5  C   UNL     1       5.318  -1.943  -1.138  0.00  0.00    +0.046 A 
ATOM      6  C   UNL     1       4.071  -1.342  -1.228  0.00  0.00    +0.122 A 
ENDROOT
BRANCH   1   7
ATOM      7  C   UNL     1       2.364   0.312  -0.428  0.00  0.00    -0.042 C 
BRANCH   7   8
ATOM      8  N   UNL     1       1.353  -0.567   0.189  0.00  0.00    +0.388 N 
ATOM      9  H   UNL     1       1.397  -1.494  -0.249  0.00  0.00    -0.084 HD
ATOM     10  H   UNL     1       1.547  -0.654   1.194  0.00  0.00    -0.084 HD
BRANCH   8  11
ATOM     11  C   UNL     1       0.002  -0.004   0.002  0.00  0.00    -0.042 C 
ATOM     12  C   UNL     1      -0.129   1.516  -0.106  0.00  0.00    -0.009 C 
ATOM     13  C   UNL     1      -0.320   0.641  -1.348  0.00  0.00    -0.009 C 
BRANCH  11  17
ATOM     14  C   UNL     1      -3.140  -2.119   1.977  0.00  0.00    +0.000 A 
ATOM     15  C   UNL     1      -1.837  -2.569   2.074  0.00  0.00    +0.000 A 
ATOM     16  C   UNL     1      -0.820  -1.885   1.435  0.00  0.00    +0.002 A 
ATOM     17  C   UNL     1      -1.107  -0.750   0.698  0.00  0.00    -0.058 A 
ATOM     18  C   UNL     1      -2.409  -0.297   0.606  0.00  0.00    +0.002 A 
ATOM     19  C   UNL     1      -3.427  -0.985   1.240  0.00  0.00    +0.000 A 
ENDBRANCH  11  17
ENDBRANCH   8  11
ENDBRANCH   7   8
ENDBRANCH   1   7
BRANCH   6  20
ATOM     20  O   UNL     1       3.199  -1.725  -2.198  0.00  0.00    -0.489 OA
BRANCH  20  21
ATOM     21  C   UNL     1       3.631  -2.756  -3.088  0.00  0.00    +0.258 C 
BRANCH  21  22
ATOM     22  C   UNL     1       2.525  -3.051  -4.103  0.00  0.00    +0.135 C 
BRANCH  22  23
ATOM     23  O   UNL     1       2.317  -1.902  -4.928  0.00  0.00    -0.390 OA
ATOM     24  H   UNL     1       3.099  -1.631  -5.428  0.00  0.00    +0.210 HD
ENDBRANCH  22  23
BRANCH  22  25
ATOM     25  C   UNL     1       2.937  -4.237  -4.976  0.00  0.00    -0.044 C 
BRANCH  25  31
ATOM     26  C   UNL     1       0.642  -4.937  -5.279  0.00  0.00    -0.068 C 
ATOM     27  C   UNL     1      -0.548  -4.782  -6.232  0.00  0.00    +0.050 C 
ATOM     28  S   UNL     1      -0.275  -5.862  -7.670  0.00  0.00    -0.164 S 
ATOM     29  C   UNL     1       1.415  -5.425  -8.185  0.00  0.00    +0.050 C 
ATOM     30  C   UNL     1       2.326  -5.489  -6.953  0.00  0.00    -0.068 C 
ATOM     31  N   UNL     1       1.874  -4.483  -5.966  0.00  0.00    +0.382 N 
ATOM     32  H   UNL     1       1.670  -3.606  -6.460  0.00  0.00    -0.082 HD
ENDBRANCH  25  31
ENDBRANCH  22  25
ENDBRANCH  21  22
ENDBRANCH  20  21
ENDBRANCH   6  20
TORSDOF 10
