REMARK  Name = ZINC37299487
REMARK  9 active torsions:
REMARK  status: ('A' for Active; 'I' for Inactive)
REMARK    1  A    between atoms: C_1  and  C_2
REMARK    2  A    between atoms: C_2  and  C_3
REMARK    3  A    between atoms: C_3  and  N_4
REMARK    4  A    between atoms: N_4  and  C_5
REMARK    5  A    between atoms: C_5  and  C_6
REMARK    6  A    between atoms: C_6  and  C_7
REMARK    7  A    between atoms: C_7  and  N_8
REMARK    8  A    between atoms: N_15  and  C_22
REMARK    9  A    between atoms: N_18  and  C_21
REMARK                            x       y       z     vdW  Elec       q    Type
REMARK                         _______ _______ _______ _____ _____    ______ ____
ROOT
ATOM      1  N   UNL     1       0.738  -1.962  -1.265  0.00  0.00    -0.301 N 
ATOM      2  C   UNL     1       1.785  -2.639  -0.683  0.00  0.00    +0.198 A 
ATOM      3  N   UNL     1       2.850  -2.060  -0.068  0.00  0.00    -0.320 N 
ATOM      4  H   UNL     1       3.009  -1.110   0.041  0.00  0.00    +0.169 HD
ATOM      5  C   UNL     1       3.665  -3.093   0.377  0.00  0.00    +0.150 A 
ATOM      6  C   UNL     1       3.039  -4.276  -0.000  0.00  0.00    +0.170 A 
ATOM      7  N   UNL     1       1.909  -3.950  -0.630  0.00  0.00    -0.196 NA
ATOM      8  N   UNL     1       3.641  -5.482   0.320  0.00  0.00    -0.280 N 
ATOM      9  C   UNL     1       4.812  -5.495   0.985  0.00  0.00    +0.333 A 
ATOM     10  O   UNL     1       5.327  -6.562   1.258  0.00  0.00    -0.246 OA
ATOM     11  N   UNL     1       5.426  -4.357   1.354  0.00  0.00    -0.262 N 
ATOM     12  C   UNL     1       4.887  -3.154   1.070  0.00  0.00    +0.282 A 
ATOM     13  O   UNL     1       5.453  -2.129   1.410  0.00  0.00    -0.265 OA
ATOM     14  C   UNL     1       6.699  -4.425   2.075  0.00  0.00    +0.157 C 
ATOM     15  C   UNL     1       3.004  -6.744  -0.064  0.00  0.00    +0.155 C 
ENDROOT
BRANCH   1  16
ATOM     16  C   UNL     1       0.718  -0.497  -1.257  0.00  0.00    +0.107 C 
BRANCH  16  18
ATOM     17  C   UNL     1      -0.019   1.526   0.010  0.00  0.00    +0.005 C 
ATOM     18  C   UNL     1       0.002  -0.004   0.002  0.00  0.00    +0.016 C 
ENDBRANCH  16  18
ENDBRANCH   1  16
BRANCH   1  19
ATOM     19  C   UNL     1      -0.357  -2.706  -1.893  0.00  0.00    +0.106 C 
BRANCH  19  20
ATOM     20  C   UNL     1      -0.029  -2.949  -3.367  0.00  0.00    -0.001 C 
BRANCH  20  21
ATOM     21  C   UNL     1      -1.172  -3.726  -4.023  0.00  0.00    -0.085 C 
BRANCH  21  22
ATOM     22  N   UNL     1      -0.857  -3.958  -5.439  0.00  0.00    +0.378 N 
ATOM     23  H   UNL     1      -0.740  -3.073  -5.908  0.00  0.00    -0.090 HD
ATOM     24  H   UNL     1      -0.003  -4.492  -5.510  0.00  0.00    -0.090 HD
ATOM     25  H   UNL     1      -1.611  -4.471  -5.872  0.00  0.00    -0.090 HD
ENDBRANCH  21  22
ENDBRANCH  20  21
ENDBRANCH  19  20
ENDBRANCH   1  19
TORSDOF 6
