REMARK  Name = ZINC09219551
REMARK  11 active torsions:
REMARK  status: ('A' for Active; 'I' for Inactive)
REMARK    1  A    between atoms: C_1  and  C_2
REMARK    2  A    between atoms: C_2  and  N_3
REMARK    3  A    between atoms: C_7  and  S_29
REMARK    4  A    between atoms: C_11  and  S_12
REMARK    5  A    between atoms: S_12  and  C_13
REMARK    6  A    between atoms: C_13  and  C_14
REMARK    7  A    between atoms: N_16  and  N_17
REMARK    8  A    between atoms: C_18  and  C_20
REMARK    9  A    between atoms: C_20  and  O_21
REMARK   10  A    between atoms: O_21  and  C_22
REMARK   11  A    between atoms: S_29  and  N_32
REMARK                            x       y       z     vdW  Elec       q    Type
REMARK                         _______ _______ _______ _____ _____    ______ ____
ROOT
ATOM      1  S   UNL     1       5.513  10.988   0.006  0.00  0.00    -0.078 S 
ENDROOT
BRANCH   1  10
ATOM      2  N   UNL     1       5.805  13.755   0.023  0.00  0.00    -0.319 N 
ATOM      3  C   UNL     1       4.999  14.882   0.032  0.00  0.00    +0.070 A 
ATOM      4  C   UNL     1       5.254  16.245   0.037  0.00  0.00    +0.030 A 
ATOM      5  C   UNL     1       4.204  17.140   0.052  0.00  0.00    +0.030 A 
ATOM      6  C   UNL     1       2.894  16.685   0.062  0.00  0.00    +0.107 A 
ATOM      7  C   UNL     1       2.622  15.335   0.058  0.00  0.00    +0.058 A 
ATOM      8  C   UNL     1       3.674  14.416   0.042  0.00  0.00    +0.092 A 
ATOM      9  N   UNL     1       3.727  13.058   0.034  0.00  0.00    -0.222 NA
ATOM     10  C   UNL     1       4.978  12.667   0.020  0.00  0.00    +0.170 A 
BRANCH   6  11
ATOM     11  S   UNL     1       1.566  17.843   0.082  0.00  0.00    +0.056 S 
ATOM     12  O   UNL     1       0.447  17.169   0.640  0.00  0.00    -0.153 OA
ATOM     13  O   UNL     1       2.084  19.046   0.633  0.00  0.00    -0.153 OA
BRANCH  11  14
ATOM     14  N   UNL     1       1.182  18.174  -1.495  0.00  0.00    -0.204 NA
ATOM     15  H   UNL     1       0.272  18.410  -1.733  0.00  0.00    +0.144 HD
ATOM     16  H   UNL     1       1.867  18.131  -2.180  0.00  0.00    +0.144 HD
ENDBRANCH  11  14
ENDBRANCH   6  11
BRANCH   2  18
ATOM     17  C   UNL     1       7.773  13.735  -1.429  0.00  0.00    +0.027 C 
ATOM     18  C   UNL     1       7.269  13.733   0.016  0.00  0.00    +0.121 C 
ENDBRANCH   2  18
ENDBRANCH   1  10
BRANCH   1  19
ATOM     19  C   UNL     1       3.911  10.147   0.017  0.00  0.00    +0.174 C 
BRANCH  19  20
ATOM     20  C   UNL     1       4.126   8.655   0.008  0.00  0.00    +0.239 C 
ATOM     21  O   UNL     1       5.253   8.205  -0.005  0.00  0.00    -0.273 OA
ATOM     22  N   UNL     1       3.067   7.821   0.013  0.00  0.00    -0.234 N 
ATOM     23  H   UNL     1       2.167   8.181   0.024  0.00  0.00    +0.173 HD
BRANCH  22  24
ATOM     24  N   UNL     1       3.268   6.435   0.004  0.00  0.00    -0.232 N 
ATOM     25  C   UNL     1       2.209   5.601   0.010  0.00  0.00    +0.267 C 
ATOM     26  O   UNL     1       1.083   6.051   0.023  0.00  0.00    -0.271 OA
ATOM     27  H   UNL     1       4.169   6.075  -0.006  0.00  0.00    +0.173 HD
BRANCH  25  28
ATOM     28  C   UNL     1       2.425   4.109   0.001  0.00  0.00    +0.326 C 
BRANCH  28  29
ATOM     29  O   UNL     1       1.159   3.445   0.009  0.00  0.00    -0.483 OA
BRANCH  29  30
ATOM     30  C   UNL     1       1.176   2.086   0.002  0.00  0.00    +0.121 A 
ATOM     31  C   UNL     1      -0.017   1.377   0.010  0.00  0.00    +0.047 A 
ATOM     32  C   UNL     1       0.002  -0.004   0.002  0.00  0.00    +0.023 A 
ATOM     33  C   UNL     1       1.209  -0.680  -0.013  0.00  0.00    +0.041 A 
ATOM     34  C   UNL     1       2.399   0.025  -0.020  0.00  0.00    +0.023 A 
ATOM     35  C   UNL     1       2.385   1.406  -0.012  0.00  0.00    +0.047 A 
ATOM     36 CL   UNL     1       1.230  -2.416  -0.023  0.00  0.00    -0.084 Cl
ENDBRANCH  29  30
ENDBRANCH  28  29
ENDBRANCH  25  28
ENDBRANCH  22  24
ENDBRANCH  19  20
ENDBRANCH   1  19
TORSDOF 10
