REMARK  Name = ZINC39630734
REMARK  11 active torsions:
REMARK  status: ('A' for Active; 'I' for Inactive)
REMARK    1  A    between atoms: C_1  and  C_2
REMARK    2  A    between atoms: C_2  and  C_3
REMARK    3  A    between atoms: C_7  and  C_16
REMARK    4  A    between atoms: N_18  and  C_19
REMARK    5  A    between atoms: C_19  and  C_20
REMARK    6  A    between atoms: C_20  and  C_21
REMARK    7  A    between atoms: C_20  and  C_22
REMARK    8  A    between atoms: C_20  and  C_23
REMARK    9  A    between atoms: C_23  and  N_24
REMARK   10  A    between atoms: N_24  and  C_25
REMARK   11  A    between atoms: N_24  and  C_26
REMARK                            x       y       z     vdW  Elec       q    Type
REMARK                         _______ _______ _______ _____ _____    ______ ____
ROOT
ATOM      1  C   UNL     1      -0.568  -0.023   0.791  0.00  0.00    +0.215 C 
ATOM      2  O   UNL     1      -1.445   0.789   0.999  0.00  0.00    -0.276 OA
ATOM      3  N   UNL     1      -0.877  -1.329   0.663  0.00  0.00    -0.300 N 
ATOM      4  C   UNL     1       0.048  -2.460   0.415  0.00  0.00    +0.121 C 
ATOM      5  C   UNL     1      -0.496  -3.608   1.295  0.00  0.00    +0.100 C 
ATOM      6  C   UNL     1      -1.983  -3.274   1.502  0.00  0.00    -0.004 C 
ATOM      7  C   UNL     1      -2.216  -1.958   0.745  0.00  0.00    +0.115 C 
ATOM      8  C   UNL     1      -2.279  -3.081   2.986  0.00  0.00    -0.010 C 
ATOM      9  C   UNL     1      -3.774  -2.806   3.171  0.00  0.00    -0.082 C 
ATOM     10  N   UNL     1      -4.551  -3.932   2.638  0.00  0.00    +0.379 N 
ATOM     11  C   UNL     1      -4.331  -4.053   1.192  0.00  0.00    -0.082 C 
ATOM     12  C   UNL     1      -2.859  -4.380   0.923  0.00  0.00    -0.010 C 
ATOM     13  H   UNL     1      -4.260  -4.784   3.094  0.00  0.00    -0.086 HD
ATOM     14  H   UNL     1      -5.532  -3.777   2.816  0.00  0.00    -0.086 HD
ENDROOT
BRANCH   5  15
ATOM     15  C   UNL     1      -0.347  -4.929   0.584  0.00  0.00    +0.218 C 
ATOM     16  O   UNL     1      -0.383  -4.973  -0.627  0.00  0.00    -0.275 OA
ATOM     17  N   UNL     1      -0.174  -6.061   1.296  0.00  0.00    -0.315 N 
ATOM     18  H   UNL     1      -0.145  -6.025   2.264  0.00  0.00    +0.149 HD
BRANCH  17  19
ATOM     19  C   UNL     1      -0.029  -7.345   0.605  0.00  0.00    +0.108 C 
BRANCH  19  20
ATOM     20  C   UNL     1       0.153  -8.460   1.636  0.00  0.00    -0.034 C 
ATOM     21  C   UNL     1       1.406  -8.185   2.470  0.00  0.00    +0.010 C 
ATOM     22  C   UNL     1      -1.070  -8.510   2.555  0.00  0.00    +0.010 C 
BRANCH  20  23
ATOM     23  C   UNL     1       0.304  -9.801   0.915  0.00  0.00    -0.072 C 
BRANCH  23  24
ATOM     24  N   UNL     1       0.522 -10.867   1.903  0.00  0.00    +0.376 N 
ATOM     25  C   UNL     1      -0.775 -11.359   2.385  0.00  0.00    -0.097 C 
ATOM     26  C   UNL     1       1.263 -11.970   1.278  0.00  0.00    -0.097 C 
ATOM     27  H   UNL     1       1.053 -10.502   2.679  0.00  0.00    -0.083 HD
ENDBRANCH  23  24
ENDBRANCH  20  23
ENDBRANCH  19  20
ENDBRANCH  17  19
ENDBRANCH   5  15
BRANCH   1  29
ATOM     28  C   UNL     1       0.939   1.945   0.858  0.00  0.00    +0.013 C 
ATOM     29  C   UNL     1       0.865   0.428   0.675  0.00  0.00    +0.092 C 
ENDBRANCH   1  29
TORSDOF 6
