REMARK  Name = ZINC59147903
REMARK  10 active torsions:
REMARK  status: ('A' for Active; 'I' for Inactive)
REMARK    1  A    between atoms: C_1  and  C_2
REMARK    2  A    between atoms: C_3  and  C_20
REMARK    3  A    between atoms: C_4  and  C_19
REMARK    4  A    between atoms: N_5  and  C_7
REMARK    5  A    between atoms: C_10  and  N_16
REMARK    6  A    between atoms: C_12  and  N_13
REMARK    7  A    between atoms: N_21  and  N_22
REMARK    8  A    between atoms: N_22  and  S_23
REMARK    9  A    between atoms: S_23  and  C_26
REMARK   10  A    between atoms: C_26  and  C_27
REMARK                            x       y       z     vdW  Elec       q    Type
REMARK                         _______ _______ _______ _____ _____    ______ ____
ROOT
ATOM      1  C   UNL     1       0.135   1.528   0.063  0.00  0.00    +0.068 C 
ATOM      2  C   UNL     1       0.093   0.022   0.041  0.00  0.00    +0.069 A 
ATOM      3  C   UNL     1      -0.145  -0.783  -1.093  0.00  0.00    +0.038 A 
ATOM      4  C   UNL     1      -0.098  -2.097  -0.681  0.00  0.00    +0.051 A 
ATOM      5  N   UNL     1       0.158  -2.094   0.646  0.00  0.00    -0.234 N 
ATOM      6  N   UNL     1       0.277  -0.765   1.068  0.00  0.00    -0.171 NA
ATOM      7  C   UNL     1      -0.295  -3.313  -1.549  0.00  0.00    +0.066 C 
ENDROOT
BRANCH   5   8
ATOM      8  C   UNL     1       0.286  -3.228   1.460  0.00  0.00    +0.096 A 
ATOM      9  C   UNL     1       1.257  -4.180   1.177  0.00  0.00    +0.032 A 
ATOM     10  C   UNL     1       1.382  -5.296   1.981  0.00  0.00    +0.035 A 
ATOM     11  C   UNL     1       0.540  -5.466   3.066  0.00  0.00    +0.128 A 
ATOM     12  C   UNL     1      -0.427  -4.520   3.349  0.00  0.00    +0.067 A 
ATOM     13  C   UNL     1      -0.553  -3.398   2.552  0.00  0.00    +0.154 A 
BRANCH  13  14
ATOM     14  N   UNL     1      -1.585  -2.383   2.860  0.00  0.00    +0.059 N 
ATOM     15  O   UNL     1      -2.244  -2.477   3.869  0.00  0.00    -0.126 OA
ATOM     16  O   UNL     1      -1.769  -1.460   2.101  0.00  0.00    -0.126 OA
ENDBRANCH  13  14
BRANCH  11  17
ATOM     17  N   UNL     1       0.676  -6.664   3.925  0.00  0.00    +0.056 N 
ATOM     18  O   UNL     1       1.521  -7.492   3.678  0.00  0.00    -0.126 OA
ATOM     19  O   UNL     1      -0.059  -6.814   4.873  0.00  0.00    -0.126 OA
ENDBRANCH  11  17
ENDBRANCH   5   8
BRANCH   3  20
ATOM     20  C   UNL     1      -0.398  -0.306  -2.468  0.00  0.00    +0.145 C 
ATOM     21  N   UNL     1      -0.416   0.966  -2.719  0.00  0.00    -0.149 NA
BRANCH  21  22
ATOM     22  N   UNL     1      -0.656   1.419  -4.023  0.00  0.00    +0.001 NA
BRANCH  22  23
ATOM     23  S   UNL     1      -0.678   3.043  -4.345  0.00  0.00    +0.083 S 
ATOM     24  O   UNL     1      -1.780   3.545  -3.601  0.00  0.00    -0.152 OA
ATOM     25  O   UNL     1       0.644   3.485  -4.069  0.00  0.00    -0.152 OA
BRANCH  23  26
ATOM     26  C   UNL     1      -1.018   3.162  -6.122  0.00  0.00    +0.227 C 
BRANCH  26  27
ATOM     27  C   UNL     1      -1.061   4.612  -6.530  0.00  0.00    -0.025 A 
ATOM     28  C   UNL     1      -2.255   5.308  -6.484  0.00  0.00    +0.005 A 
ATOM     29  C   UNL     1      -2.294   6.638  -6.858  0.00  0.00    +0.000 A 
ATOM     30  C   UNL     1      -1.140   7.273  -7.277  0.00  0.00    +0.000 A 
ATOM     31  C   UNL     1       0.054   6.577  -7.321  0.00  0.00    +0.000 A 
ATOM     32  C   UNL     1       0.094   5.248  -6.944  0.00  0.00    +0.005 A 
ENDBRANCH  26  27
ENDBRANCH  23  26
ENDBRANCH  22  23
ENDBRANCH  21  22
ENDBRANCH   3  20
TORSDOF 8
