REMARK  Name = ZINC06163466
REMARK  7 active torsions:
REMARK  status: ('A' for Active; 'I' for Inactive)
REMARK    1  A    between atoms: C_1  and  O_2
REMARK    2  A    between atoms: O_2  and  C_3
REMARK    3  A    between atoms: C_6  and  S_10
REMARK    4  A    between atoms: S_10  and  N_13
REMARK    5  A    between atoms: C_18  and  C_19
REMARK    6  A    between atoms: C_18  and  C_25
REMARK    7  A    between atoms: C_18  and  N_56
REMARK                            x       y       z     vdW  Elec       q    Type
REMARK                         _______ _______ _______ _____ _____    ______ ____
ROOT
ATOM      1  N   UNL     1      -2.240  -1.834   3.042  0.00  0.00    -0.180 NA
ATOM      2  C   UNL     1      -2.265  -2.472   1.716  0.00  0.00    +0.091 C 
ATOM      3  C   UNL     1      -1.054  -1.982   0.917  0.00  0.00    -0.060 C 
ATOM      4  C   UNL     1      -0.888   0.035   2.254  0.00  0.00    -0.060 C 
ATOM      5  C   UNL     1      -2.093  -0.372   3.108  0.00  0.00    +0.091 C 
ATOM      6  N   UNL     1      -1.070  -0.503   0.888  0.00  0.00    +0.389 N 
ATOM      7  H   UNL     1      -1.977  -0.187   0.524  0.00  0.00    -0.080 HD
ENDROOT
BRANCH   1   8
ATOM      8  S   UNL     1      -2.372  -2.739   4.423  0.00  0.00    +0.061 S 
ATOM      9  O   UNL     1      -2.867  -1.869   5.432  0.00  0.00    -0.153 OA
ATOM     10  O   UNL     1      -3.037  -3.940   4.059  0.00  0.00    -0.153 OA
BRANCH   8  14
ATOM     11  C   UNL     1       1.823  -3.908   5.666  0.00  0.00    +0.134 A 
ATOM     12  C   UNL     1       1.097  -4.727   4.813  0.00  0.00    +0.048 A 
ATOM     13  C   UNL     1      -0.184  -4.370   4.440  0.00  0.00    +0.032 A 
ATOM     14  C   UNL     1      -0.740  -3.193   4.906  0.00  0.00    +0.107 A 
ATOM     15  C   UNL     1      -0.019  -2.375   5.756  0.00  0.00    +0.047 A 
ATOM     16  C   UNL     1       1.262  -2.729   6.137  0.00  0.00    +0.061 A 
ATOM     17 BR   UNL     1       2.248  -1.609   7.299  0.00  0.00    -0.046 Br
BRANCH  11  19
ATOM     18  C   UNL     1       3.595  -5.485   5.515  0.00  0.00    +0.277 C 
ATOM     19  O   UNL     1       3.082  -4.259   6.038  0.00  0.00    -0.494 OA
ENDBRANCH  11  19
ENDBRANCH   8  14
ENDBRANCH   1   8
BRANCH   6  20
ATOM     20  C   UNL     1       0.002  -0.004   0.002  0.00  0.00    -0.007 C 
BRANCH  20  21
ATOM     21  C   UNL     1      -0.018   1.503   0.010  0.00  0.00    -0.057 A 
ATOM     22  C   UNL     1      -1.225   2.178   0.020  0.00  0.00    +0.002 A 
ATOM     23  C   UNL     1      -1.244   3.560   0.032  0.00  0.00    +0.000 A 
ATOM     24  C   UNL     1      -0.056   4.267   0.025  0.00  0.00    +0.000 A 
ATOM     25  C   UNL     1       1.151   3.592   0.010  0.00  0.00    +0.000 A 
ATOM     26  C   UNL     1       1.169   2.210   0.003  0.00  0.00    +0.002 A 
ENDBRANCH  20  21
BRANCH  20  27
ATOM     27  C   UNL     1      -0.251  -0.502  -1.398  0.00  0.00    -0.057 A 
ATOM     28  C   UNL     1      -1.542  -0.557  -1.889  0.00  0.00    +0.002 A 
ATOM     29  C   UNL     1      -1.774  -1.009  -3.174  0.00  0.00    +0.000 A 
ATOM     30  C   UNL     1      -0.716  -1.416  -3.965  0.00  0.00    +0.000 A 
ATOM     31  C   UNL     1       0.575  -1.367  -3.472  0.00  0.00    +0.000 A 
ATOM     32  C   UNL     1       0.807  -0.910  -2.188  0.00  0.00    +0.002 A 
ENDBRANCH  20  27
ENDBRANCH   6  20
TORSDOF 6
