REMARK  Name = ZINC43675655
REMARK  9 active torsions:
REMARK  status: ('A' for Active; 'I' for Inactive)
REMARK    1  A    between atoms: C_1  and  C_2
REMARK    2  A    between atoms: C_2  and  N_3
REMARK    3  A    between atoms: N_3  and  C_4
REMARK    4  A    between atoms: N_3  and  C_11
REMARK    5  A    between atoms: C_4  and  C_5
REMARK    6  A    between atoms: C_11  and  C_12
REMARK    7  A    between atoms: C_12  and  C_14
REMARK    8  A    between atoms: C_12  and  C_15
REMARK    9  A    between atoms: N_16  and  O_17
REMARK                            x       y       z     vdW  Elec       q    Type
REMARK                         _______ _______ _______ _____ _____    ______ ____
ROOT
ATOM      1  N   UNL     1       0.912  -0.890  -1.361  0.00  0.00    +0.383 N 
ATOM      2  H   UNL     1       0.561  -0.283  -2.086  0.00  0.00    -0.081 HD
ENDROOT
BRANCH   1   4
ATOM      3  C   UNL     1      -0.678   0.220   0.136  0.00  0.00    -0.017 C 
ATOM      4  C   UNL     1       0.773  -0.226  -0.057  0.00  0.00    -0.082 C 
ENDBRANCH   1   4
BRANCH   1   5
ATOM      5  C   UNL     1       2.329  -1.186  -1.611  0.00  0.00    -0.034 C 
BRANCH   5   6
ATOM      6  C   UNL     1       3.092   0.105  -1.763  0.00  0.00    -0.013 A 
ATOM      7  C   UNL     1       3.809   0.787  -0.837  0.00  0.00    +0.026 A 
ATOM      8  C   UNL     1       4.434   1.964  -1.207  0.00  0.00    +0.023 A 
ATOM      9  C   UNL     1       4.310   2.400  -2.484  0.00  0.00    +0.046 A 
ATOM     10  S   UNL     1       3.292   1.127  -3.213  0.00  0.00    -0.102 S 
ATOM     11 BR   UNL     1       3.952   0.140   0.934  0.00  0.00    -0.050 Br
ENDBRANCH   5   6
ENDBRANCH   1   5
BRANCH   1  12
ATOM     12  C   UNL     1       0.143  -2.142  -1.357  0.00  0.00    -0.068 C 
BRANCH  12  13
ATOM     13  C   UNL     1       0.175  -2.764  -2.754  0.00  0.00    +0.036 C 
ATOM     14  C   UNL     1      -0.527  -1.832  -3.744  0.00  0.00    +0.013 C 
BRANCH  13  15
ATOM     15  C   UNL     1      -0.532  -4.094  -2.728  0.00  0.00    +0.133 C 
ATOM     16  N   UNL     1      -1.779  -4.170  -3.059  0.00  0.00    -0.077 NA
ATOM     17  N   UNL     1       0.149  -5.230  -2.351  0.00  0.00    -0.344 N 
ATOM     18  H   UNL     1       1.085  -5.174  -2.102  0.00  0.00    +0.144 HD
ATOM     19  H   UNL     1      -0.306  -6.086  -2.334  0.00  0.00    +0.144 HD
BRANCH  16  20
ATOM     20  O   UNL     1      -2.444  -5.419  -3.035  0.00  0.00    -0.408 OA
ATOM     21  H   UNL     1      -3.373  -5.376  -3.299  0.00  0.00    +0.328 HD
ENDBRANCH  16  20
ENDBRANCH  13  15
ENDBRANCH  12  13
ENDBRANCH   1  12
TORSDOF 7
