REMARK  Name = ZINC43383089
REMARK  6 active torsions:
REMARK  status: ('A' for Active; 'I' for Inactive)
REMARK    1  A    between atoms: C_1  and  C_2
REMARK    2  A    between atoms: C_2  and  C_3
REMARK    3  A    between atoms: C_3  and  C_5
REMARK    4  A    between atoms: C_3  and  N_17
REMARK    5  A    between atoms: C_5  and  C_7
REMARK    6  A    between atoms: C_5  and  N_11
REMARK                            x       y       z     vdW  Elec       q    Type
REMARK                         _______ _______ _______ _____ _____    ______ ____
ROOT
ATOM      1  C   UNL     1       0.561  -1.993  -1.577  0.00  0.00    +0.196 C 
ENDROOT
BRANCH   1   2
ATOM      2  N   UNL     1       1.266  -2.157  -2.851  0.00  0.00    -0.260 N 
ATOM      3  C   UNL     1       0.768  -1.883  -4.076  0.00  0.00    +0.124 A 
ATOM      4  C   UNL     1       1.729  -2.168  -4.985  0.00  0.00    +0.055 A 
ATOM      5  C   UNL     1       2.853  -2.631  -4.293  0.00  0.00    +0.149 A 
ATOM      6  N   UNL     1       2.578  -2.620  -3.013  0.00  0.00    -0.178 NA
ATOM      7 BR   UNL     1       1.579  -1.974  -6.860  0.00  0.00    -0.047 Br
ENDBRANCH   1   2
BRANCH   1   8
ATOM      8  C   UNL     1      -0.920  -2.325  -1.768  0.00  0.00    +0.410 C 
ATOM      9  F   UNL     1      -1.462  -1.491  -2.751  0.00  0.00    -0.168 F 
ATOM     10  F   UNL     1      -1.051  -3.660  -2.164  0.00  0.00    -0.168 F 
ATOM     11  F   UNL     1      -1.601  -2.128  -0.561  0.00  0.00    -0.168 F 
ENDBRANCH   1   8
BRANCH   1  12
ATOM     12  C   UNL     1       0.702  -0.547  -1.099  0.00  0.00    -0.042 C 
BRANCH  12  13
ATOM     13  N   UNL     1       0.252   0.366  -2.159  0.00  0.00    +0.382 N 
ATOM     14  H   UNL     1       0.750   0.161  -3.012  0.00  0.00    -0.090 HD
ATOM     15  H   UNL     1      -0.738   0.243  -2.309  0.00  0.00    -0.090 HD
ATOM     16  H   UNL     1       0.435   1.319  -1.882  0.00  0.00    -0.090 HD
ENDBRANCH  12  13
BRANCH  12  18
ATOM     17  C   UNL     1       2.289   1.139  -0.159  0.00  0.00    +0.002 C 
ATOM     18  C   UNL     1       2.168  -0.260  -0.768  0.00  0.00    -0.017 C 
ENDBRANCH  12  18
ENDBRANCH   1  12
TORSDOF 5
