REMARK  Name = ZINC22635462
REMARK  9 active torsions:
REMARK  status: ('A' for Active; 'I' for Inactive)
REMARK    1  A    between atoms: C_1  and  C_2
REMARK    2  A    between atoms: C_9  and  N_21
REMARK    3  A    between atoms: C_10  and  C_11
REMARK    4  A    between atoms: N_13  and  C_14
REMARK    5  A    between atoms: C_22  and  C_24
REMARK    6  A    between atoms: C_24  and  N_25
REMARK    7  A    between atoms: N_28  and  C_31
REMARK    8  A    between atoms: C_31  and  C_32
REMARK    9  A    between atoms: C_32  and  O_33
REMARK                            x       y       z     vdW  Elec       q    Type
REMARK                         _______ _______ _______ _____ _____    ______ ____
ROOT
ATOM      1  C   UNL     1      -6.076   4.358   0.403  0.00  0.00    +0.008 C 
ATOM      2  C   UNL     1      -4.990   3.337   0.058  0.00  0.00    -0.009 C 
ATOM      3  C   UNL     1      -5.203   2.060   0.875  0.00  0.00    +0.008 C 
ATOM      4  C   UNL     1      -4.282   0.953   0.360  0.00  0.00    +0.037 C 
ATOM      5  C   UNL     1      -2.854   1.483   0.319  0.00  0.00    -0.023 A 
ATOM      6  C   UNL     1      -2.604   2.810   0.339  0.00  0.00    -0.004 A 
ATOM      7  S   UNL     1      -0.839   2.939   0.277  0.00  0.00    -0.077 S 
ATOM      8  C   UNL     1      -0.437   1.254   0.226  0.00  0.00    +0.084 A 
ATOM      9  C   UNL     1      -1.678   0.632   0.252  0.00  0.00    +0.069 A 
ATOM     10  C   UNL     1      -3.610   3.918   0.399  0.00  0.00    +0.046 C 
ENDROOT
BRANCH   9  11
ATOM     11  C   UNL     1      -1.797  -0.828   0.216  0.00  0.00    +0.251 C 
ATOM     12  O   UNL     1      -1.810  -1.463   1.254  0.00  0.00    -0.270 OA
ATOM     13  N   UNL     1      -1.891  -1.468  -0.967  0.00  0.00    -0.279 N 
ATOM     14  H   UNL     1      -1.788  -0.905  -1.906  0.00  0.00    +0.155 HD
BRANCH  13  15
ATOM     15  C   UNL     1      -2.119  -2.849  -0.999  0.00  0.00    +0.069 A 
ATOM     16  C   UNL     1      -2.735  -3.478   0.074  0.00  0.00    +0.026 A 
ATOM     17  C   UNL     1      -2.963  -4.840   0.037  0.00  0.00    +0.002 A 
ATOM     18  C   UNL     1      -2.570  -5.579  -1.063  0.00  0.00    +0.003 A 
ATOM     19  C   UNL     1      -1.951  -4.959  -2.132  0.00  0.00    +0.040 A 
ATOM     20  C   UNL     1      -1.724  -3.595  -2.104  0.00  0.00    +0.144 A 
ATOM     21  F   UNL     1      -1.118  -2.988  -3.148  0.00  0.00    -0.204 F 
ENDBRANCH  13  15
ENDBRANCH   9  11
BRANCH   8  22
ATOM     22  N   UNL     1       0.819   0.670   0.168  0.00  0.00    -0.281 N 
ATOM     23  C   UNL     1       1.922   1.444   0.139  0.00  0.00    +0.201 C 
ATOM     24  O   UNL     1       1.816   2.651   0.170  0.00  0.00    -0.278 OA
ATOM     25  H   UNL     1       0.915  -0.426   0.144  0.00  0.00    +0.155 HD
BRANCH  23  26
ATOM     26  C   UNL     1       3.286   0.808   0.069  0.00  0.00    +0.019 C 
BRANCH  26  27
ATOM     27  N   UNL     1       4.314   1.857   0.050  0.00  0.00    +0.387 N 
ATOM     28  C   UNL     1       4.237   2.648  -1.187  0.00  0.00    -0.063 C 
ATOM     29  C   UNL     1       5.269   3.777  -1.133  0.00  0.00    +0.066 C 
ATOM     30  N   UNL     1       6.611   3.202  -0.962  0.00  0.00    -0.304 NA
ATOM     31  C   UNL     1       6.688   2.412   0.275  0.00  0.00    +0.066 C 
ATOM     32  C   UNL     1       5.656   1.283   0.221  0.00  0.00    -0.063 C 
ATOM     33  H   UNL     1       4.123   2.532   0.897  0.00  0.00    -0.081 HD
BRANCH  30  34
ATOM     34  C   UNL     1       7.639   4.251  -0.981  0.00  0.00    +0.112 C 
BRANCH  34  35
ATOM     35  C   UNL     1       7.229   5.384  -0.038  0.00  0.00    +0.171 C 
BRANCH  35  36
ATOM     36  O   UNL     1       7.238   4.909   1.310  0.00  0.00    -0.394 OA
ATOM     37  H   UNL     1       6.969   5.586   2.133  0.00  0.00    +0.209 HD
ENDBRANCH  35  36
ENDBRANCH  34  35
ENDBRANCH  30  34
ENDBRANCH  26  27
ENDBRANCH  23  26
ENDBRANCH   8  22
TORSDOF 8
