REMARK  Name = ZINC05082376
REMARK  6 active torsions:
REMARK  status: ('A' for Active; 'I' for Inactive)
REMARK    1  A    between atoms: C_4  and  C_8
REMARK    2  A    between atoms: C_8  and  S_9
REMARK    3  A    between atoms: S_9  and  C_10
REMARK    4  A    between atoms: C_15  and  N_19
REMARK    5  A    between atoms: C_16  and  N_18
REMARK    6  A    between atoms: C_20  and  C_22
REMARK                            x       y       z     vdW  Elec       q    Type
REMARK                         _______ _______ _______ _____ _____    ______ ____
ROOT
ATOM      1  C   UNL     1       1.153  -0.671  -0.022  0.00  0.00    +0.171 A 
ATOM      2  N   UNL     1       2.352  -0.024  -0.021  0.00  0.00    -0.300 N 
ATOM      3  H   UNL     1       3.202  -0.550  -0.029  0.00  0.00    +0.171 HD
ATOM      4  C   UNL     1       2.395   1.324  -0.011  0.00  0.00    +0.275 A 
ATOM      5  O   UNL     1       3.466   1.912  -0.009  0.00  0.00    -0.266 OA
ATOM      6  C   UNL     1       1.188   2.039  -0.002  0.00  0.00    +0.139 A 
ATOM      7  C   UNL     1      -0.008   1.329  -0.002  0.00  0.00    +0.146 A 
ATOM      8  N   UNL     1       0.015  -0.009  -0.013  0.00  0.00    -0.207 NA
ENDROOT
BRANCH   6   9
ATOM      9  N   UNL     1       1.188   3.448   0.009  0.00  0.00    -0.272 N 
ATOM     10  C   UNL     1       1.783   4.114   1.017  0.00  0.00    +0.284 C 
ATOM     11  O   UNL     1       2.395   3.503   1.874  0.00  0.00    -0.266 OA
ATOM     12  H   UNL     1       0.759   3.938  -0.710  0.00  0.00    +0.155 HD
BRANCH  10  13
ATOM     13  C   UNL     1       1.694   5.577   1.083  0.00  0.00    +0.189 A 
ATOM     14  C   UNL     1       2.247   6.372   2.045  0.00  0.00    +0.054 A 
ATOM     15  C   UNL     1       1.914   7.695   1.716  0.00  0.00    +0.042 A 
ATOM     16  C   UNL     1       1.182   7.651   0.581  0.00  0.00    +0.196 A 
ATOM     17  O   UNL     1       1.055   6.372   0.200  0.00  0.00    -0.458 OA
ENDBRANCH  10  13
ENDBRANCH   6   9
BRANCH   7  18
ATOM     18  N   UNL     1      -1.216   2.003   0.002  0.00  0.00    -0.341 N 
ATOM     19  H   UNL     1      -2.049   1.505  -0.003  0.00  0.00    +0.144 HD
ATOM     20  H   UNL     1      -1.230   2.973   0.009  0.00  0.00    +0.144 HD
ENDBRANCH   7  18
BRANCH   1  21
ATOM     21  S   UNL     1       1.124  -2.433  -0.035  0.00  0.00    -0.083 S 
BRANCH  21  22
ATOM     22  C   UNL     1      -0.663  -2.718  -0.031  0.00  0.00    +0.116 C 
BRANCH  22  26
ATOM     23  C   UNL     1      -1.435  -6.922  -0.060  0.00  0.00    +0.004 A 
ATOM     24  C   UNL     1      -1.306  -6.252   1.142  0.00  0.00    +0.039 A 
ATOM     25  C   UNL     1      -1.056  -4.891   1.153  0.00  0.00    +0.129 A 
ATOM     26  C   UNL     1      -0.935  -4.200  -0.041  0.00  0.00    +0.016 A 
ATOM     27  C   UNL     1      -1.071  -4.870  -1.243  0.00  0.00    +0.048 A 
ATOM     28  C   UNL     1      -1.315  -6.232  -1.252  0.00  0.00    +0.020 A 
ATOM     29 CL   UNL     1      -0.927  -4.004  -2.741  0.00  0.00    -0.083 Cl
ATOM     30  F   UNL     1      -0.929  -4.236   2.328  0.00  0.00    -0.205 F 
ENDBRANCH  22  26
ENDBRANCH  21  22
ENDBRANCH   1  21
TORSDOF 6
