REMARK  Name = ZINC39844128
REMARK  8 active torsions:
REMARK  status: ('A' for Active; 'I' for Inactive)
REMARK    1  A    between atoms: C_1  and  C_2
REMARK    2  A    between atoms: C_7  and  C_8
REMARK    3  A    between atoms: C_10  and  S_22
REMARK    4  A    between atoms: C_11  and  N_13
REMARK    5  A    between atoms: N_13  and  C_14
REMARK    6  A    between atoms: C_14  and  C_15
REMARK    7  A    between atoms: C_15  and  C_16
REMARK    8  A    between atoms: S_22  and  C_25
REMARK                            x       y       z     vdW  Elec       q    Type
REMARK                         _______ _______ _______ _____ _____    ______ ____
ROOT
ATOM      1  C   UNL     1       0.173   0.151   2.406  0.00  0.00    +0.232 A 
ATOM      2  N   UNL     1       0.376  -0.328   3.610  0.00  0.00    -0.188 NA
ATOM      3  C   UNL     1       0.385   0.690   4.484  0.00  0.00    +0.243 A 
ATOM      4  C   UNL     1       0.180   1.834   3.787  0.00  0.00    +0.233 A 
ATOM      5  O   UNL     1       0.053   1.491   2.489  0.00  0.00    -0.420 OA
ENDROOT
BRANCH   1  12
ATOM      6  C   UNL     1      -1.975   0.638   0.529  0.00  0.00    +0.044 C 
ATOM      7  C   UNL     1      -0.937  -0.419   0.251  0.00  0.00    -0.038 A 
ATOM      8  C   UNL     1      -1.001  -1.162  -0.910  0.00  0.00    +0.004 A 
ATOM      9  C   UNL     1      -0.049  -2.133  -1.167  0.00  0.00    +0.000 A 
ATOM     10  C   UNL     1       0.972  -2.366  -0.262  0.00  0.00    +0.001 A 
ATOM     11  C   UNL     1       1.048  -1.631   0.902  0.00  0.00    +0.013 A 
ATOM     12  C   UNL     1       0.094  -0.645   1.165  0.00  0.00    +0.040 A 
ENDBRANCH   1  12
BRANCH   3  13
ATOM     13  S   UNL     1       0.622   0.562   6.225  0.00  0.00    +0.047 S 
ATOM     14  O   UNL     1       0.021   1.714   6.802  0.00  0.00    -0.163 OA
ATOM     15  O   UNL     1       0.244  -0.758   6.590  0.00  0.00    -0.163 OA
BRANCH  13  16
ATOM     16  C   UNL     1       2.353   0.693   6.527  0.00  0.00    +0.096 A 
ATOM     17  C   UNL     1       3.140  -0.444   6.538  0.00  0.00    +0.029 A 
ATOM     18  C   UNL     1       4.497  -0.342   6.775  0.00  0.00    +0.022 A 
ATOM     19  C   UNL     1       5.069   0.897   7.000  0.00  0.00    +0.041 A 
ATOM     20  C   UNL     1       4.281   2.034   6.989  0.00  0.00    +0.022 A 
ATOM     21  C   UNL     1       2.924   1.932   6.747  0.00  0.00    +0.029 A 
ATOM     22 CL   UNL     1       6.774   1.026   7.298  0.00  0.00    -0.084 Cl
ENDBRANCH  13  16
ENDBRANCH   3  13
BRANCH   4  23
ATOM     23  N   UNL     1       0.117   3.120   4.311  0.00  0.00    -0.312 N 
ATOM     24  H   UNL     1       0.226   3.261   5.264  0.00  0.00    +0.149 HD
BRANCH  23  25
ATOM     25  C   UNL     1      -0.112   4.263   3.423  0.00  0.00    +0.109 C 
BRANCH  25  26
ATOM     26  C   UNL     1      -0.137   5.552   4.246  0.00  0.00    +0.054 C 
BRANCH  26  27
ATOM     27  C   UNL     1      -0.373   6.727   3.333  0.00  0.00    -0.046 A 
ATOM     28  C   UNL     1       0.700   7.382   2.757  0.00  0.00    +0.004 A 
ATOM     29  C   UNL     1       0.484   8.460   1.919  0.00  0.00    +0.000 A 
ATOM     30  C   UNL     1      -0.806   8.883   1.657  0.00  0.00    +0.000 A 
ATOM     31  C   UNL     1      -1.879   8.227   2.231  0.00  0.00    +0.000 A 
ATOM     32  C   UNL     1      -1.663   7.147   3.066  0.00  0.00    +0.004 A 
ENDBRANCH  26  27
ENDBRANCH  25  26
ENDBRANCH  23  25
ENDBRANCH   4  23
TORSDOF 7
