REMARK  Name = ZINC66242616
REMARK  6 active torsions:
REMARK  status: ('A' for Active; 'I' for Inactive)
REMARK    1  A    between atoms: C_4  and  C_7
REMARK    2  A    between atoms: C_7  and  N_8
REMARK    3  A    between atoms: N_11  and  C_12
REMARK    4  A    between atoms: C_12  and  C_13
REMARK    5  A    between atoms: N_16  and  C_20
REMARK    6  A    between atoms: C_20  and  C_21
REMARK                            x       y       z     vdW  Elec       q    Type
REMARK                         _______ _______ _______ _____ _____    ______ ____
ROOT
ATOM      1  N   UNL     1       4.152  -0.952   1.338  0.00  0.00    -0.354 N 
ATOM      2  C   UNL     1       5.334  -1.613   1.573  0.00  0.00    +0.169 C 
ATOM      3  N   UNL     1       6.063  -2.022   0.573  0.00  0.00    -0.371 N 
ATOM      4  N   UNL     1       5.747  -1.844   2.864  0.00  0.00    -0.355 N 
ATOM      5  H   UNL     1       3.610  -0.648   2.082  0.00  0.00    +0.163 HD
ATOM      6  H   UNL     1       6.897  -2.488   0.739  0.00  0.00    +0.159 HD
ATOM      7  H   UNL     1       5.205  -1.540   3.609  0.00  0.00    +0.162 HD
ATOM      8  H   UNL     1       5.771  -1.860  -0.338  0.00  0.00    +0.159 HD
ENDROOT
BRANCH   1   9
ATOM      9  C   UNL     1       3.711  -0.707  -0.038  0.00  0.00    +0.151 C 
BRANCH   9  13
ATOM     10  C   UNL     1      -0.017   1.378   0.010  0.00  0.00    +0.000 A 
ATOM     11  C   UNL     1       1.171   2.086   0.002  0.00  0.00    +0.000 A 
ATOM     12  C   UNL     1       2.377   1.411  -0.013  0.00  0.00    +0.005 A 
ATOM     13  C   UNL     1       2.396   0.029  -0.020  0.00  0.00    -0.028 A 
ATOM     14  C   UNL     1       1.208  -0.679  -0.012  0.00  0.00    +0.005 A 
ATOM     15  C   UNL     1       0.002  -0.004   0.002  0.00  0.00    +0.000 A 
ENDBRANCH   9  13
ENDBRANCH   1   9
BRANCH   4  16
ATOM     16  C   UNL     1       7.007  -2.548   3.115  0.00  0.00    +0.148 C 
BRANCH  16  17
ATOM     17  C   UNL     1       7.231  -2.672   4.624  0.00  0.00    +0.151 C 
ATOM     18  C   UNL     1       8.548  -3.406   4.887  0.00  0.00    +0.118 C 
ATOM     19  N   UNL     1       8.796  -3.454   6.335  0.00  0.00    -0.293 NA
ATOM     20  C   UNL     1       8.853  -2.097   6.899  0.00  0.00    +0.113 C 
ATOM     21  C   UNL     1       7.533  -1.376   6.616  0.00  0.00    +0.175 C 
ATOM     22  O   UNL     1       7.292  -1.367   5.206  0.00  0.00    -0.372 OA
BRANCH  19  23
ATOM     23  C   UNL     1      10.024  -4.201   6.635  0.00  0.00    +0.119 C 
BRANCH  23  24
ATOM     24  C   UNL     1      10.117  -4.441   8.120  0.00  0.00    -0.033 A 
ATOM     25  C   UNL     1      10.749  -3.518   8.931  0.00  0.00    +0.005 A 
ATOM     26  C   UNL     1      10.834  -3.738  10.293  0.00  0.00    +0.000 A 
ATOM     27  C   UNL     1      10.286  -4.881  10.844  0.00  0.00    +0.000 A 
ATOM     28  C   UNL     1       9.652  -5.804  10.033  0.00  0.00    +0.000 A 
ATOM     29  C   UNL     1       9.564  -5.582   8.672  0.00  0.00    +0.005 A 
ENDBRANCH  23  24
ENDBRANCH  19  23
ENDBRANCH  16  17
ENDBRANCH   4  16
TORSDOF 6
