REMARK  Name = ZINC01182749
REMARK  9 active torsions:
REMARK  status: ('A' for Active; 'I' for Inactive)
REMARK    1  A    between atoms: C_1  and  O_2
REMARK    2  A    between atoms: O_2  and  C_3
REMARK    3  A    between atoms: C_5  and  C_11
REMARK    4  A    between atoms: C_7  and  O_9
REMARK    5  A    between atoms: O_9  and  C_10
REMARK    6  A    between atoms: N_13  and  C_14
REMARK    7  A    between atoms: C_14  and  N_16
REMARK    8  A    between atoms: N_16  and  C_17
REMARK    9  A    between atoms: C_24  and  C_26
REMARK                            x       y       z     vdW  Elec       q    Type
REMARK                         _______ _______ _______ _____ _____    ______ ____
ROOT
ATOM      1  N   UNL     1      -2.345   0.934   0.018  0.00  0.00    -0.297 N 
ATOM      2  H   UNL     1      -2.333   0.002  -0.250  0.00  0.00    +0.154 HD
ENDROOT
BRANCH   1   3
ATOM      3  C   UNL     1      -3.565   1.613   0.133  0.00  0.00    +0.035 A 
ATOM      4  C   UNL     1      -3.783   2.469   1.211  0.00  0.00    +0.027 A 
ATOM      5  C   UNL     1      -4.977   3.147   1.333  0.00  0.00    +0.050 A 
ATOM      6  C   UNL     1      -5.974   2.971   0.386  0.00  0.00    +0.156 A 
ATOM      7  C   UNL     1      -5.764   2.106  -0.700  0.00  0.00    +0.112 A 
ATOM      8  C   UNL     1      -4.549   1.427  -0.820  0.00  0.00    +0.054 A 
ATOM      9  N   UNL     1      -6.897   2.137  -1.448  0.00  0.00    -0.209 NA
ATOM     10  C   UNL     1      -7.752   2.952  -0.885  0.00  0.00    +0.228 A 
ATOM     11  O   UNL     1      -7.220   3.477   0.235  0.00  0.00    -0.435 OA
BRANCH  10  12
ATOM     12  C   UNL     1      -9.103   3.252  -1.402  0.00  0.00    +0.037 A 
ATOM     13  C   UNL     1      -9.552   2.654  -2.580  0.00  0.00    +0.014 A 
ATOM     14  C   UNL     1     -10.816   2.934  -3.055  0.00  0.00    +0.021 A 
ATOM     15  C   UNL     1     -11.636   3.816  -2.371  0.00  0.00    +0.041 A 
ATOM     16  C   UNL     1     -11.194   4.417  -1.204  0.00  0.00    +0.021 A 
ATOM     17  C   UNL     1      -9.934   4.140  -0.716  0.00  0.00    +0.014 A 
ATOM     18 CL   UNL     1     -13.223   4.170  -2.978  0.00  0.00    -0.084 Cl
ENDBRANCH  10  12
ENDBRANCH   1   3
BRANCH   1  19
ATOM     19  C   UNL     1      -1.189   1.576   0.280  0.00  0.00    +0.141 C 
ATOM     20  S   UNL     1      -1.199   3.255   0.614  0.00  0.00    -0.018 S 
BRANCH  19  23
ATOM     21  C   UNL     1       1.131   1.538   0.534  0.00  0.00    +0.250 C 
ATOM     22  O   UNL     1       1.124   2.730   0.771  0.00  0.00    -0.270 OA
ATOM     23  N   UNL     1      -0.026   0.896   0.278  0.00  0.00    -0.264 N 
ATOM     24  H   UNL     1      -0.020  -0.056   0.088  0.00  0.00    +0.157 HD
BRANCH  21  27
ATOM     25  C   UNL     1       4.801   0.755   0.782  0.00  0.00    +0.124 A 
ATOM     26  C   UNL     1       3.607   1.457   0.791  0.00  0.00    +0.059 A 
ATOM     27  C   UNL     1       2.408   0.794   0.526  0.00  0.00    +0.044 A 
ATOM     28  C   UNL     1       2.417  -0.576   0.259  0.00  0.00    +0.059 A 
ATOM     29  C   UNL     1       3.616  -1.269   0.247  0.00  0.00    +0.124 A 
ATOM     30  C   UNL     1       4.806  -0.605   0.511  0.00  0.00    +0.091 A 
BRANCH  25  32
ATOM     31  C   UNL     1       7.162   0.616   1.014  0.00  0.00    +0.277 C 
ATOM     32  O   UNL     1       5.969   1.401   1.039  0.00  0.00    -0.495 OA
ENDBRANCH  25  32
BRANCH  29  33
ATOM     33  O   UNL     1       3.627  -2.602  -0.019  0.00  0.00    -0.495 OA
ATOM     34  C   UNL     1       4.899  -3.255  -0.009  0.00  0.00    +0.277 C 
ENDBRANCH  29  33
ENDBRANCH  21  27
ENDBRANCH  19  23
ENDBRANCH   1  19
TORSDOF 7
