REMARK  Name = ZINC53681013
REMARK  10 active torsions:
REMARK  status: ('A' for Active; 'I' for Inactive)
REMARK    1  A    between atoms: C_1  and  N_2
REMARK    2  A    between atoms: N_2  and  C_3
REMARK    3  A    between atoms: N_2  and  C_14
REMARK    4  A    between atoms: C_3  and  C_4
REMARK    5  A    between atoms: C_4  and  C_5
REMARK    6  A    between atoms: C_5  and  O_6
REMARK    7  A    between atoms: O_6  and  C_7
REMARK    8  A    between atoms: C_14  and  C_15
REMARK    9  A    between atoms: N_17  and  C_18
REMARK   10  A    between atoms: C_19  and  C_23
REMARK                            x       y       z     vdW  Elec       q    Type
REMARK                         _______ _______ _______ _____ _____    ______ ____
ROOT
ATOM      1  C   UNL     1      -1.376  -0.512   0.012  0.00  0.00    +0.018 C 
ENDROOT
BRANCH   1   2
ATOM      2  C   UNL     1      -2.067  -0.116  -1.267  0.00  0.00    +0.201 C 
ATOM      3  O   UNL     1      -1.471   0.527  -2.104  0.00  0.00    -0.278 OA
ATOM      4  N   UNL     1      -3.349  -0.476  -1.480  0.00  0.00    -0.281 N 
ATOM      5  H   UNL     1      -3.826  -0.990  -0.809  0.00  0.00    +0.155 HD
BRANCH   4   6
ATOM      6  C   UNL     1      -3.985  -0.111  -2.656  0.00  0.00    +0.084 A 
ATOM      7  C   UNL     1      -5.289  -0.386  -3.041  0.00  0.00    +0.065 A 
ATOM      8  C   UNL     1      -5.701   0.117  -4.332  0.00  0.00    +0.022 A 
ATOM      9  C   UNL     1      -4.768   0.799  -5.021  0.00  0.00    +0.048 A 
ATOM     10  S   UNL     1      -3.356   0.769  -3.939  0.00  0.00    -0.081 S 
BRANCH   7  11
ATOM     11  C   UNL     1      -6.202  -1.147  -2.183  0.00  0.00    +0.244 C 
ATOM     12  O   UNL     1      -5.822  -1.556  -1.101  0.00  0.00    -0.270 OA
ATOM     13  N   UNL     1      -7.463  -1.393  -2.591  0.00  0.00    -0.325 N 
ATOM     14  H   UNL     1      -7.766  -1.067  -3.453  0.00  0.00    +0.145 HD
ATOM     15  H   UNL     1      -8.067  -1.897  -2.023  0.00  0.00    +0.145 HD
ENDBRANCH   7  11
ENDBRANCH   4   6
ENDBRANCH   1   2
BRANCH   1  17
ATOM     16  C   UNL     1      -0.018   1.465   0.010  0.00  0.00    -0.096 C 
ATOM     17  N   UNL     1       0.002  -0.004   0.002  0.00  0.00    +0.384 N 
ATOM     18  H   UNL     1       0.474  -0.330  -0.828  0.00  0.00    -0.082 HD
BRANCH  17  19
ATOM     19  C   UNL     1       0.713  -0.491   1.192  0.00  0.00    -0.075 C 
BRANCH  19  20
ATOM     20  C   UNL     1       2.180  -0.066   1.119  0.00  0.00    +0.022 C 
BRANCH  20  21
ATOM     21  C   UNL     1       2.921  -0.572   2.359  0.00  0.00    +0.227 C 
BRANCH  21  22
ATOM     22  O   UNL     1       4.292  -0.175   2.290  0.00  0.00    -0.492 OA
BRANCH  22  23
ATOM     23  C   UNL     1       5.094  -0.548   3.322  0.00  0.00    +0.121 A 
ATOM     24  C   UNL     1       4.574  -1.286   4.375  0.00  0.00    +0.047 A 
ATOM     25  C   UNL     1       5.391  -1.664   5.423  0.00  0.00    +0.023 A 
ATOM     26  C   UNL     1       6.728  -1.307   5.422  0.00  0.00    +0.041 A 
ATOM     27  C   UNL     1       7.248  -0.571   4.373  0.00  0.00    +0.023 A 
ATOM     28  C   UNL     1       6.436  -0.197   3.321  0.00  0.00    +0.047 A 
ATOM     29 CL   UNL     1       7.752  -1.783   6.740  0.00  0.00    -0.084 Cl
ENDBRANCH  22  23
ENDBRANCH  21  22
ENDBRANCH  20  21
ENDBRANCH  19  20
ENDBRANCH  17  19
ENDBRANCH   1  17
TORSDOF 9
