REMARK  Name = ZINC31083703
REMARK  7 active torsions:
REMARK  status: ('A' for Active; 'I' for Inactive)
REMARK    1  A    between atoms: C_4  and  N_11
REMARK    2  A    between atoms: C_5  and  C_7
REMARK    3  A    between atoms: C_12  and  C_14
REMARK    4  A    between atoms: C_14  and  N_15
REMARK    5  A    between atoms: N_18  and  C_21
REMARK    6  A    between atoms: C_21  and  C_22
REMARK    7  A    between atoms: C_25  and  C_27
REMARK                            x       y       z     vdW  Elec       q    Type
REMARK                         _______ _______ _______ _____ _____    ______ ____
ROOT
ATOM      1  N   UNL     1       2.409   1.039   0.006  0.00  0.00    +0.387 N 
ATOM      2  C   UNL     1       2.464   0.266   1.254  0.00  0.00    -0.063 C 
ATOM      3  C   UNL     1       3.602  -0.754   1.170  0.00  0.00    +0.066 C 
ATOM      4  N   UNL     1       4.870  -0.050   0.934  0.00  0.00    -0.300 NA
ATOM      5  C   UNL     1       4.816   0.723  -0.314  0.00  0.00    +0.066 C 
ATOM      6  C   UNL     1       3.678   1.743  -0.230  0.00  0.00    -0.063 C 
ATOM      7  H   UNL     1       2.253   0.334  -0.824  0.00  0.00    -0.081 HD
ENDROOT
BRANCH   1   8
ATOM      8  C   UNL     1       1.280   1.979   0.017  0.00  0.00    +0.019 C 
BRANCH   8  10
ATOM      9  N   UNL     1      -1.191   1.867   0.018  0.00  0.00    -0.287 N 
ATOM     10  C   UNL     1      -0.015   1.208   0.014  0.00  0.00    +0.201 C 
ATOM     11  O   UNL     1       0.001  -0.004   0.004  0.00  0.00    -0.278 OA
ATOM     12  H   UNL     1      -1.207   2.963   0.102  0.00  0.00    +0.155 HD
BRANCH   9  16
ATOM     13  C   UNL     1      -4.764  -0.252  -0.292  0.00  0.00    +0.001 A 
ATOM     14  C   UNL     1      -3.697  -0.796   0.399  0.00  0.00    +0.002 A 
ATOM     15  C   UNL     1      -2.510  -0.099   0.499  0.00  0.00    +0.024 A 
ATOM     16  C   UNL     1      -2.391   1.155  -0.086  0.00  0.00    +0.045 A 
ATOM     17  C   UNL     1      -3.464   1.699  -0.779  0.00  0.00    +0.076 A 
ATOM     18  C   UNL     1      -4.648   0.994  -0.880  0.00  0.00    +0.014 A 
BRANCH  17  19
ATOM     19  C   UNL     1      -3.338   3.057  -1.421  0.00  0.00    +0.419 C 
ATOM     20  F   UNL     1      -4.540   3.386  -2.055  0.00  0.00    -0.166 F 
ATOM     21  F   UNL     1      -3.051   4.011  -0.439  0.00  0.00    -0.166 F 
ATOM     22  F   UNL     1      -2.305   3.032  -2.364  0.00  0.00    -0.166 F 
ENDBRANCH  17  19
ENDBRANCH   9  16
ENDBRANCH   8  10
ENDBRANCH   1   8
BRANCH   4  23
ATOM     23  C   UNL     1       5.999  -0.990   0.923  0.00  0.00    +0.143 C 
BRANCH  23  24
ATOM     24  C   UNL     1       5.883  -1.929   2.096  0.00  0.00    +0.094 A 
ATOM     25  C   UNL     1       5.320  -3.151   2.080  0.00  0.00    +0.222 A 
ATOM     26  O   UNL     1       5.425  -3.656   3.325  0.00  0.00    -0.443 OA
ATOM     27  C   UNL     1       6.042  -2.738   4.088  0.00  0.00    +0.227 A 
ATOM     28  N   UNL     1       6.318  -1.694   3.343  0.00  0.00    -0.213 NA
BRANCH  27  29
ATOM     29  C   UNL     1       6.355  -2.880   5.526  0.00  0.00    +0.037 A 
ATOM     30  C   UNL     1       7.007  -1.849   6.206  0.00  0.00    +0.014 A 
ATOM     31  C   UNL     1       7.292  -1.985   7.548  0.00  0.00    +0.021 A 
ATOM     32  C   UNL     1       6.943  -3.146   8.219  0.00  0.00    +0.041 A 
ATOM     33  C   UNL     1       6.301  -4.173   7.548  0.00  0.00    +0.021 A 
ATOM     34  C   UNL     1       6.006  -4.047   6.207  0.00  0.00    +0.014 A 
ATOM     35 CL   UNL     1       7.311  -3.312   9.907  0.00  0.00    -0.084 Cl
ENDBRANCH  27  29
ENDBRANCH  23  24
ENDBRANCH   4  23
TORSDOF 7
