REMARK  Name = ZINC02233939
REMARK  9 active torsions:
REMARK  status: ('A' for Active; 'I' for Inactive)
REMARK    1  A    between atoms: C_1  and  C_2
REMARK    2  A    between atoms: C_2  and  C_9
REMARK    3  A    between atoms: C_3  and  C_4
REMARK    4  A    between atoms: N_10  and  N_11
REMARK    5  A    between atoms: C_12  and  C_14
REMARK    6  A    between atoms: C_15  and  C_25
REMARK    7  A    between atoms: C_25  and  N_26
REMARK    8  A    between atoms: N_26  and  C_27
REMARK    9  A    between atoms: N_26  and  C_28
REMARK                            x       y       z     vdW  Elec       q    Type
REMARK                         _______ _______ _______ _____ _____    ______ ____
ROOT
ATOM      1  C   UNL     1      -0.058  -2.631  -5.409  0.00  0.00    +0.170 A 
ATOM      2  C   UNL     1      -0.027  -2.444  -6.761  0.00  0.00    +0.063 A 
ATOM      3  N   UNL     1      -0.071  -3.671  -7.326  0.00  0.00    -0.194 N 
ATOM      4  N   UNL     1      -0.130  -4.598  -6.276  0.00  0.00    -0.058 NA
ATOM      5  N   UNL     1      -0.115  -3.952  -5.163  0.00  0.00    -0.124 NA
ATOM      6  C   UNL     1      -0.061  -3.961  -8.696  0.00  0.00    +0.240 A 
ATOM      7  C   UNL     1      -0.116  -5.300  -9.290  0.00  0.00    +0.206 A 
ATOM      8  N   UNL     1      -0.087  -5.174 -10.588  0.00  0.00    -0.032 NA
ATOM      9  O   UNL     1      -0.015  -3.791 -10.888  0.00  0.00    -0.239 OA
ATOM     10  N   UNL     1      -0.008  -3.086  -9.659  0.00  0.00    -0.027 NA
ATOM     11  N   UNL     1      -0.185  -6.499  -8.589  0.00  0.00    -0.337 N 
ATOM     12  H   UNL     1      -0.201  -6.494  -7.620  0.00  0.00    +0.144 HD
ATOM     13  H   UNL     1      -0.217  -7.340  -9.071  0.00  0.00    +0.144 HD
ENDROOT
BRANCH   1  15
ATOM     14  N   UNL     1      -0.059  -1.883  -3.081  0.00  0.00    -0.202 N 
ATOM     15  C   UNL     1      -0.029  -1.565  -4.390  0.00  0.00    +0.285 C 
ATOM     16  O   UNL     1       0.024  -0.399  -4.731  0.00  0.00    -0.267 OA
ATOM     17  H   UNL     1      -0.101  -2.813  -2.808  0.00  0.00    +0.178 HD
BRANCH  14  19
ATOM     18  C   UNL     1      -0.060  -1.178  -0.846  0.00  0.00    +0.133 C 
ATOM     19  N   UNL     1      -0.031  -0.871  -2.113  0.00  0.00    -0.188 NA
BRANCH  18  21
ATOM     20  C   UNL     1      -0.095   1.290  -0.289  0.00  0.00    +0.045 C 
ATOM     21  C   UNL     1      -0.032  -0.155   0.131  0.00  0.00    -0.027 C 
ATOM     22  C   UNL     1       0.053  -0.476   1.444  0.00  0.00    +0.051 C 
BRANCH  22  23
ATOM     23  C   UNL     1      -0.010  -1.876   1.860  0.00  0.00    +0.128 A 
ATOM     24  C   UNL     1      -0.047  -2.330   3.150  0.00  0.00    +0.049 A 
ATOM     25  C   UNL     1      -0.103  -3.733   3.082  0.00  0.00    +0.042 A 
ATOM     26  C   UNL     1      -0.099  -4.069   1.775  0.00  0.00    +0.195 A 
ATOM     27  O   UNL     1      -0.048  -2.946   1.040  0.00  0.00    -0.464 OA
ENDBRANCH  22  23
ENDBRANCH  18  21
ENDBRANCH  14  19
ENDBRANCH   1  15
BRANCH   2  28
ATOM     28  C   UNL     1       0.042  -1.124  -7.485  0.00  0.00    -0.021 C 
BRANCH  28  29
ATOM     29  N   UNL     1      -1.319  -0.635  -7.743  0.00  0.00    +0.380 N 
ATOM     30  C   UNL     1      -1.252   0.706  -8.339  0.00  0.00    -0.096 C 
ATOM     31  C   UNL     1      -2.000  -1.549  -8.668  0.00  0.00    -0.096 C 
ATOM     32  H   UNL     1      -1.831  -0.591  -6.875  0.00  0.00    -0.082 HD
ENDBRANCH  28  29
ENDBRANCH   2  28
TORSDOF 6
