REMARK  Name = ZINC08591565
REMARK  10 active torsions:
REMARK  status: ('A' for Active; 'I' for Inactive)
REMARK    1  A    between atoms: C_1  and  C_2
REMARK    2  A    between atoms: C_3  and  C_27
REMARK    3  A    between atoms: C_4  and  C_20
REMARK    4  A    between atoms: C_10  and  S_12
REMARK    5  A    between atoms: S_12  and  C_13
REMARK    6  A    between atoms: C_13  and  C_14
REMARK    7  A    between atoms: C_24  and  O_26
REMARK    8  A    between atoms: N_29  and  C_30
REMARK    9  A    between atoms: C_35  and  O_36
REMARK   10  A    between atoms: O_36  and  C_37
REMARK                            x       y       z     vdW  Elec       q    Type
REMARK                         _______ _______ _______ _____ _____    ______ ____
ROOT
ATOM      1  C   UNL     1       0.734   0.989  -1.238  0.00  0.00    +0.064 C 
ATOM      2  C   UNL     1       0.397  -0.408  -0.786  0.00  0.00    +0.026 C 
ATOM      3  C   UNL     1      -0.910  -0.731  -0.547  0.00  0.00    +0.060 C 
ATOM      4  C   UNL     1      -1.203  -2.150  -0.093  0.00  0.00    +0.164 C 
ATOM      5  N   UNL     1      -0.042  -3.037   0.042  0.00  0.00    -0.208 N 
ATOM      6  C   UNL     1       1.210  -2.543  -0.242  0.00  0.00    +0.215 C 
ATOM      7  N   UNL     1       1.375  -1.288  -0.637  0.00  0.00    -0.330 N 
ATOM      8  N   UNL     1       2.088  -3.535  -0.044  0.00  0.00    -0.192 NA
ATOM      9  C   UNL     1       1.462  -4.630   0.349  0.00  0.00    +0.174 C 
ATOM     10  N   UNL     1       0.120  -4.372   0.420  0.00  0.00    -0.239 N 
ATOM     11  H   UNL     1       2.278  -0.992  -0.829  0.00  0.00    +0.168 HD
ATOM     12  H   UNL     1      -0.579  -4.992   0.681  0.00  0.00    +0.172 HD
ENDROOT
BRANCH   4  13
ATOM     13  C   UNL     1      -2.152  -2.774  -1.085  0.00  0.00    -0.017 A 
ATOM     14  C   UNL     1      -1.711  -3.092  -2.356  0.00  0.00    +0.006 A 
ATOM     15  C   UNL     1      -2.579  -3.664  -3.268  0.00  0.00    +0.004 A 
ATOM     16  C   UNL     1      -3.889  -3.918  -2.911  0.00  0.00    +0.045 A 
ATOM     17  C   UNL     1      -4.333  -3.599  -1.636  0.00  0.00    +0.117 A 
ATOM     18  C   UNL     1      -3.459  -3.031  -0.721  0.00  0.00    +0.051 A 
BRANCH  17  19
ATOM     19  O   UNL     1      -5.622  -3.849  -1.282  0.00  0.00    -0.507 OA
ATOM     20  H   UNL     1      -5.762  -4.725  -0.898  0.00  0.00    +0.292 HD
ENDBRANCH  17  19
ENDBRANCH   4  13
BRANCH   3  21
ATOM     21  C   UNL     1      -1.939   0.212  -0.713  0.00  0.00    +0.248 C 
ATOM     22  O   UNL     1      -1.687   1.317  -1.160  0.00  0.00    -0.270 OA
ATOM     23  N   UNL     1      -3.205  -0.106  -0.377  0.00  0.00    -0.279 N 
ATOM     24  H   UNL     1      -3.399  -0.967   0.025  0.00  0.00    +0.155 HD
BRANCH  23  25
ATOM     25  C   UNL     1      -4.242   0.807  -0.609  0.00  0.00    +0.076 A 
ATOM     26  C   UNL     1      -3.969   2.165  -0.679  0.00  0.00    +0.027 A 
ATOM     27  C   UNL     1      -4.994   3.064  -0.908  0.00  0.00    +0.002 A 
ATOM     28  C   UNL     1      -6.291   2.613  -1.068  0.00  0.00    +0.004 A 
ATOM     29  C   UNL     1      -6.570   1.261  -0.999  0.00  0.00    +0.047 A 
ATOM     30  C   UNL     1      -5.548   0.353  -0.776  0.00  0.00    +0.141 A 
BRANCH  30  31
ATOM     31  O   UNL     1      -5.820  -0.978  -0.714  0.00  0.00    -0.493 OA
ATOM     32  C   UNL     1      -7.183  -1.371  -0.894  0.00  0.00    +0.277 C 
ENDBRANCH  30  31
ENDBRANCH  23  25
ENDBRANCH   3  21
BRANCH   9  33
ATOM     33  S   UNL     1       2.231  -6.171   0.723  0.00  0.00    -0.084 S 
BRANCH  33  34
ATOM     34  C   UNL     1       3.995  -5.862   0.439  0.00  0.00    +0.112 C 
BRANCH  34  35
ATOM     35  C   UNL     1       4.778  -7.117   0.726  0.00  0.00    -0.037 A 
ATOM     36  C   UNL     1       5.256  -7.357   2.000  0.00  0.00    +0.004 A 
ATOM     37  C   UNL     1       5.974  -8.509   2.263  0.00  0.00    +0.000 A 
ATOM     38  C   UNL     1       6.213  -9.421   1.252  0.00  0.00    +0.000 A 
ATOM     39  C   UNL     1       5.734  -9.181  -0.022  0.00  0.00    +0.000 A 
ATOM     40  C   UNL     1       5.012  -8.032  -0.284  0.00  0.00    +0.004 A 
ENDBRANCH  34  35
ENDBRANCH  33  34
ENDBRANCH   9  33
TORSDOF 8
