REMARK  Name = ZINC09354120
REMARK  12 active torsions:
REMARK  status: ('A' for Active; 'I' for Inactive)
REMARK    1  A    between atoms: C_1  and  C_2
REMARK    2  A    between atoms: C_2  and  C_3
REMARK    3  A    between atoms: C_3  and  C_4
REMARK    4  A    between atoms: C_6  and  C_29
REMARK    5  A    between atoms: C_8  and  C_21
REMARK    6  A    between atoms: C_11  and  C_12
REMARK    7  A    between atoms: C_11  and  O_20
REMARK    8  A    between atoms: C_13  and  C_14
REMARK    9  A    between atoms: C_24  and  O_27
REMARK   10  A    between atoms: O_27  and  C_28
REMARK   11  A    between atoms: C_32  and  O_35
REMARK   12  A    between atoms: O_35  and  C_36
REMARK                            x       y       z     vdW  Elec       q    Type
REMARK                         _______ _______ _______ _____ _____    ______ ____
ROOT
ATOM      1  C   UNL     1      -0.870   3.542   1.330  0.00  0.00    +0.023 C 
ATOM      2  C   UNL     1      -1.655   3.936   2.583  0.00  0.00    -0.033 C 
ATOM      3  C   UNL     1      -0.444   6.027   2.756  0.00  0.00    -0.036 C 
ATOM      4  C   UNL     1       0.378   5.696   1.508  0.00  0.00    +0.037 C 
ATOM      5  C   UNL     1       0.523   4.177   1.386  0.00  0.00    +0.127 C 
ATOM      6  N   UNL     1      -1.777   5.404   2.653  0.00  0.00    +0.388 N 
ATOM      7  H   UNL     1      -2.334   5.659   3.478  0.00  0.00    -0.084 HD
ATOM      8  H   UNL     1      -2.246   5.745   1.805  0.00  0.00    -0.084 HD
ENDROOT
BRANCH   3   9
ATOM      9  C   UNL     1      -0.606   7.521   2.868  0.00  0.00    -0.061 A 
ATOM     10  C   UNL     1      -1.558   8.172   2.105  0.00  0.00    +0.005 A 
ATOM     11  C   UNL     1      -1.712   9.541   2.211  0.00  0.00    +0.046 A 
ATOM     12  C   UNL     1      -0.903  10.264   3.075  0.00  0.00    +0.120 A 
ATOM     13  C   UNL     1       0.055   9.610   3.835  0.00  0.00    +0.046 A 
ATOM     14  C   UNL     1       0.202   8.240   3.730  0.00  0.00    +0.005 A 
BRANCH  12  15
ATOM     15  O   UNL     1      -1.048  11.611   3.176  0.00  0.00    -0.495 OA
ATOM     16  C   UNL     1      -2.055  12.218   2.363  0.00  0.00    +0.277 C 
ENDBRANCH  12  15
ENDBRANCH   3   9
BRANCH   2  17
ATOM     17  C   UNL     1      -3.034   3.329   2.523  0.00  0.00    -0.061 A 
ATOM     18  C   UNL     1      -4.020   3.931   1.763  0.00  0.00    +0.005 A 
ATOM     19  C   UNL     1      -5.282   3.374   1.702  0.00  0.00    +0.046 A 
ATOM     20  C   UNL     1      -5.564   2.216   2.412  0.00  0.00    +0.120 A 
ATOM     21  C   UNL     1      -4.574   1.617   3.178  0.00  0.00    +0.046 A 
ATOM     22  C   UNL     1      -3.311   2.175   3.232  0.00  0.00    +0.005 A 
BRANCH  20  23
ATOM     23  O   UNL     1      -6.806   1.669   2.357  0.00  0.00    -0.495 OA
ATOM     24  C   UNL     1      -7.775   2.339   1.549  0.00  0.00    +0.277 C 
ENDBRANCH  20  23
ENDBRANCH   2  17
BRANCH   5  25
ATOM     25  C   UNL     1       1.262   3.850   0.156  0.00  0.00    -0.062 C 
ATOM     26  C   UNL     1       1.852   3.589  -0.825  0.00  0.00    -0.063 C 
BRANCH  26  27
ATOM     27  C   UNL     1       2.571   3.271  -2.021  0.00  0.00    +0.025 A 
ATOM     28  C   UNL     1       1.976   2.485  -3.009  0.00  0.00    +0.017 A 
ATOM     29  C   UNL     1       2.673   2.185  -4.161  0.00  0.00    +0.001 A 
ATOM     30  C   UNL     1       3.963   2.655  -4.335  0.00  0.00    +0.000 A 
ATOM     31  C   UNL     1       4.561   3.430  -3.357  0.00  0.00    +0.001 A 
ATOM     32  C   UNL     1       3.873   3.741  -2.202  0.00  0.00    +0.017 A 
ENDBRANCH  26  27
ENDBRANCH   5  25
BRANCH   5  33
ATOM     33  O   UNL     1       1.232   3.673   2.520  0.00  0.00    -0.376 OA
ATOM     34  H   UNL     1       2.124   4.033   2.618  0.00  0.00    +0.211 HD
ENDBRANCH   5  33
BRANCH   1  35
ATOM     35  C   UNL     1      -0.735   2.019   1.269  0.00  0.00    +0.006 C 
BRANCH  35  37
ATOM     36  C   UNL     1      -0.138  -0.022   2.580  0.00  0.00    +0.004 C 
ATOM     37  C   UNL     1      -0.135   1.508   2.580  0.00  0.00    -0.003 C 
ENDBRANCH  35  37
ENDBRANCH   1  35
TORSDOF 9
