REMARK  Name = ZINC02249473
REMARK  7 active torsions:
REMARK  status: ('A' for Active; 'I' for Inactive)
REMARK    1  A    between atoms: C_1  and  C_2
REMARK    2  A    between atoms: C_5  and  C_8
REMARK    3  A    between atoms: C_23  and  S_36
REMARK    4  A    between atoms: C_26  and  C_28
REMARK    5  A    between atoms: C_31  and  O_34
REMARK    6  A    between atoms: O_34  and  C_35
REMARK    7  A    between atoms: S_36  and  C_37
REMARK                            x       y       z     vdW  Elec       q    Type
REMARK                         _______ _______ _______ _____ _____    ______ ____
ROOT
ATOM      1  C   UNL     1       0.017  -4.238   0.051  0.00  0.00    +0.234 C 
ATOM      2  C   UNL     1      -1.369  -4.779   0.248  0.00  0.00    +0.025 C 
ATOM      3  C   UNL     1      -1.838  -5.030   1.488  0.00  0.00    +0.058 C 
ATOM      4  C   UNL     1      -0.930  -4.760   2.631  0.00  0.00    +0.042 A 
ATOM      5  C   UNL     1      -1.407  -4.670   3.932  0.00  0.00    +0.033 A 
ATOM      6  C   UNL     1      -0.526  -4.415   4.966  0.00  0.00    +0.042 A 
ATOM      7  C   UNL     1       0.825  -4.251   4.707  0.00  0.00    +0.023 A 
ATOM      8  C   UNL     1       1.307  -4.339   3.414  0.00  0.00    +0.048 A 
ATOM      9  C   UNL     1       0.436  -4.595   2.369  0.00  0.00    +0.131 A 
ATOM     10  O   UNL     1       0.880  -4.693   1.094  0.00  0.00    -0.479 OA
ATOM     11 CL   UNL     1      -1.114  -4.301   6.596  0.00  0.00    -0.084 Cl
ATOM     12  N   UNL     1      -3.089  -5.511   1.688  0.00  0.00    -0.326 N 
ATOM     13  C   UNL     1      -3.942  -5.783   0.724  0.00  0.00    +0.216 C 
ATOM     14  N   UNL     1      -5.200  -6.262   0.752  0.00  0.00    -0.192 NA
ATOM     15  C   UNL     1      -5.673  -6.378  -0.472  0.00  0.00    +0.174 C 
ATOM     16  N   UNL     1      -4.716  -5.968  -1.363  0.00  0.00    -0.239 N 
ATOM     17  N   UNL     1      -3.609  -5.586  -0.601  0.00  0.00    -0.209 N 
ATOM     18  C   UNL     1      -2.277  -5.060  -0.928  0.00  0.00    +0.159 C 
ATOM     19  H   UNL     1      -3.374  -5.666   2.603  0.00  0.00    +0.169 HD
ATOM     20  H   UNL     1      -4.791  -5.948  -2.330  0.00  0.00    +0.172 HD
ENDROOT
BRANCH   1  25
ATOM     21  C   UNL     1      -0.159   1.538   0.103  0.00  0.00    +0.044 C 
ATOM     22  C   UNL     1      -0.113   0.032   0.089  0.00  0.00    -0.050 A 
ATOM     23  C   UNL     1      -0.287  -0.676   1.264  0.00  0.00    +0.004 A 
ATOM     24  C   UNL     1      -0.246  -2.057   1.251  0.00  0.00    +0.008 A 
ATOM     25  C   UNL     1      -0.030  -2.732   0.064  0.00  0.00    -0.003 A 
ATOM     26  C   UNL     1       0.144  -2.024  -1.111  0.00  0.00    +0.008 A 
ATOM     27  C   UNL     1       0.098  -0.642  -1.099  0.00  0.00    +0.004 A 
ENDBRANCH   1  25
BRANCH  18  28
ATOM     28  C   UNL     1      -2.454  -3.779  -1.701  0.00  0.00    -0.021 A 
ATOM     29  C   UNL     1      -3.235  -2.762  -1.183  0.00  0.00    +0.009 A 
ATOM     30  C   UNL     1      -3.399  -1.586  -1.890  0.00  0.00    +0.046 A 
ATOM     31  C   UNL     1      -2.780  -1.427  -3.121  0.00  0.00    +0.120 A 
ATOM     32  C   UNL     1      -1.997  -2.448  -3.639  0.00  0.00    +0.046 A 
ATOM     33  C   UNL     1      -1.832  -3.620  -2.925  0.00  0.00    +0.009 A 
BRANCH  31  34
ATOM     34  O   UNL     1      -2.940  -0.272  -3.819  0.00  0.00    -0.495 OA
ATOM     35  C   UNL     1      -2.273  -0.177  -5.079  0.00  0.00    +0.277 C 
ENDBRANCH  31  34
ENDBRANCH  18  28
BRANCH  15  36
ATOM     36  S   UNL     1      -7.279  -6.967  -0.896  0.00  0.00    -0.092 S 
ATOM     37  C   UNL     1      -8.046  -7.341   0.705  0.00  0.00    +0.093 C 
ENDBRANCH  15  36
TORSDOF 4
