REMARK  Name = ZINC63941240
REMARK  11 active torsions:
REMARK  status: ('A' for Active; 'I' for Inactive)
REMARK    1  A    between atoms: C_1  and  C_2
REMARK    2  A    between atoms: C_2  and  C_3
REMARK    3  A    between atoms: C_3  and  C_4
REMARK    4  A    between atoms: C_4  and  C_5
REMARK    5  A    between atoms: C_5  and  C_6
REMARK    6  A    between atoms: C_10  and  N_13
REMARK    7  A    between atoms: C_14  and  C_16
REMARK    8  A    between atoms: N_21  and  C_23
REMARK    9  A    between atoms: C_23  and  C_24
REMARK   10  A    between atoms: C_24  and  C_25
REMARK   11  A    between atoms: C_28  and  C_34
REMARK                            x       y       z     vdW  Elec       q    Type
REMARK                         _______ _______ _______ _____ _____    ______ ____
ROOT
ATOM      1  C   UNL     1      -2.622  -9.880  -2.330  0.00  0.00    +0.101 C 
ATOM      2  C   UNL     1      -1.541  -9.874  -3.436  0.00  0.00    +0.110 C 
ATOM      3  C   UNL     1      -1.608 -11.265  -4.028  0.00  0.00    +0.216 C 
ATOM      4  O   UNL     1      -0.750 -11.765  -4.724  0.00  0.00    -0.276 OA
ATOM      5  N   UNL     1      -2.755 -11.866  -3.669  0.00  0.00    -0.300 N 
ATOM      6  C   UNL     1      -3.579 -10.986  -2.830  0.00  0.00    +0.121 C 
ENDROOT
BRANCH   1   8
ATOM      7  N   UNL     1      -2.643  -7.444  -1.901  0.00  0.00    -0.290 N 
ATOM      8  C   UNL     1      -3.327  -8.550  -2.256  0.00  0.00    +0.220 C 
ATOM      9  O   UNL     1      -4.509  -8.475  -2.517  0.00  0.00    -0.275 OA
ATOM     10  H   UNL     1      -1.698  -7.505  -1.692  0.00  0.00    +0.151 HD
BRANCH   7  14
ATOM     11  C   UNL     1      -2.827  -4.123   0.007  0.00  0.00    +0.130 C 
ATOM     12  N   UNL     1      -4.210  -4.688  -0.086  0.00  0.00    -0.241 NA
ATOM     13  N   UNL     1      -4.158  -6.053  -0.596  0.00  0.00    -0.227 NA
ATOM     14  C   UNL     1      -3.328  -6.151  -1.830  0.00  0.00    +0.216 C 
ATOM     15  S   UNL     1      -2.125  -4.779  -1.569  0.00  0.00    -0.102 S 
ATOM     16  H   UNL     1      -4.676  -4.654   0.808  0.00  0.00    +0.142 HD
ATOM     17  H   UNL     1      -3.829  -6.691   0.113  0.00  0.00    +0.143 HD
BRANCH  11  18
ATOM     18  C   UNL     1      -2.848  -2.593   0.015  0.00  0.00    +0.031 C 
BRANCH  18  19
ATOM     19  C   UNL     1      -1.413  -2.063   0.004  0.00  0.00    +0.002 C 
BRANCH  19  20
ATOM     20  C   UNL     1      -1.433  -0.534   0.013  0.00  0.00    -0.000 C 
BRANCH  20  22
ATOM     21  C   UNL     1      -0.019   1.526   0.010  0.00  0.00    +0.004 C 
ATOM     22  C   UNL     1       0.002  -0.004   0.002  0.00  0.00    -0.003 C 
ENDBRANCH  20  22
ENDBRANCH  19  20
ENDBRANCH  18  19
ENDBRANCH  11  18
ENDBRANCH   7  14
ENDBRANCH   1   8
BRANCH   5  23
ATOM     23  C   UNL     1      -3.135 -13.224  -4.063  0.00  0.00    +0.112 C 
BRANCH  23  24
ATOM     24  C   UNL     1      -2.625 -14.220  -3.019  0.00  0.00    +0.052 C 
BRANCH  24  25
ATOM     25  C   UNL     1      -3.016 -15.617  -3.425  0.00  0.00    -0.040 C 
ATOM     26  C   UNL     1      -2.261 -16.507  -4.108  0.00  0.00    -0.001 A 
ATOM     27  C   UNL     1      -0.901 -16.442  -4.658  0.00  0.00    +0.013 A 
ATOM     28  C   UNL     1      -0.405 -17.519  -5.308  0.00  0.00    -0.050 A 
ATOM     29  C   UNL     1      -1.154 -18.692  -5.471  0.00  0.00    +0.005 A 
ATOM     30  C   UNL     1      -2.409 -18.828  -4.994  0.00  0.00    +0.026 A 
ATOM     31  C   UNL     1      -3.031 -17.758  -4.293  0.00  0.00    +0.043 A 
ATOM     32  N   UNL     1      -4.217 -17.646  -3.745  0.00  0.00    -0.380 N 
ATOM     33  C   UNL     1      -4.331 -16.311  -3.145  0.00  0.00    +0.144 C 
ATOM     34  C   UNL     1       0.991 -17.456  -5.874  0.00  0.00    +0.044 C 
ATOM     35  H   UNL     1      -4.903 -18.331  -3.735  0.00  0.00    +0.160 HD
ENDBRANCH  24  25
ENDBRANCH  23  24
ENDBRANCH   5  23
TORSDOF 9
