REMARK  Name = ZINC19840068
REMARK  8 active torsions:
REMARK  status: ('A' for Active; 'I' for Inactive)
REMARK    1  A    between atoms: C_6  and  C_7
REMARK    2  A    between atoms: C_7  and  N_8
REMARK    3  A    between atoms: N_11  and  C_18
REMARK    4  A    between atoms: C_13  and  C_15
REMARK    5  A    between atoms: C_15  and  C_16
REMARK    6  A    between atoms: C_16  and  O_17
REMARK    7  A    between atoms: C_18  and  C_19
REMARK    8  A    between atoms: C_24  and  O_25
REMARK                            x       y       z     vdW  Elec       q    Type
REMARK                         _______ _______ _______ _____ _____    ______ ____
ROOT
ATOM      1  N   UNL     1      -2.126   0.989  -1.096  0.00  0.00    -0.299 NA
ATOM      2  C   UNL     1      -2.854   1.490   0.078  0.00  0.00    +0.066 C 
ATOM      3  C   UNL     1      -2.102   1.090   1.350  0.00  0.00    -0.063 C 
ATOM      4  N   UNL     1      -0.740   1.641   1.305  0.00  0.00    +0.384 N 
ATOM      5  C   UNL     1      -0.012   1.140   0.130  0.00  0.00    -0.059 C 
ATOM      6  C   UNL     1      -0.764   1.540  -1.141  0.00  0.00    +0.043 C 
ATOM      7  H   UNL     1      -0.818   2.734   1.216  0.00  0.00    -0.081 HD
ENDROOT
BRANCH   1   8
ATOM      8  C   UNL     1      -2.856   1.288  -2.335  0.00  0.00    +0.119 C 
BRANCH   8  14
ATOM      9  C   UNL     1      -4.301  -0.693  -2.836  0.00  0.00    +0.008 A 
ATOM     10  C   UNL     1      -5.520  -1.345  -2.815  0.00  0.00    +0.041 A 
ATOM     11  C   UNL     1      -6.631  -0.715  -2.282  0.00  0.00    +0.158 A 
ATOM     12  C   UNL     1      -6.519   0.567  -1.765  0.00  0.00    +0.159 A 
ATOM     13  C   UNL     1      -5.296   1.214  -1.783  0.00  0.00    +0.046 A 
ATOM     14  C   UNL     1      -4.188   0.582  -2.316  0.00  0.00    -0.030 A 
ATOM     15  F   UNL     1      -7.603   1.183  -1.245  0.00  0.00    -0.202 F 
ATOM     16  F   UNL     1      -7.824  -1.349  -2.267  0.00  0.00    -0.202 F 
ENDBRANCH   8  14
ENDBRANCH   1   8
BRANCH   6  17
ATOM     17  C   UNL     1      -0.030   0.985  -2.364  0.00  0.00    +0.045 C 
BRANCH  17  18
ATOM     18  C   UNL     1       1.361   1.615  -2.453  0.00  0.00    +0.157 C 
BRANCH  18  19
ATOM     19  O   UNL     1       1.998   1.196  -3.661  0.00  0.00    -0.395 OA
ATOM     20  H   UNL     1       3.012   1.549  -3.900  0.00  0.00    +0.209 HD
ENDBRANCH  18  19
ENDBRANCH  17  18
ENDBRANCH   6  17
BRANCH   4  21
ATOM     21  C   UNL     1      -0.009   1.342   2.543  0.00  0.00    -0.039 C 
BRANCH  21  22
ATOM     22  C   UNL     1      -0.650   2.075   3.694  0.00  0.00    -0.021 A 
ATOM     23  C   UNL     1      -0.096   3.253   4.157  0.00  0.00    +0.025 A 
ATOM     24  C   UNL     1      -0.684   3.926   5.213  0.00  0.00    +0.041 A 
ATOM     25  C   UNL     1      -1.827   3.421   5.808  0.00  0.00    +0.023 A 
ATOM     26  C   UNL     1      -2.383   2.244   5.347  0.00  0.00    +0.047 A 
ATOM     27  C   UNL     1      -1.798   1.570   4.285  0.00  0.00    +0.118 A 
ATOM     28 CL   UNL     1       0.013   5.407   5.793  0.00  0.00    -0.084 Cl
BRANCH  27  29
ATOM     29  O   UNL     1      -2.348   0.414   3.827  0.00  0.00    -0.507 OA
ATOM     30  H   UNL     1      -3.259   0.014   4.296  0.00  0.00    +0.292 HD
ENDBRANCH  27  29
ENDBRANCH  21  22
ENDBRANCH   4  21
TORSDOF 8
