REMARK  Name = ZINC12901563
REMARK  10 active torsions:
REMARK  status: ('A' for Active; 'I' for Inactive)
REMARK    1  A    between atoms: C_1  and  C_2
REMARK    2  A    between atoms: C_2  and  C_3
REMARK    3  A    between atoms: C_14  and  C_16
REMARK    4  A    between atoms: C_16  and  C_18
REMARK    5  A    between atoms: C_16  and  O_19
REMARK    6  A    between atoms: N_22  and  C_25
REMARK    7  A    between atoms: C_25  and  C_26
REMARK    8  A    between atoms: C_26  and  C_27
REMARK    9  A    between atoms: C_27  and  O_28
REMARK   10  A    between atoms: O_28  and  C_29
REMARK                            x       y       z     vdW  Elec       q    Type
REMARK                         _______ _______ _______ _____ _____    ______ ____
ROOT
ATOM      1  C   UNL     1      -0.969   6.054  -3.003  0.00  0.00    -0.047 A 
ATOM      2  C   UNL     1      -0.600   5.962  -4.333  0.00  0.00    +0.005 A 
ATOM      3  C   UNL     1       0.069   4.848  -4.794  0.00  0.00    +0.024 A 
ATOM      4  C   UNL     1       0.380   3.806  -3.923  0.00  0.00    +0.036 A 
ATOM      5  C   UNL     1       0.005   3.911  -2.587  0.00  0.00    -0.027 A 
ATOM      6  C   UNL     1      -0.664   5.025  -2.131  0.00  0.00    +0.008 A 
ATOM      7  C   UNL     1       0.481   2.647  -1.927  0.00  0.00    +0.050 C 
ATOM      8  C   UNL     1      -0.678   1.870  -1.293  0.00  0.00    +0.088 C 
ATOM      9  C   UNL     1      -0.071   1.243  -0.007  0.00  0.00    +0.075 C 
ATOM     10  C   UNL     1       1.404   1.698  -0.002  0.00  0.00    -0.028 C 
ATOM     11  C   UNL     1      -0.810   1.931   1.118  0.00  0.00    +0.224 C 
ATOM     12  O   UNL     1      -0.623   1.737   2.300  0.00  0.00    -0.275 OA
ATOM     13  N   UNL     1      -1.712   2.785   0.583  0.00  0.00    -0.242 N 
ATOM     14  C   UNL     1      -1.717   2.829  -0.755  0.00  0.00    +0.225 C 
ATOM     15  O   UNL     1      -2.441   3.528  -1.430  0.00  0.00    -0.275 OA
ATOM     16  C   UNL     1       1.138   1.856  -3.025  0.00  0.00    +0.211 C 
ATOM     17  O   UNL     1       1.657   0.765  -2.921  0.00  0.00    -0.277 OA
ATOM     18  N   UNL     1       1.039   2.595  -4.147  0.00  0.00    -0.286 N 
ATOM     19  H   UNL     1       1.385   2.319  -5.010  0.00  0.00    +0.155 HD
ATOM     20  N   UNL     1       1.406   2.902  -0.836  0.00  0.00    +0.396 N 
ATOM     21  H   UNL     1       1.095   3.713  -0.289  0.00  0.00    -0.083 HD
ATOM     22  H   UNL     1       2.348   3.078  -1.203  0.00  0.00    -0.083 HD
ENDROOT
BRANCH   1  24
ATOM     23  C   UNL     1      -0.689   8.318  -2.031  0.00  0.00    +0.009 C 
ATOM     24  C   UNL     1      -1.701   7.274  -2.505  0.00  0.00    +0.032 C 
ENDBRANCH   1  24
BRANCH  10  25
ATOM     25  C   UNL     1       1.861   2.004   1.425  0.00  0.00    +0.098 C 
ATOM     26  C   UNL     1       1.883   0.711   2.242  0.00  0.00    +0.036 C 
BRANCH  25  27
ATOM     27  O   UNL     1       3.174   2.570   1.394  0.00  0.00    -0.394 OA
ATOM     28  H   UNL     1       3.528   2.789   2.266  0.00  0.00    +0.210 HD
ENDBRANCH  25  27
ENDBRANCH  10  25
BRANCH  13  29
ATOM     29  C   UNL     1      -2.606   3.604   1.405  0.00  0.00    +0.118 C 
BRANCH  29  30
ATOM     30  C   UNL     1      -3.907   2.841   1.661  0.00  0.00    +0.047 C 
BRANCH  30  31
ATOM     31  C   UNL     1      -4.840   3.697   2.520  0.00  0.00    +0.161 C 
BRANCH  31  32
ATOM     32  O   UNL     1      -6.055   2.984   2.759  0.00  0.00    -0.383 OA
ATOM     33  C   UNL     1      -7.001   3.699   3.556  0.00  0.00    +0.193 C 
ENDBRANCH  31  32
ENDBRANCH  30  31
ENDBRANCH  29  30
ENDBRANCH  13  29
TORSDOF 7
