REMARK  Name = ZINC52472225
REMARK  13 active torsions:
REMARK  status: ('A' for Active; 'I' for Inactive)
REMARK    1  A    between atoms: C_1  and  C_2
REMARK    2  A    between atoms: C_2  and  N_3
REMARK    3  A    between atoms: N_3  and  C_4
REMARK    4  A    between atoms: N_3  and  C_6
REMARK    5  A    between atoms: C_4  and  C_5
REMARK    6  A    between atoms: C_6  and  C_7
REMARK    7  A    between atoms: C_7  and  O_8
REMARK    8  A    between atoms: O_8  and  C_9
REMARK    9  A    between atoms: C_12  and  N_15
REMARK   10  A    between atoms: C_16  and  C_18
REMARK   11  A    between atoms: C_20  and  S_25
REMARK   12  A    between atoms: C_23  and  C_24
REMARK   13  A    between atoms: S_25  and  N_28
REMARK                            x       y       z     vdW  Elec       q    Type
REMARK                         _______ _______ _______ _____ _____    ______ ____
ROOT
ATOM      1  N   UNL     1       0.274  -2.080   8.623  0.00  0.00    -0.281 N 
ATOM      2  C   UNL     1      -0.521  -2.076   9.711  0.00  0.00    +0.249 C 
ATOM      3  O   UNL     1      -1.705  -2.328   9.601  0.00  0.00    -0.270 OA
ATOM      4  H   UNL     1       1.228  -1.937   8.718  0.00  0.00    +0.155 HD
ENDROOT
BRANCH   2   5
ATOM      5  C   UNL     1       0.048  -1.767  11.040  0.00  0.00    +0.042 A 
ATOM      6  C   UNL     1       1.426  -1.606  11.193  0.00  0.00    +0.041 A 
ATOM      7  C   UNL     1       1.950  -1.317  12.435  0.00  0.00    +0.106 A 
ATOM      8  C   UNL     1       1.113  -1.186  13.529  0.00  0.00    +0.029 A 
ATOM      9  C   UNL     1      -0.254  -1.344  13.385  0.00  0.00    +0.006 A 
ATOM     10  C   UNL     1      -0.791  -1.627  12.146  0.00  0.00    -0.038 A 
ATOM     11  C   UNL     1      -2.281  -1.793  11.990  0.00  0.00    +0.044 C 
BRANCH   7  12
ATOM     12  S   UNL     1       3.690  -1.115  12.630  0.00  0.00    +0.056 S 
ATOM     13  O   UNL     1       3.980  -1.388  13.994  0.00  0.00    -0.153 OA
ATOM     14  O   UNL     1       4.303  -1.826  11.564  0.00  0.00    -0.153 OA
BRANCH  12  15
ATOM     15  N   UNL     1       4.027   0.488  12.386  0.00  0.00    -0.204 NA
ATOM     16  H   UNL     1       3.310   1.108  12.180  0.00  0.00    +0.144 HD
ATOM     17  H   UNL     1       4.941   0.807  12.451  0.00  0.00    +0.144 HD
ENDBRANCH  12  15
ENDBRANCH   7  12
ENDBRANCH   2   5
BRANCH   1  21
ATOM     18  C   UNL     1      -1.373  -2.709   4.844  0.00  0.00    +0.121 A 
ATOM     19  C   UNL     1      -0.081  -3.135   5.117  0.00  0.00    +0.047 A 
ATOM     20  C   UNL     1       0.465  -2.927   6.368  0.00  0.00    +0.027 A 
ATOM     21  C   UNL     1      -0.279  -2.291   7.353  0.00  0.00    +0.034 A 
ATOM     22  C   UNL     1      -1.572  -1.865   7.079  0.00  0.00    +0.027 A 
ATOM     23  C   UNL     1      -2.115  -2.070   5.826  0.00  0.00    +0.047 A 
BRANCH  18  24
ATOM     24  O   UNL     1      -1.909  -2.915   3.612  0.00  0.00    -0.494 OA
BRANCH  24  25
ATOM     25  C   UNL     1      -1.089  -3.580   2.649  0.00  0.00    +0.210 C 
BRANCH  25  26
ATOM     26  C   UNL     1      -1.858  -3.720   1.334  0.00  0.00    -0.037 C 
BRANCH  26  27
ATOM     27  N   UNL     1      -2.113  -2.387   0.772  0.00  0.00    +0.382 N 
ATOM     28  H   UNL     1      -2.588  -1.819   1.457  0.00  0.00    -0.082 HD
BRANCH  27  30
ATOM     29  C   UNL     1      -1.098  -0.339  -0.107  0.00  0.00    -0.017 C 
ATOM     30  C   UNL     1      -0.837  -1.755   0.411  0.00  0.00    -0.082 C 
ENDBRANCH  27  30
BRANCH  27  31
ATOM     31  C   UNL     1      -2.953  -2.514  -0.427  0.00  0.00    -0.082 C 
ATOM     32  C   UNL     1      -4.312  -3.100  -0.038  0.00  0.00    -0.017 C 
ENDBRANCH  27  31
ENDBRANCH  26  27
ENDBRANCH  25  26
ENDBRANCH  24  25
ENDBRANCH  18  24
ENDBRANCH   1  21
TORSDOF 10
