REMARK  Name = ZINC27241655
REMARK  9 active torsions:
REMARK  status: ('A' for Active; 'I' for Inactive)
REMARK    1  A    between atoms: C_1  and  O_2
REMARK    2  A    between atoms: O_2  and  C_3
REMARK    3  A    between atoms: C_8  and  C_9
REMARK    4  A    between atoms: C_9  and  C_10
REMARK    5  A    between atoms: C_9  and  C_17
REMARK    6  A    between atoms: C_9  and  O_32
REMARK    7  A    between atoms: C_17  and  C_19
REMARK    8  A    between atoms: C_17  and  C_26
REMARK    9  A    between atoms: C_19  and  N_20
REMARK                            x       y       z     vdW  Elec       q    Type
REMARK                         _______ _______ _______ _____ _____    ______ ____
ROOT
ATOM      1  C   UNL     1      -1.910   2.333   3.422  0.00  0.00    +0.124 C 
ENDROOT
BRANCH   1   2
ATOM      2  C   UNL     1      -2.723   2.969   4.520  0.00  0.00    -0.011 A 
ATOM      3  C   UNL     1      -2.936   2.290   5.705  0.00  0.00    +0.008 A 
ATOM      4  C   UNL     1      -3.678   2.876   6.713  0.00  0.00    +0.015 A 
ATOM      5  C   UNL     1      -4.215   4.137   6.533  0.00  0.00    +0.018 A 
ATOM      6  C   UNL     1      -4.006   4.814   5.345  0.00  0.00    +0.015 A 
ATOM      7  C   UNL     1      -3.260   4.230   4.339  0.00  0.00    +0.008 A 
ATOM      8 BR   UNL     1      -5.236   4.936   7.910  0.00  0.00    -0.050 Br
ENDBRANCH   1   2
BRANCH   1  14
ATOM      9  C   UNL     1      -3.560   0.508   2.937  0.00  0.00    +0.126 A 
ATOM     10  C   UNL     1      -4.408  -0.167   2.070  0.00  0.00    +0.046 A 
ATOM     11  C   UNL     1      -4.516   0.242   0.754  0.00  0.00    +0.004 A 
ATOM     12  C   UNL     1      -3.780   1.322   0.302  0.00  0.00    +0.001 A 
ATOM     13  C   UNL     1      -2.935   1.996   1.164  0.00  0.00    +0.010 A 
ATOM     14  C   UNL     1      -2.827   1.594   2.482  0.00  0.00    +0.030 A 
BRANCH   9  16
ATOM     15  C   UNL     1      -4.155  -1.079   4.604  0.00  0.00    +0.277 C 
ATOM     16  O   UNL     1      -3.452   0.108   4.231  0.00  0.00    -0.495 OA
ENDBRANCH   9  16
ENDBRANCH   1  14
BRANCH   1  17
ATOM     17  O   UNL     1      -1.205   3.346   2.702  0.00  0.00    -0.379 OA
ATOM     18  H   UNL     1      -0.485   3.992   3.225  0.00  0.00    +0.211 HD
ENDBRANCH   1  17
BRANCH   1  19
ATOM     19  C   UNL     1      -0.908   1.351   4.033  0.00  0.00    +0.043 C 
BRANCH  19  20
ATOM     20  C   UNL     1      -0.184   0.621   2.932  0.00  0.00    -0.043 A 
ATOM     21  C   UNL     1       0.665   1.311   2.087  0.00  0.00    +0.004 A 
ATOM     22  C   UNL     1       1.333   0.641   1.079  0.00  0.00    +0.000 A 
ATOM     23  C   UNL     1       1.144  -0.718   0.910  0.00  0.00    +0.000 A 
ATOM     24  C   UNL     1       0.291  -1.407   1.752  0.00  0.00    +0.000 A 
ATOM     25  C   UNL     1      -0.373  -0.738   2.762  0.00  0.00    +0.004 A 
ENDBRANCH  19  20
BRANCH  19  26
ATOM     26  C   UNL     1       0.103   2.119   4.887  0.00  0.00    -0.067 C 
BRANCH  26  27
ATOM     27  N   UNL     1       0.990   1.168   5.569  0.00  0.00    +0.380 N 
ATOM     28  C   UNL     1       0.246   0.359   6.543  0.00  0.00    -0.079 C 
ATOM     29  C   UNL     1       1.168  -0.715   7.127  0.00  0.00    -0.019 C 
ATOM     30  C   UNL     1       2.364  -0.040   7.803  0.00  0.00    -0.004 C 
ATOM     31  C   UNL     1       3.094   0.834   6.779  0.00  0.00    -0.019 C 
ATOM     32  C   UNL     1       2.116   1.863   6.206  0.00  0.00    -0.079 C 
ATOM     33  H   UNL     1       1.403   0.485   4.811  0.00  0.00    -0.082 HD
ENDBRANCH  26  27
ENDBRANCH  19  26
ENDBRANCH   1  19
TORSDOF 8
