REMARK  Name = ZINC33058398
REMARK  12 active torsions:
REMARK  status: ('A' for Active; 'I' for Inactive)
REMARK    1  A    between atoms: C_1  and  C_2
REMARK    2  A    between atoms: C_5  and  S_8
REMARK    3  A    between atoms: S_8  and  C_11
REMARK    4  A    between atoms: C_12  and  N_35
REMARK    5  A    between atoms: C_13  and  C_25
REMARK    6  A    between atoms: C_15  and  N_16
REMARK    7  A    between atoms: N_16  and  C_17
REMARK    8  A    between atoms: C_20  and  C_24
REMARK    9  A    between atoms: C_22  and  C_23
REMARK   10  A    between atoms: C_25  and  C_27
REMARK   11  A    between atoms: C_30  and  O_33
REMARK   12  A    between atoms: O_33  and  C_34
REMARK                            x       y       z     vdW  Elec       q    Type
REMARK                         _______ _______ _______ _____ _____    ______ ____
ROOT
ATOM      1  C   UNL     1       2.701  -4.228  -0.343  0.00  0.00    +0.143 A 
ATOM      2  C   UNL     1       4.049  -4.469  -0.422  0.00  0.00    +0.070 A 
ATOM      3  C   UNL     1       4.928  -3.450  -0.038  0.00  0.00    +0.084 A 
ATOM      4  S   UNL     1       3.804  -2.144   0.429  0.00  0.00    -0.066 S 
ATOM      5  C   UNL     1       2.269  -2.996   0.110  0.00  0.00    +0.098 A 
ENDROOT
BRANCH   1   6
ATOM      6  S   UNL     1       1.539  -5.467  -0.811  0.00  0.00    +0.029 S 
ATOM      7  O   UNL     1       2.169  -6.721  -0.583  0.00  0.00    -0.164 OA
ATOM      8  O   UNL     1       0.303  -5.115  -0.205  0.00  0.00    -0.164 OA
BRANCH   6  13
ATOM      9  C   UNL     1       0.735  -5.001  -6.772  0.00  0.00    +0.044 C 
ATOM     10  C   UNL     1       0.936  -5.118  -5.284  0.00  0.00    -0.050 A 
ATOM     11  C   UNL     1       1.925  -5.943  -4.782  0.00  0.00    +0.005 A 
ATOM     12  C   UNL     1       2.109  -6.050  -3.416  0.00  0.00    +0.027 A 
ATOM     13  C   UNL     1       1.304  -5.331  -2.552  0.00  0.00    +0.094 A 
ATOM     14  C   UNL     1       0.311  -4.510  -3.053  0.00  0.00    +0.027 A 
ATOM     15  C   UNL     1       0.130  -4.400  -4.419  0.00  0.00    +0.005 A 
ENDBRANCH   6  13
ENDBRANCH   1   6
BRANCH   2  16
ATOM     16  N   UNL     1       4.530  -5.694  -0.873  0.00  0.00    -0.355 N 
ATOM     17  H   UNL     1       5.614  -5.872  -0.930  0.00  0.00    +0.142 HD
ATOM     18  H   UNL     1       3.826  -6.485  -1.172  0.00  0.00    +0.142 HD
ENDBRANCH   2  16
BRANCH   5  19
ATOM     19  N   UNL     1       0.973  -2.537   0.270  0.00  0.00    -0.307 N 
ATOM     20  H   UNL     1       0.125  -3.223   0.125  0.00  0.00    +0.153 HD
BRANCH  19  21
ATOM     21  C   UNL     1       0.742  -1.203   0.615  0.00  0.00    +0.035 A 
ATOM     22  C   UNL     1       1.678  -0.228   0.291  0.00  0.00    +0.024 A 
ATOM     23  C   UNL     1       1.446   1.089   0.634  0.00  0.00    +0.005 A 
ATOM     24  C   UNL     1       0.284   1.439   1.298  0.00  0.00    -0.050 A 
ATOM     25  C   UNL     1      -0.649   0.471   1.621  0.00  0.00    +0.008 A 
ATOM     26  C   UNL     1      -0.423  -0.849   1.282  0.00  0.00    -0.029 A 
ATOM     27  C   UNL     1      -1.441  -1.903   1.635  0.00  0.00    +0.045 C 
ATOM     28  C   UNL     1       0.035   2.877   1.670  0.00  0.00    +0.044 C 
ENDBRANCH  19  21
ENDBRANCH   5  19
BRANCH   3  29
ATOM     29  C   UNL     1       6.335  -3.451  -0.028  0.00  0.00    +0.202 C 
ATOM     30  O   UNL     1       6.945  -4.477  -0.279  0.00  0.00    -0.286 OA
BRANCH  29  31
ATOM     31  C   UNL     1       7.073  -2.209   0.285  0.00  0.00    +0.023 A 
ATOM     32  C   UNL     1       6.526  -0.967  -0.044  0.00  0.00    +0.015 A 
ATOM     33  C   UNL     1       7.214   0.188   0.254  0.00  0.00    +0.046 A 
ATOM     34  C   UNL     1       8.457   0.118   0.871  0.00  0.00    +0.120 A 
ATOM     35  C   UNL     1       9.008  -1.116   1.195  0.00  0.00    +0.046 A 
ATOM     36  C   UNL     1       8.323  -2.275   0.905  0.00  0.00    +0.015 A 
BRANCH  34  37
ATOM     37  O   UNL     1       9.135   1.259   1.159  0.00  0.00    -0.495 OA
ATOM     38  C   UNL     1       8.511   2.493   0.799  0.00  0.00    +0.277 C 
ENDBRANCH  34  37
ENDBRANCH  29  31
ENDBRANCH   3  29
TORSDOF 8
