REMARK  Name = ZINC57663637
REMARK  9 active torsions:
REMARK  status: ('A' for Active; 'I' for Inactive)
REMARK    1  A    between atoms: C_1  and  C_2
REMARK    2  A    between atoms: C_7  and  C_9
REMARK    3  A    between atoms: C_7  and  C_10
REMARK    4  A    between atoms: N_11  and  C_13
REMARK    5  A    between atoms: C_13  and  C_14
REMARK    6  A    between atoms: C_14  and  C_15
REMARK    7  A    between atoms: C_15  and  C_17
REMARK    8  A    between atoms: C_15  and  O_25
REMARK    9  A    between atoms: C_21  and  N_23
REMARK                            x       y       z     vdW  Elec       q    Type
REMARK                         _______ _______ _______ _____ _____    ______ ____
ROOT
ATOM      1  C   UNL     1       1.368  -2.424  -3.427  0.00  0.00    +0.017 C 
ENDROOT
BRANCH   1   2
ATOM      2  C   UNL     1       0.577  -2.827  -2.181  0.00  0.00    -0.076 C 
BRANCH   2  12
ATOM      3  C   UNL     1      -0.019   1.532   0.011  0.00  0.00    +0.009 C 
ATOM      4  C   UNL     1       0.002  -0.004   0.002  0.00  0.00    -0.048 C 
ATOM      5  C   UNL     1      -1.426  -0.615   0.003  0.00  0.00    -0.011 C 
ATOM      6  C   UNL     1      -1.100  -2.018  -0.584  0.00  0.00    -0.068 C 
ATOM      7  C   UNL     1      -0.396  -2.818   0.494  0.00  0.00    -0.009 C 
ATOM      8  C   UNL     1       0.654  -2.101   1.313  0.00  0.00    -0.036 C 
ATOM      9  C   UNL     1       0.727  -0.591   1.214  0.00  0.00    +0.011 C 
ATOM     10  C   UNL     1       2.041  -2.692   0.990  0.00  0.00    +0.011 C 
ATOM     11  C   UNL     1       0.383  -2.444   2.801  0.00  0.00    +0.011 C 
ATOM     12  N   UNL     1      -0.211  -1.692  -1.717  0.00  0.00    +0.382 N 
ATOM     13  C   UNL     1       0.649  -0.577  -1.280  0.00  0.00    -0.072 C 
ATOM     14  H   UNL     1      -0.788  -1.358  -2.491  0.00  0.00    -0.081 HD
ENDBRANCH   2  12
ENDBRANCH   1   2
BRANCH   1  15
ATOM     15  C   UNL     1       2.195  -3.615  -3.914  0.00  0.00    +0.143 C 
BRANCH  15  16
ATOM     16  C   UNL     1       2.877  -3.256  -5.209  0.00  0.00    -0.017 A 
ATOM     17  C   UNL     1       4.093  -2.597  -5.190  0.00  0.00    +0.009 A 
ATOM     18  C   UNL     1       4.723  -2.266  -6.375  0.00  0.00    +0.040 A 
ATOM     19  C   UNL     1       4.139  -2.594  -7.585  0.00  0.00    +0.144 A 
ATOM     20  C   UNL     1       2.917  -3.258  -7.607  0.00  0.00    +0.061 A 
ATOM     21  C   UNL     1       2.291  -3.593  -6.414  0.00  0.00    +0.031 A 
ATOM     22  F   UNL     1       4.754  -2.270  -8.743  0.00  0.00    -0.204 F 
BRANCH  20  23
ATOM     23  N   UNL     1       2.322  -3.592  -8.828  0.00  0.00    -0.356 N 
ATOM     24  H   UNL     1       2.763  -3.361  -9.661  0.00  0.00    +0.142 HD
ATOM     25  H   UNL     1       1.470  -4.054  -8.842  0.00  0.00    +0.142 HD
ENDBRANCH  20  23
ENDBRANCH  15  16
BRANCH  15  26
ATOM     26  O   UNL     1       3.180  -3.945  -2.933  0.00  0.00    -0.387 OA
ATOM     27  H   UNL     1       3.799  -3.227  -2.740  0.00  0.00    +0.210 HD
ENDBRANCH  15  26
ENDBRANCH   1  15
TORSDOF 6
