REMARK  Name = ZINC36043401
REMARK  13 active torsions:
REMARK  status: ('A' for Active; 'I' for Inactive)
REMARK    1  A    between atoms: C_1  and  C_2
REMARK    2  A    between atoms: C_5  and  S_8
REMARK    3  A    between atoms: S_8  and  N_11
REMARK    4  A    between atoms: N_11  and  C_12
REMARK    5  A    between atoms: C_12  and  C_14
REMARK    6  A    between atoms: C_12  and  C_15
REMARK    7  A    between atoms: C_19  and  O_36
REMARK    8  A    between atoms: C_20  and  O_34
REMARK    9  A    between atoms: N_25  and  C_26
REMARK   10  A    between atoms: C_26  and  C_27
REMARK   11  A    between atoms: C_32  and  C_33
REMARK   12  A    between atoms: O_34  and  C_35
REMARK   13  A    between atoms: O_36  and  C_37
REMARK                            x       y       z     vdW  Elec       q    Type
REMARK                         _______ _______ _______ _____ _____    ______ ____
ROOT
ATOM      1  C   UNL     1       4.389  -6.500   1.100  0.00  0.00    -0.018 C 
ATOM      2  C   UNL     1       4.732  -6.242  -0.344  0.00  0.00    -0.053 A 
ATOM      3  C   UNL     1       4.254  -7.123  -1.304  0.00  0.00    +0.051 A 
ATOM      4  C   UNL     1       4.546  -6.926  -2.641  0.00  0.00    +0.162 A 
ATOM      5  C   UNL     1       5.325  -5.838  -3.025  0.00  0.00    +0.162 A 
ATOM      6  C   UNL     1       5.799  -4.962  -2.065  0.00  0.00    +0.053 A 
ATOM      7  C   UNL     1       5.501  -5.164  -0.725  0.00  0.00    -0.044 A 
ATOM      8  C   UNL     1       6.031  -4.180   0.287  0.00  0.00    +0.017 C 
ATOM      9  C   UNL     1       5.943  -4.781   1.690  0.00  0.00    -0.073 C 
ATOM     10  N   UNL     1       4.577  -5.285   1.898  0.00  0.00    +0.388 N 
ATOM     11  H   UNL     1       3.910  -4.585   1.609  0.00  0.00    -0.080 HD
ENDROOT
BRANCH   1  12
ATOM     12  C   UNL     1       2.930  -6.949   1.200  0.00  0.00    +0.064 C 
ATOM     13  C   UNL     1       2.841  -8.454   0.942  0.00  0.00    +0.024 C 
BRANCH  12  14
ATOM     14  N   UNL     1       2.418  -6.652   2.540  0.00  0.00    -0.188 NA
ATOM     15  H   UNL     1       2.681  -7.205   3.293  0.00  0.00    +0.148 HD
BRANCH  14  16
ATOM     16  S   UNL     1       1.392  -5.373   2.771  0.00  0.00    +0.059 S 
ATOM     17  O   UNL     1       1.984  -4.255   2.123  0.00  0.00    -0.153 OA
ATOM     18  O   UNL     1       1.057  -5.364   4.152  0.00  0.00    -0.153 OA
BRANCH  16  23
ATOM     19  C   UNL     1      -3.697  -6.605  -0.228  0.00  0.00    +0.044 C 
ATOM     20  C   UNL     1      -2.426  -6.297   0.521  0.00  0.00    -0.050 A 
ATOM     21  C   UNL     1      -2.288  -6.690   1.839  0.00  0.00    +0.005 A 
ATOM     22  C   UNL     1      -1.122  -6.408   2.526  0.00  0.00    +0.029 A 
ATOM     23  C   UNL     1      -0.094  -5.734   1.895  0.00  0.00    +0.105 A 
ATOM     24  C   UNL     1      -0.232  -5.342   0.576  0.00  0.00    +0.029 A 
ATOM     25  C   UNL     1      -1.396  -5.628  -0.112  0.00  0.00    +0.005 A 
ENDBRANCH  16  23
ENDBRANCH  14  16
ENDBRANCH  12  14
ENDBRANCH   1  12
BRANCH   5  26
ATOM     26  O   UNL     1       5.619  -5.637  -4.338  0.00  0.00    -0.491 OA
ATOM     27  C   UNL     1       6.423  -4.500  -4.656  0.00  0.00    +0.277 C 
ENDBRANCH   5  26
BRANCH   4  28
ATOM     28  O   UNL     1       4.075  -7.793  -3.578  0.00  0.00    -0.491 OA
ATOM     29  C   UNL     1       3.283  -8.886  -3.110  0.00  0.00    +0.277 C 
ENDBRANCH   4  28
BRANCH  10  30
ATOM     30  C   UNL     1       4.380  -5.596   3.320  0.00  0.00    -0.042 C 
BRANCH  30  31
ATOM     31  C   UNL     1       5.620  -5.224   4.092  0.00  0.00    -0.061 A 
ATOM     32  C   UNL     1       6.561  -6.191   4.394  0.00  0.00    +0.002 A 
ATOM     33  C   UNL     1       7.699  -5.850   5.102  0.00  0.00    +0.000 A 
ATOM     34  C   UNL     1       7.896  -4.543   5.507  0.00  0.00    +0.000 A 
ATOM     35  C   UNL     1       6.955  -3.577   5.204  0.00  0.00    +0.003 A 
ATOM     36  C   UNL     1       5.819  -3.917   4.492  0.00  0.00    -0.049 A 
ATOM     37  C   UNL     1       4.796  -2.862   4.157  0.00  0.00    +0.044 C 
ENDBRANCH  30  31
ENDBRANCH  10  30
TORSDOF 8
