REMARK  Name = ZINC36298801
REMARK  11 active torsions:
REMARK  status: ('A' for Active; 'I' for Inactive)
REMARK    1  A    between atoms: C_1  and  C_2
REMARK    2  A    between atoms: C_2  and  C_3
REMARK    3  A    between atoms: C_2  and  C_4
REMARK    4  A    between atoms: C_4  and  C_5
REMARK    5  A    between atoms: C_5  and  C_7
REMARK    6  A    between atoms: C_5  and  N_22
REMARK    7  A    between atoms: C_7  and  N_8
REMARK    8  A    between atoms: N_8  and  S_9
REMARK    9  A    between atoms: S_9  and  C_12
REMARK   10  A    between atoms: N_14  and  C_21
REMARK   11  A    between atoms: N_17  and  C_20
REMARK                            x       y       z     vdW  Elec       q    Type
REMARK                         _______ _______ _______ _____ _____    ______ ____
ROOT
ATOM      1  S   UNL     1      -4.151  -4.956   0.203  0.00  0.00    +0.065 S 
ATOM      2  O   UNL     1      -3.862  -6.292  -0.186  0.00  0.00    -0.153 OA
ATOM      3  O   UNL     1      -4.465  -4.604   1.543  0.00  0.00    -0.153 OA
ENDROOT
BRANCH   1   4
ATOM      4  C   UNL     1      -5.508  -4.426  -0.788  0.00  0.00    +0.186 A 
ATOM      5  C   UNL     1      -6.482  -3.656  -0.259  0.00  0.00    +0.124 A 
ATOM      6  N   UNL     1      -7.529  -3.253  -1.042  0.00  0.00    -0.301 N 
ATOM      7  C   UNL     1      -7.597  -3.618  -2.336  0.00  0.00    +0.332 A 
ATOM      8  O   UNL     1      -8.536  -3.249  -3.014  0.00  0.00    -0.246 OA
ATOM      9  N   UNL     1      -6.639  -4.385  -2.889  0.00  0.00    -0.262 N 
ATOM     10  C   UNL     1      -5.588  -4.797  -2.152  0.00  0.00    +0.283 A 
ATOM     11  O   UNL     1      -4.719  -5.487  -2.654  0.00  0.00    -0.265 OA
ATOM     12  C   UNL     1      -6.737  -4.768  -4.300  0.00  0.00    +0.157 C 
ATOM     13  C   UNL     1      -8.586  -2.417  -0.468  0.00  0.00    +0.153 C 
ENDBRANCH   1   4
BRANCH   1  14
ATOM     14  N   UNL     1      -2.841  -4.042  -0.232  0.00  0.00    -0.191 NA
ATOM     15  H   UNL     1      -2.073  -4.463  -0.650  0.00  0.00    +0.148 HD
BRANCH  14  16
ATOM     16  C   UNL     1      -2.841  -2.598   0.015  0.00  0.00    +0.090 C 
BRANCH  16  17
ATOM     17  C   UNL     1      -1.416  -2.058  -0.121  0.00  0.00    -0.059 C 
BRANCH  17  18
ATOM     18  N   UNL     1      -0.875  -2.427  -1.436  0.00  0.00    +0.381 N 
ATOM     19  H   UNL     1      -1.455  -2.033  -2.161  0.00  0.00    -0.090 HD
ATOM     20  H   UNL     1       0.065  -2.071  -1.526  0.00  0.00    -0.090 HD
ATOM     21  H   UNL     1      -0.863  -3.432  -1.524  0.00  0.00    -0.090 HD
ENDBRANCH  17  18
BRANCH  17  22
ATOM     22  C   UNL     1      -1.433  -0.534   0.013  0.00  0.00    -0.012 C 
BRANCH  22  24
ATOM     23  C   UNL     1      -0.019   1.526   0.010  0.00  0.00    +0.007 C 
ATOM     24  C   UNL     1       0.002  -0.004   0.002  0.00  0.00    -0.019 C 
ATOM     25  C   UNL     1       0.742  -0.511   1.242  0.00  0.00    +0.007 C 
ENDBRANCH  22  24
ENDBRANCH  17  22
ENDBRANCH  16  17
ENDBRANCH  14  16
ENDBRANCH   1  14
TORSDOF 7
