REMARK  Name = ZINC22936894
REMARK  9 active torsions:
REMARK  status: ('A' for Active; 'I' for Inactive)
REMARK    1  A    between atoms: C_3  and  C_29
REMARK    2  A    between atoms: C_5  and  C_6
REMARK    3  A    between atoms: C_6  and  N_7
REMARK    4  A    between atoms: N_7  and  C_8
REMARK    5  A    between atoms: C_17  and  C_21
REMARK    6  A    between atoms: C_21  and  C_22
REMARK    7  A    between atoms: C_22  and  C_23
REMARK    8  A    between atoms: N_25  and  C_26
REMARK    9  A    between atoms: C_29  and  O_30
REMARK                            x       y       z     vdW  Elec       q    Type
REMARK                         _______ _______ _______ _____ _____    ______ ____
ROOT
ATOM      1  C   UNL     1      -2.774  -1.811  -1.527  0.00  0.00    +0.036 C 
ATOM      2  C   UNL     1      -4.119  -1.031  -1.472  0.00  0.00    +0.010 C 
ATOM      3  C   UNL     1      -5.014  -1.889  -2.377  0.00  0.00    +0.021 C 
ATOM      4  C   UNL     1      -6.193  -1.185  -2.966  0.00  0.00    +0.200 C 
ATOM      5  O   UNL     1      -6.774  -0.325  -2.337  0.00  0.00    -0.278 OA
ATOM      6  N   UNL     1      -6.600  -1.520  -4.206  0.00  0.00    -0.318 N 
ATOM      7  C   UNL     1      -5.896  -2.449  -5.081  0.00  0.00    +0.089 C 
ATOM      8  C   UNL     1      -4.762  -3.183  -4.351  0.00  0.00    -0.050 C 
ATOM      9  N   UNL     1      -4.087  -2.233  -3.490  0.00  0.00    +0.391 N 
ATOM     10  C   UNL     1      -2.844  -2.640  -2.836  0.00  0.00    -0.059 C 
ATOM     11  H   UNL     1      -7.417  -1.117  -4.538  0.00  0.00    +0.149 HD
ATOM     12  H   UNL     1      -3.901  -1.399  -4.027  0.00  0.00    -0.080 HD
ENDROOT
BRANCH   1  13
ATOM     13  N   UNL     1      -1.642  -0.875  -1.576  0.00  0.00    -0.308 NA
ATOM     14  H   UNL     1      -1.871  -0.059  -2.122  0.00  0.00    +0.123 HD
BRANCH  13  15
ATOM     15  C   UNL     1      -1.212  -0.499  -0.223  0.00  0.00    +0.156 C 
BRANCH  15  20
ATOM     16  C   UNL     1      -0.142   1.800  -0.372  0.00  0.00    +0.046 A 
ATOM     17  C   UNL     1       1.180   2.296  -0.446  0.00  0.00    +0.047 A 
ATOM     18  C   UNL     1       1.998   1.229  -0.427  0.00  0.00    +0.131 A 
ATOM     19  O   UNL     1       1.247   0.119  -0.347  0.00  0.00    -0.461 OA
ATOM     20  C   UNL     1      -0.052   0.459  -0.312  0.00  0.00    +0.119 A 
BRANCH  18  21
ATOM     21  C   UNL     1       3.503   1.272  -0.488  0.00  0.00    +0.230 C 
BRANCH  21  22
ATOM     22  O   UNL     1       4.032   1.348   0.838  0.00  0.00    -0.387 OA
ATOM     23  H   UNL     1       4.997   1.379   0.875  0.00  0.00    +0.210 HD
ENDBRANCH  21  22
ENDBRANCH  18  21
ENDBRANCH  15  20
ENDBRANCH  13  15
ENDBRANCH   1  13
BRANCH   8  24
ATOM     24  C   UNL     1      -3.772  -3.754  -5.369  0.00  0.00    -0.005 C 
BRANCH  24  25
ATOM     25  C   UNL     1      -4.464  -4.835  -6.202  0.00  0.00    +0.094 C 
BRANCH  25  26
ATOM     26  C   UNL     1      -3.458  -5.483  -7.118  0.00  0.00    +0.213 C 
ATOM     27  O   UNL     1      -2.302  -5.116  -7.107  0.00  0.00    -0.276 OA
ATOM     28  N   UNL     1      -3.844  -6.470  -7.951  0.00  0.00    -0.312 N 
ATOM     29  H   UNL     1      -4.768  -6.763  -7.961  0.00  0.00    +0.149 HD
BRANCH  28  30
ATOM     30  C   UNL     1      -2.866  -7.100  -8.842  0.00  0.00    +0.073 C 
ATOM     31  C   UNL     1      -3.292  -7.357 -10.289  0.00  0.00    +0.024 C 
ATOM     32  C   UNL     1      -3.155  -8.527  -9.313  0.00  0.00    +0.024 C 
ENDBRANCH  28  30
ENDBRANCH  25  26
ENDBRANCH  24  25
ENDBRANCH   8  24
TORSDOF 9
