REMARK  Name = ZINC55308184
REMARK  5 active torsions:
REMARK  status: ('A' for Active; 'I' for Inactive)
REMARK    1  A    between atoms: C_3  and  S_8
REMARK    2  A    between atoms: S_8  and  C_11
REMARK    3  A    between atoms: C_11  and  C_12
REMARK    4  A    between atoms: C_15  and  C_19
REMARK    5  A    between atoms: C_17  and  N_18
REMARK                            x       y       z     vdW  Elec       q    Type
REMARK                         _______ _______ _______ _____ _____    ______ ____
ROOT
ATOM      1  C   UNL     1       5.600   3.312   1.838  0.00  0.00    -0.005 A 
ATOM      2  C   UNL     1       6.804   2.635   1.872  0.00  0.00    +0.008 A 
ATOM      3  C   UNL     1       7.991   3.332   1.974  0.00  0.00    +0.013 A 
ATOM      4  C   UNL     1       7.978   4.726   2.043  0.00  0.00    +0.038 A 
ATOM      5  C   UNL     1       6.763   5.410   2.009  0.00  0.00    +0.036 A 
ATOM      6  C   UNL     1       5.576   4.700   1.901  0.00  0.00    +0.030 A 
ENDROOT
BRANCH   4   7
ATOM      7  C   UNL     1       9.248   5.475   2.153  0.00  0.00    +0.242 C 
ATOM      8  O   UNL     1       9.234   6.689   2.214  0.00  0.00    -0.270 OA
ATOM      9  N   UNL     1      10.421   4.812   2.186  0.00  0.00    -0.325 N 
ATOM     10  H   UNL     1      10.432   3.843   2.138  0.00  0.00    +0.145 HD
ATOM     11  H   UNL     1      11.254   5.304   2.258  0.00  0.00    +0.145 HD
ENDBRANCH   4   7
BRANCH   6  12
ATOM     12  N   UNL     1       4.357   5.381   1.861  0.00  0.00    -0.358 N 
ATOM     13  H   UNL     1       3.526   4.885   1.789  0.00  0.00    +0.142 HD
ATOM     14  H   UNL     1       4.340   6.350   1.905  0.00  0.00    +0.142 HD
ENDBRANCH   6  12
BRANCH   1  15
ATOM     15  C   UNL     1       4.309   2.543   1.726  0.00  0.00    +0.208 C 
BRANCH  15  16
ATOM     16  S   UNL     1       3.891   2.314  -0.024  0.00  0.00    +0.001 S 
ATOM     17  O   UNL     1       4.829   1.443  -0.641  0.00  0.00    -0.169 OA
ATOM     18  O   UNL     1       3.564   3.563  -0.617  0.00  0.00    -0.169 OA
BRANCH  16  21
ATOM     19  C   UNL     1      -0.017   1.378   0.010  0.00  0.00    +0.003 A 
ATOM     20  C   UNL     1       1.171   2.086   0.002  0.00  0.00    +0.027 A 
ATOM     21  C   UNL     1       2.378   1.411  -0.013  0.00  0.00    +0.090 A 
ATOM     22  C   UNL     1       2.397   0.029  -0.022  0.00  0.00    +0.042 A 
ATOM     23  C   UNL     1       1.210  -0.679  -0.014  0.00  0.00    +0.020 A 
ATOM     24  C   UNL     1       0.002  -0.004   0.002  0.00  0.00    +0.015 A 
ATOM     25 BR   UNL     1       1.236  -2.570  -0.025  0.00  0.00    -0.050 Br
ENDBRANCH  16  21
ENDBRANCH  15  16
ENDBRANCH   1  15
TORSDOF 5
