REMARK  Name = ZINC03206348
REMARK  6 active torsions:
REMARK  status: ('A' for Active; 'I' for Inactive)
REMARK    1  A    between atoms: C_1  and  C_2
REMARK    2  A    between atoms: C_2  and  C_4
REMARK    3  A    between atoms: C_2  and  N_16
REMARK    4  A    between atoms: C_4  and  C_6
REMARK    5  A    between atoms: C_4  and  N_11
REMARK    6  A    between atoms: N_19  and  C_20
REMARK                            x       y       z     vdW  Elec       q    Type
REMARK                         _______ _______ _______ _____ _____    ______ ____
ROOT
ATOM      1  C   UNL     1       0.736  -0.583   1.246  0.00  0.00    +0.026 C 
ATOM      2  C   UNL     1      -0.035  -0.010   0.054  0.00  0.00    +0.063 C 
ENDROOT
BRANCH   2   3
ATOM      3  N   UNL     1      -1.406  -0.525   0.066  0.00  0.00    -0.298 N 
ATOM      4  C   UNL     1      -2.350   0.089   0.807  0.00  0.00    +0.304 C 
ATOM      5  O   UNL     1      -2.063   1.071   1.465  0.00  0.00    -0.253 OA
ATOM      6  N   UNL     1      -3.612  -0.385   0.818  0.00  0.00    -0.269 N 
ATOM      7  H   UNL     1      -1.635  -1.308  -0.458  0.00  0.00    +0.150 HD
ATOM      8  H   UNL     1      -3.857  -1.125   0.241  0.00  0.00    +0.156 HD
BRANCH   6   9
ATOM      9  C   UNL     1      -4.568   0.192   1.662  0.00  0.00    +0.036 A 
ATOM     10  C   UNL     1      -5.541  -0.602   2.255  0.00  0.00    +0.023 A 
ATOM     11  C   UNL     1      -6.484  -0.031   3.087  0.00  0.00    +0.003 A 
ATOM     12  C   UNL     1      -6.460   1.330   3.331  0.00  0.00    +0.020 A 
ATOM     13  C   UNL     1      -5.492   2.124   2.741  0.00  0.00    +0.043 A 
ATOM     14  C   UNL     1      -4.542   1.557   1.912  0.00  0.00    +0.043 A 
ATOM     15 CL   UNL     1      -5.466   3.832   3.049  0.00  0.00    -0.083 Cl
ENDBRANCH   6   9
ENDBRANCH   2   3
BRANCH   2  16
ATOM     16  C   UNL     1       0.655  -0.426  -1.247  0.00  0.00    -0.010 C 
BRANCH  16  17
ATOM     17  N   UNL     1      -0.087   0.121  -2.391  0.00  0.00    +0.386 N 
ATOM     18  C   UNL     1       0.036   1.601  -2.419  0.00  0.00    -0.078 C 
ATOM     19  C   UNL     1      -0.274   1.954  -3.896  0.00  0.00    -0.020 C 
ATOM     20  C   UNL     1       0.389   0.794  -4.675  0.00  0.00    -0.020 C 
ATOM     21  C   UNL     1       0.506  -0.357  -3.659  0.00  0.00    -0.078 C 
ATOM     22  H   UNL     1      -1.058  -0.147  -2.337  0.00  0.00    -0.081 HD
ENDBRANCH  16  17
BRANCH  16  23
ATOM     23  C   UNL     1       0.684  -1.930  -1.341  0.00  0.00    -0.022 A 
ATOM     24  C   UNL     1       1.700  -2.783  -1.061  0.00  0.00    +0.009 A 
ATOM     25  C   UNL     1       1.499  -4.141  -1.221  0.00  0.00    +0.008 A 
ATOM     26  C   UNL     1       0.291  -4.580  -1.654  0.00  0.00    +0.045 A 
ATOM     27  S   UNL     1      -0.611  -3.051  -1.842  0.00  0.00    -0.103 S 
ENDBRANCH  16  23
ENDBRANCH   2  16
TORSDOF 5
