REMARK  Name = ZINC63804616
REMARK  10 active torsions:
REMARK  status: ('A' for Active; 'I' for Inactive)
REMARK    1  A    between atoms: C_1  and  C_2
REMARK    2  A    between atoms: C_5  and  S_9
REMARK    3  A    between atoms: C_7  and  C_8
REMARK    4  A    between atoms: S_9  and  N_12
REMARK    5  A    between atoms: N_12  and  C_13
REMARK    6  A    between atoms: C_13  and  C_14
REMARK    7  A    between atoms: C_14  and  C_15
REMARK    8  A    between atoms: C_18  and  O_26
REMARK    9  A    between atoms: C_23  and  C_25
REMARK   10  A    between atoms: O_26  and  C_27
REMARK                            x       y       z     vdW  Elec       q    Type
REMARK                         _______ _______ _______ _____ _____    ______ ____
ROOT
ATOM      1  C   UNL     1       4.672  -5.231   2.207  0.00  0.00    -0.037 C 
ATOM      2  C   UNL     1       4.416  -4.360   3.209  0.00  0.00    +0.003 A 
ATOM      3  C   UNL     1       3.283  -3.473   3.492  0.00  0.00    +0.056 A 
ATOM      4  C   UNL     1       3.306  -2.693   4.599  0.00  0.00    +0.129 A 
ATOM      5  C   UNL     1       4.385  -2.701   5.500  0.00  0.00    +0.048 A 
ATOM      6  C   UNL     1       5.473  -3.482   5.326  0.00  0.00    +0.029 A 
ATOM      7  C   UNL     1       5.553  -4.367   4.159  0.00  0.00    +0.043 A 
ATOM      8  N   UNL     1       6.474  -5.209   3.760  0.00  0.00    -0.378 N 
ATOM      9  C   UNL     1       6.023  -5.838   2.513  0.00  0.00    +0.103 C 
ATOM     10  C   UNL     1       5.893  -7.351   2.699  0.00  0.00    +0.035 C 
ATOM     11  H   UNL     1       7.311  -5.389   4.215  0.00  0.00    +0.160 HD
ENDROOT
BRANCH   1  12
ATOM     12  C   UNL     1       3.787  -5.540   1.028  0.00  0.00    +0.050 C 
BRANCH  12  13
ATOM     13  C   UNL     1       2.512  -4.699   1.113  0.00  0.00    +0.110 C 
BRANCH  13  14
ATOM     14  N   UNL     1       1.651  -4.999  -0.034  0.00  0.00    -0.190 NA
ATOM     15  H   UNL     1       2.011  -5.473  -0.800  0.00  0.00    +0.148 HD
BRANCH  14  16
ATOM     16  S   UNL     1       0.063  -4.530  -0.023  0.00  0.00    +0.058 S 
ATOM     17  O   UNL     1      -0.476  -4.950   1.223  0.00  0.00    -0.153 OA
ATOM     18  O   UNL     1      -0.490  -4.937  -1.267  0.00  0.00    -0.153 OA
BRANCH  16  23
ATOM     19  C   UNL     1      -0.018   1.503   0.010  0.00  0.00    +0.044 C 
ATOM     20  C   UNL     1       0.002  -0.004   0.002  0.00  0.00    -0.047 A 
ATOM     21  C   UNL     1       0.006  -0.689  -1.199  0.00  0.00    +0.005 A 
ATOM     22  C   UNL     1       0.025  -2.071  -1.207  0.00  0.00    +0.029 A 
ATOM     23  C   UNL     1       0.040  -2.768  -0.013  0.00  0.00    +0.106 A 
ATOM     24  C   UNL     1       0.037  -2.084   1.188  0.00  0.00    +0.032 A 
ATOM     25  C   UNL     1       0.023  -0.702   1.195  0.00  0.00    -0.046 A 
ATOM     26  C   UNL     1       0.025   0.045   2.504  0.00  0.00    +0.044 C 
ENDBRANCH  16  23
ENDBRANCH  14  16
ENDBRANCH  13  14
ENDBRANCH  12  13
ENDBRANCH   1  12
BRANCH   4  27
ATOM     27  O   UNL     1       2.249  -1.876   4.848  0.00  0.00    -0.420 OA
BRANCH  27  28
ATOM     28  C   UNL     1       2.315  -1.071   6.027  0.00  0.00    +0.489 C 
ATOM     29  F   UNL     1       2.423  -1.898   7.151  0.00  0.00    -0.149 F 
ATOM     30  F   UNL     1       3.432  -0.231   5.957  0.00  0.00    -0.149 F 
ATOM     31 CL   UNL     1       0.820  -0.072   6.158  0.00  0.00    +0.000 Cl
ENDBRANCH  27  28
ENDBRANCH   4  27
TORSDOF 7
