REMARK  Name = ZINC13458258
REMARK  10 active torsions:
REMARK  status: ('A' for Active; 'I' for Inactive)
REMARK    1  A    between atoms: C_1  and  N_2
REMARK    2  A    between atoms: C_8  and  C_30
REMARK    3  A    between atoms: C_12  and  S_13
REMARK    4  A    between atoms: S_13  and  C_14
REMARK    5  A    between atoms: C_14  and  C_15
REMARK    6  A    between atoms: C_17  and  C_20
REMARK    7  A    between atoms: C_20  and  O_21
REMARK    8  A    between atoms: O_21  and  C_22
REMARK    9  A    between atoms: C_25  and  O_28
REMARK   10  A    between atoms: O_28  and  C_29
REMARK                            x       y       z     vdW  Elec       q    Type
REMARK                         _______ _______ _______ _____ _____    ______ ____
ROOT
ATOM      1  S   UNL     1      -7.530   0.958   0.044  0.00  0.00    -0.078 S 
ENDROOT
BRANCH   1  13
ATOM      2  C   UNL     1      -7.439   3.902   0.061  0.00  0.00    +0.154 C 
ATOM      3  N   UNL     1      -6.123   3.257   0.050  0.00  0.00    -0.290 N 
ATOM      4  C   UNL     1      -5.003   4.016   0.049  0.00  0.00    +0.262 A 
ATOM      5  O   UNL     1      -5.066   5.232   0.056  0.00  0.00    -0.267 OA
ATOM      6  C   UNL     1      -3.708   3.319   0.038  0.00  0.00    +0.065 A 
ATOM      7  C   UNL     1      -2.500   4.017   0.035  0.00  0.00    +0.016 A 
ATOM      8  C   UNL     1      -1.319   3.333   0.032  0.00  0.00    +0.016 A 
ATOM      9  C   UNL     1      -1.306   1.933   0.019  0.00  0.00    +0.065 A 
ATOM     10  C   UNL     1      -2.496   1.217   0.021  0.00  0.00    +0.043 A 
ATOM     11  C   UNL     1      -3.712   1.906   0.030  0.00  0.00    +0.080 A 
ATOM     12  N   UNL     1      -4.896   1.250   0.033  0.00  0.00    -0.223 NA
ATOM     13  C   UNL     1      -6.037   1.894   0.042  0.00  0.00    +0.172 A 
BRANCH   9  14
ATOM     14  C   UNL     1      -0.014   1.210   0.009  0.00  0.00    +0.387 C 
ATOM     15  O   UNL     1       0.002  -0.004   0.002  0.00  0.00    -0.241 OA
ATOM     16  O   UNL     1       1.143   1.899   0.001  0.00  0.00    -0.241 OA
ENDBRANCH   9  14
ENDBRANCH   1  13
BRANCH   1  17
ATOM     17  C   UNL     1      -6.850  -0.719   0.032  0.00  0.00    +0.176 C 
BRANCH  17  18
ATOM     18  C   UNL     1      -7.978  -1.719   0.032  0.00  0.00    +0.238 A 
ATOM     19  N   UNL     1      -8.571  -2.227  -1.021  0.00  0.00    -0.192 NA
ATOM     20  C   UNL     1      -9.505  -3.066  -0.540  0.00  0.00    +0.209 A 
ATOM     21  N   UNL     1      -9.439  -3.020   0.757  0.00  0.00    -0.058 NA
ATOM     22  O   UNL     1      -8.568  -2.252   1.106  0.00  0.00    -0.337 OA
BRANCH  20  23
ATOM     23  C   UNL     1     -10.458  -3.902  -1.355  0.00  0.00    +0.308 C 
BRANCH  23  24
ATOM     24  O   UNL     1     -11.652  -3.157  -1.604  0.00  0.00    -0.484 OA
BRANCH  24  25
ATOM     25  C   UNL     1     -12.623  -3.771  -2.332  0.00  0.00    +0.121 A 
ATOM     26  C   UNL     1     -12.426  -5.061  -2.802  0.00  0.00    +0.049 A 
ATOM     27  C   UNL     1     -13.413  -5.686  -3.538  0.00  0.00    +0.049 A 
ATOM     28  C   UNL     1     -14.598  -5.021  -3.815  0.00  0.00    +0.120 A 
ATOM     29  C   UNL     1     -14.793  -3.729  -3.350  0.00  0.00    +0.049 A 
ATOM     30  C   UNL     1     -13.807  -3.105  -2.610  0.00  0.00    +0.049 A 
BRANCH  28  31
ATOM     31  O   UNL     1     -15.568  -5.635  -4.543  0.00  0.00    -0.495 OA
ATOM     32  C   UNL     1     -15.300  -6.965  -4.991  0.00  0.00    +0.277 C 
ENDBRANCH  28  31
ENDBRANCH  24  25
ENDBRANCH  23  24
ENDBRANCH  20  23
ENDBRANCH  17  18
ENDBRANCH   1  17
TORSDOF 8
