REMARK  Name = ZINC66939231
REMARK  9 active torsions:
REMARK  status: ('A' for Active; 'I' for Inactive)
REMARK    1  A    between atoms: C_1  and  C_2
REMARK    2  A    between atoms: C_2  and  C_3
REMARK    3  A    between atoms: C_2  and  C_4
REMARK    4  A    between atoms: C_4  and  C_6
REMARK    5  A    between atoms: C_4  and  N_20
REMARK    6  A    between atoms: C_6  and  N_7
REMARK    7  A    between atoms: N_7  and  C_8
REMARK    8  A    between atoms: C_8  and  C_10
REMARK    9  A    between atoms: C_8  and  C_17
REMARK                            x       y       z     vdW  Elec       q    Type
REMARK                         _______ _______ _______ _____ _____    ______ ____
ROOT
ATOM      1  C   UNL     1      -2.062   0.514  -0.993  0.00  0.00    +0.067 C 
ENDROOT
BRANCH   1   2
ATOM      2  N   UNL     1      -3.478   0.640  -0.623  0.00  0.00    -0.304 NA
ATOM      3  H   UNL     1      -3.795  -0.176  -0.122  0.00  0.00    +0.123 HD
BRANCH   2   4
ATOM      4  C   UNL     1      -4.311   0.888  -1.807  0.00  0.00    +0.171 C 
BRANCH   4   5
ATOM      5  C   UNL     1      -5.574   1.599  -1.393  0.00  0.00    -0.021 A 
ATOM      6  C   UNL     1      -6.217   1.240  -0.223  0.00  0.00    +0.008 A 
ATOM      7  C   UNL     1      -7.375   1.891   0.158  0.00  0.00    +0.038 A 
ATOM      8  C   UNL     1      -7.890   2.905  -0.632  0.00  0.00    +0.123 A 
ATOM      9  C   UNL     1      -7.245   3.265  -1.803  0.00  0.00    +0.038 A 
ATOM     10  C   UNL     1      -6.084   2.615  -2.179  0.00  0.00    +0.008 A 
ATOM     11  F   UNL     1      -9.021   3.543  -0.260  0.00  0.00    -0.205 F 
ENDBRANCH   4   5
BRANCH   4  12
ATOM     12  C   UNL     1      -4.665  -0.425  -2.456  0.00  0.00    +0.232 C 
ATOM     13  O   UNL     1      -4.262  -1.465  -1.980  0.00  0.00    -0.274 OA
ATOM     14  N   UNL     1      -5.428  -0.444  -3.567  0.00  0.00    -0.328 N 
ATOM     15  H   UNL     1      -5.751   0.388  -3.948  0.00  0.00    +0.145 HD
ATOM     16  H   UNL     1      -5.656  -1.289  -3.984  0.00  0.00    +0.145 HD
ENDBRANCH   4  12
ENDBRANCH   2   4
ENDBRANCH   1   2
BRANCH   1  17
ATOM     17  C   UNL     1      -1.212   0.396   0.274  0.00  0.00    -0.051 C 
BRANCH  17  18
ATOM     18  N   UNL     1      -1.681  -0.744   1.073  0.00  0.00    +0.385 N 
ATOM     19  C   UNL     1      -0.841  -0.883   2.272  0.00  0.00    -0.073 C 
ATOM     20  C   UNL     1      -1.520  -1.861   3.233  0.00  0.00    +0.017 C 
ATOM     21  C   UNL     1      -1.883  -3.127   2.499  0.00  0.00    -0.048 A 
ATOM     22  C   UNL     1      -2.186  -4.260   3.239  0.00  0.00    +0.004 A 
ATOM     23  C   UNL     1      -2.525  -5.437   2.602  0.00  0.00    +0.000 A 
ATOM     24  C   UNL     1      -2.564  -5.485   1.221  0.00  0.00    +0.000 A 
ATOM     25  C   UNL     1      -2.261  -4.358   0.484  0.00  0.00    +0.002 A 
ATOM     26  C   UNL     1      -1.918  -3.175   1.122  0.00  0.00    -0.061 A 
ATOM     27  C   UNL     1      -1.587  -1.972   0.279  0.00  0.00    -0.042 C 
ATOM     28  H   UNL     1      -2.641  -0.592   1.347  0.00  0.00    -0.081 HD
ENDBRANCH  17  18
BRANCH  17  30
ATOM     29  C   UNL     1       0.588   1.031  -1.338  0.00  0.00    +0.005 C 
ATOM     30  C   UNL     1       0.252   0.179  -0.113  0.00  0.00    -0.030 C 
ATOM     31  C   UNL     1       1.154   0.587   1.054  0.00  0.00    +0.005 C 
ENDBRANCH  17  30
ENDBRANCH   1  17
TORSDOF 7
