REMARK  Name = ZINC13086556
REMARK  7 active torsions:
REMARK  status: ('A' for Active; 'I' for Inactive)
REMARK    1  A    between atoms: C_3  and  S_28
REMARK    2  A    between atoms: C_6  and  N_7
REMARK    3  A    between atoms: C_8  and  C_10
REMARK    4  A    between atoms: C_10  and  S_11
REMARK    5  A    between atoms: S_11  and  C_12
REMARK    6  A    between atoms: C_13  and  C_26
REMARK    7  A    between atoms: S_28  and  N_31
REMARK                            x       y       z     vdW  Elec       q    Type
REMARK                         _______ _______ _______ _____ _____    ______ ____
ROOT
ATOM      1  N   UNL     1       3.708  -6.567  -0.064  0.00  0.00    -0.285 N 
ATOM      2  C   UNL     1       2.418  -6.174  -0.050  0.00  0.00    +0.227 C 
ATOM      3  O   UNL     1       1.532  -7.002  -0.038  0.00  0.00    -0.275 OA
ATOM      4  H   UNL     1       4.415  -5.907  -0.141  0.00  0.00    +0.155 HD
ENDROOT
BRANCH   1  10
ATOM      5  C   UNL     1       5.169  -8.327   0.712  0.00  0.00    +0.025 A 
ATOM      6  C   UNL     1       5.477  -9.669   0.809  0.00  0.00    +0.030 A 
ATOM      7  C   UNL     1       4.656 -10.614   0.221  0.00  0.00    +0.106 A 
ATOM      8  C   UNL     1       3.520 -10.217  -0.462  0.00  0.00    +0.030 A 
ATOM      9  C   UNL     1       3.203  -8.877  -0.558  0.00  0.00    +0.025 A 
ATOM     10  C   UNL     1       4.026  -7.926   0.032  0.00  0.00    +0.034 A 
BRANCH   7  11
ATOM     11  S   UNL     1       5.056 -12.325   0.342  0.00  0.00    +0.061 S 
ATOM     12  O   UNL     1       5.873 -12.471   1.495  0.00  0.00    -0.153 OA
ATOM     13  O   UNL     1       3.840 -13.040   0.174  0.00  0.00    -0.153 OA
BRANCH  11  14
ATOM     14  N   UNL     1       6.008 -12.698  -0.962  0.00  0.00    -0.177 NA
ATOM     15  C   UNL     1       5.525 -13.171  -2.268  0.00  0.00    +0.109 C 
ATOM     16  C   UNL     1       6.764 -13.410  -3.155  0.00  0.00    +0.018 C 
ATOM     17  C   UNL     1       7.899 -13.609  -2.117  0.00  0.00    +0.018 C 
ATOM     18  C   UNL     1       7.479 -12.618  -1.003  0.00  0.00    +0.109 C 
ENDBRANCH  11  14
ENDBRANCH   7  11
ENDBRANCH   1  10
BRANCH   2  19
ATOM     19  C   UNL     1       2.078  -4.706  -0.048  0.00  0.00    +0.172 C 
BRANCH  19  20
ATOM     20  S   UNL     1       0.279  -4.504  -0.027  0.00  0.00    -0.095 S 
BRANCH  20  21
ATOM     21  C   UNL     1       0.169  -2.745  -0.028  0.00  0.00    +0.115 A 
ATOM     22  C   UNL     1      -1.105  -2.130  -0.014  0.00  0.00    +0.084 A 
ATOM     23  C   UNL     1      -1.192  -0.743  -0.014  0.00  0.00    +0.031 A 
ATOM     24  C   UNL     1       0.003  -0.004  -0.029  0.00  0.00    +0.005 A 
ATOM     25  C   UNL     1      -0.017   1.401  -0.030  0.00  0.00    +0.059 A 
ATOM     26  C   UNL     1       1.156   2.101  -0.046  0.00  0.00    +0.163 A 
ATOM     27  C   UNL     1       2.387   1.429  -0.058  0.00  0.00    +0.164 A 
ATOM     28  C   UNL     1       2.434   0.052  -0.058  0.00  0.00    +0.077 A 
ATOM     29  C   UNL     1       1.243  -0.691  -0.043  0.00  0.00    +0.076 A 
ATOM     30  N   UNL     1       1.273  -2.029  -0.042  0.00  0.00    -0.239 NA
ATOM     31  O   UNL     1       3.556   2.126  -0.068  0.00  0.00    -0.485 OA
ATOM     32  C   UNL     1       3.481   3.503  -0.449  0.00  0.00    +0.270 C 
ATOM     33  C   UNL     1       2.313   4.149   0.307  0.00  0.00    +0.270 C 
ATOM     34  O   UNL     1       1.110   3.463  -0.055  0.00  0.00    -0.485 OA
BRANCH  22  35
ATOM     35  C   UNL     1      -2.294  -2.929   0.002  0.00  0.00    +0.102 C 
ATOM     36  N   UNL     1      -3.236  -3.562   0.014  0.00  0.00    -0.191 NA
ENDBRANCH  22  35
ENDBRANCH  20  21
ENDBRANCH  19  20
ENDBRANCH   2  19
TORSDOF 7
