REMARK  Name = ZINC40720491
REMARK  12 active torsions:
REMARK  status: ('A' for Active; 'I' for Inactive)
REMARK    1  A    between atoms: C_1  and  C_2
REMARK    2  A    between atoms: C_2  and  N_3
REMARK    3  A    between atoms: C_7  and  C_9
REMARK    4  A    between atoms: C_9  and  N_10
REMARK    5  A    between atoms: N_10  and  C_11
REMARK    6  A    between atoms: C_11  and  C_12
REMARK    7  A    between atoms: C_14  and  O_28
REMARK    8  A    between atoms: C_15  and  O_19
REMARK    9  A    between atoms: O_19  and  C_20
REMARK   10  A    between atoms: C_20  and  C_21
REMARK   11  A    between atoms: O_28  and  C_29
REMARK   12  A    between atoms: C_29  and  C_30
REMARK                            x       y       z     vdW  Elec       q    Type
REMARK                         _______ _______ _______ _____ _____    ______ ____
ROOT
ATOM      1  C   UNL     1      -1.746  -1.046   5.022  0.00  0.00    -0.060 A 
ATOM      2  C   UNL     1      -0.726  -1.599   5.773  0.00  0.00    +0.051 A 
ATOM      3  C   UNL     1      -0.178  -0.888   6.828  0.00  0.00    +0.163 A 
ATOM      4  C   UNL     1      -0.656   0.384   7.129  0.00  0.00    +0.176 A 
ATOM      5  C   UNL     1      -1.679   0.933   6.372  0.00  0.00    +0.063 A 
ATOM      6  C   UNL     1      -2.218   0.220   5.317  0.00  0.00    +0.021 A 
ATOM      7 BR   UNL     1      -2.332   2.661   6.777  0.00  0.00    -0.046 Br
ENDROOT
BRANCH   1   8
ATOM      8  C   UNL     1      -2.341  -1.821   3.875  0.00  0.00    -0.047 C 
BRANCH   8   9
ATOM      9  N   UNL     1      -1.596  -1.523   2.644  0.00  0.00    +0.383 N 
ATOM     10  H   UNL     1      -0.630  -1.787   2.763  0.00  0.00    -0.085 HD
ATOM     11  H   UNL     1      -1.653  -0.535   2.447  0.00  0.00    -0.085 HD
BRANCH   9  12
ATOM     12  C   UNL     1      -2.176  -2.279   1.526  0.00  0.00    -0.063 C 
BRANCH  12  17
ATOM     13  N   UNL     1      -1.376  -0.512   0.012  0.00  0.00    -0.301 NA
ATOM     14  C   UNL     1      -2.055  -0.228  -1.270  0.00  0.00    +0.084 C 
ATOM     15  C   UNL     1      -1.939  -1.544  -2.079  0.00  0.00    +0.017 C 
ATOM     16  C   UNL     1      -2.108  -2.612  -0.967  0.00  0.00    +0.018 C 
ATOM     17  C   UNL     1      -1.400  -1.968   0.244  0.00  0.00    +0.040 C 
BRANCH  13  19
ATOM     18  C   UNL     1      -0.019   1.526   0.010  0.00  0.00    +0.020 C 
ATOM     19  C   UNL     1       0.002  -0.004   0.002  0.00  0.00    +0.081 C 
ENDBRANCH  13  19
ENDBRANCH  12  17
ENDBRANCH   9  12
ENDBRANCH   8   9
ENDBRANCH   1   8
BRANCH   4  20
ATOM     20  O   UNL     1      -0.121   1.086   8.165  0.00  0.00    -0.483 OA
BRANCH  20  21
ATOM     21  C   UNL     1       0.993   1.930   7.869  0.00  0.00    +0.264 C 
BRANCH  21  22
ATOM     22  C   UNL     1       1.447   2.622   9.128  0.00  0.00    -0.009 A 
ATOM     23  C   UNL     1       0.903   3.844   9.480  0.00  0.00    +0.007 A 
ATOM     24  C   UNL     1       1.319   4.479  10.636  0.00  0.00    +0.002 A 
ATOM     25  C   UNL     1       2.279   3.893  11.439  0.00  0.00    +0.020 A 
ATOM     26  C   UNL     1       2.824   2.671  11.087  0.00  0.00    +0.041 A 
ATOM     27  C   UNL     1       2.402   2.033   9.934  0.00  0.00    +0.027 A 
ATOM     28 CL   UNL     1       4.030   1.936  12.096  0.00  0.00    -0.084 Cl
ENDBRANCH  21  22
ENDBRANCH  20  21
ENDBRANCH   4  20
BRANCH   3  29
ATOM     29  O   UNL     1       0.825  -1.431   7.569  0.00  0.00    -0.489 OA
BRANCH  29  30
ATOM     30  C   UNL     1       1.265  -2.741   7.202  0.00  0.00    +0.226 C 
ATOM     31  C   UNL     1       2.390  -3.182   8.141  0.00  0.00    +0.048 C 
ENDBRANCH  29  30
ENDBRANCH   3  29
TORSDOF 10
