REMARK  Name = ZINC38573991
REMARK  7 active torsions:
REMARK  status: ('A' for Active; 'I' for Inactive)
REMARK    1  A    between atoms: C_1  and  C_2
REMARK    2  A    between atoms: C_2  and  C_22
REMARK    3  A    between atoms: N_3  and  N_4
REMARK    4  A    between atoms: C_5  and  C_7
REMARK    5  A    between atoms: C_9  and  O_21
REMARK    6  A    between atoms: N_17  and  C_20
REMARK    7  A    between atoms: C_24  and  O_34
REMARK                            x       y       z     vdW  Elec       q    Type
REMARK                         _______ _______ _______ _____ _____    ______ ____
ROOT
ATOM      1  N   UNL     1      -0.174  -2.216   1.827  0.00  0.00    -0.206 N 
ATOM      2  C   UNL     1      -0.192  -2.633   3.109  0.00  0.00    +0.247 C 
ATOM      3  O   UNL     1      -0.001  -1.841   4.007  0.00  0.00    -0.273 OA
ATOM      4  H   UNL     1      -0.254  -2.861   1.106  0.00  0.00    +0.177 HD
ENDROOT
BRANCH   2   5
ATOM      5  C   UNL     1      -0.450  -4.084   3.425  0.00  0.00    +0.195 C 
ATOM      6  C   UNL     1      -0.565  -4.261   4.940  0.00  0.00    +0.167 C 
ATOM      7  C   UNL     1       0.794  -4.098   5.570  0.00  0.00    +0.003 A 
ATOM      8  C   UNL     1       0.915  -3.531   6.823  0.00  0.00    +0.008 A 
ATOM      9  C   UNL     1       2.164  -3.383   7.399  0.00  0.00    +0.000 A 
ATOM     10  C   UNL     1       3.295  -3.804   6.722  0.00  0.00    +0.002 A 
ATOM     11  C   UNL     1       3.180  -4.372   5.469  0.00  0.00    +0.024 A 
ATOM     12  C   UNL     1       1.927  -4.522   4.888  0.00  0.00    +0.042 A 
ATOM     13  N   UNL     1       1.804  -5.098   3.620  0.00  0.00    -0.273 N 
ATOM     14  C   UNL     1       0.685  -4.920   2.898  0.00  0.00    +0.234 C 
ATOM     15  O   UNL     1       0.590  -5.440   1.807  0.00  0.00    -0.274 OA
ATOM     16  C   UNL     1       2.902  -5.902   3.077  0.00  0.00    +0.138 C 
BRANCH   6  17
ATOM     17  O   UNL     1      -1.071  -5.565   5.230  0.00  0.00    -0.386 OA
ATOM     18  H   UNL     1      -1.170  -5.747   6.175  0.00  0.00    +0.210 HD
ENDBRANCH   6  17
ENDBRANCH   2   5
BRANCH   1  21
ATOM     19  C   UNL     1      -0.091   1.032   0.024  0.00  0.00    +0.063 C 
ATOM     20  C   UNL     1      -0.131  -0.444   0.326  0.00  0.00    +0.053 C 
ATOM     21  N   UNL     1      -0.039  -0.853   1.536  0.00  0.00    -0.188 NA
BRANCH  20  22
ATOM     22  C   UNL     1      -0.278  -1.439  -0.796  0.00  0.00    +0.186 C 
ATOM     23  C   UNL     1       1.042  -1.500  -1.540  0.00  0.00    +0.120 C 
ATOM     24  C   UNL     1       1.015  -1.202  -2.905  0.00  0.00    +0.035 A 
ATOM     25  C   UNL     1       2.197  -1.235  -3.672  0.00  0.00    +0.013 A 
ATOM     26  C   UNL     1       2.144  -0.941  -5.000  0.00  0.00    +0.001 A 
ATOM     27  C   UNL     1       0.943  -0.608  -5.619  0.00  0.00    +0.002 A 
ATOM     28  C   UNL     1      -0.231  -0.559  -4.929  0.00  0.00    +0.024 A 
ATOM     29  C   UNL     1      -0.250  -0.851  -3.555  0.00  0.00    +0.044 A 
ATOM     30  N   UNL     1      -1.406  -0.803  -2.879  0.00  0.00    -0.284 N 
ATOM     31  C   UNL     1      -1.506  -1.062  -1.592  0.00  0.00    +0.233 C 
ATOM     32  O   UNL     1      -2.591  -0.999  -1.043  0.00  0.00    -0.274 OA
ATOM     33  H   UNL     1      -2.211  -0.565  -3.364  0.00  0.00    +0.155 HD
BRANCH  23  34
ATOM     34  O   UNL     1       2.181  -1.823  -0.918  0.00  0.00    -0.509 OA
ATOM     35  H   UNL     1       2.956  -1.829  -1.496  0.00  0.00    +0.292 HD
ENDBRANCH  23  34
ENDBRANCH  20  22
ENDBRANCH   1  21
TORSDOF 5
