REMARK  Name = ZINC47877088
REMARK  9 active torsions:
REMARK  status: ('A' for Active; 'I' for Inactive)
REMARK    1  A    between atoms: C_4  and  C_7
REMARK    2  A    between atoms: C_7  and  C_9
REMARK    3  A    between atoms: C_7  and  N_26
REMARK    4  A    between atoms: C_9  and  N_10
REMARK    5  A    between atoms: N_13  and  C_14
REMARK    6  A    between atoms: C_19  and  O_20
REMARK    7  A    between atoms: O_20  and  C_21
REMARK    8  A    between atoms: C_21  and  C_22
REMARK    9  A    between atoms: C_22  and  C_23
REMARK                            x       y       z     vdW  Elec       q    Type
REMARK                         _______ _______ _______ _____ _____    ______ ____
ROOT
ATOM      1  N   UNL     1       5.474  -1.949  -1.226  0.00  0.00    -0.300 N 
ATOM      2  C   UNL     1       6.132  -2.466  -2.283  0.00  0.00    +0.304 C 
ATOM      3  O   UNL     1       5.677  -2.339  -3.403  0.00  0.00    -0.253 OA
ATOM      4  N   UNL     1       7.294  -3.122  -2.098  0.00  0.00    -0.266 N 
ATOM      5  H   UNL     1       5.838  -2.050  -0.332  0.00  0.00    +0.150 HD
ATOM      6  H   UNL     1       7.694  -3.162  -1.215  0.00  0.00    +0.156 HD
ENDROOT
BRANCH   4   7
ATOM      7  C   UNL     1       7.926  -3.748  -3.181  0.00  0.00    +0.077 A 
ATOM      8  C   UNL     1       7.832  -3.200  -4.452  0.00  0.00    +0.027 A 
ATOM      9  C   UNL     1       8.455  -3.819  -5.519  0.00  0.00    +0.002 A 
ATOM     10  C   UNL     1       9.173  -4.984  -5.324  0.00  0.00    +0.004 A 
ATOM     11  C   UNL     1       9.271  -5.536  -4.060  0.00  0.00    +0.047 A 
ATOM     12  C   UNL     1       8.654  -4.919  -2.984  0.00  0.00    +0.142 A 
BRANCH  12  13
ATOM     13  O   UNL     1       8.755  -5.458  -1.740  0.00  0.00    -0.490 OA
BRANCH  13  14
ATOM     14  C   UNL     1       9.517  -6.659  -1.613  0.00  0.00    +0.238 C 
BRANCH  14  15
ATOM     15  C   UNL     1       9.517  -7.112  -0.151  0.00  0.00    +0.136 C 
BRANCH  15  16
ATOM     16  C   UNL     1      10.321  -8.379  -0.017  0.00  0.00    +0.214 C 
ATOM     17  O   UNL     1      10.844  -8.872  -0.994  0.00  0.00    -0.276 OA
ATOM     18  N   UNL     1      10.460  -8.964   1.189  0.00  0.00    -0.329 N 
ATOM     19  H   UNL     1      10.042  -8.570   1.971  0.00  0.00    +0.145 HD
ATOM     20  H   UNL     1      10.978  -9.780   1.276  0.00  0.00    +0.145 HD
ENDBRANCH  15  16
ENDBRANCH  14  15
ENDBRANCH  13  14
ENDBRANCH  12  13
ENDBRANCH   4   7
BRANCH   1  21
ATOM     21  C   UNL     1       4.211  -1.235  -1.427  0.00  0.00    +0.095 C 
BRANCH  21  22
ATOM     22  C   UNL     1       3.742  -0.643  -0.096  0.00  0.00    -0.020 C 
BRANCH  22  26
ATOM     23  C   UNL     1       6.511   2.347   1.183  0.00  0.00    +0.000 A 
ATOM     24  C   UNL     1       6.564   1.078   1.728  0.00  0.00    +0.000 A 
ATOM     25  C   UNL     1       5.668   0.110   1.315  0.00  0.00    +0.002 A 
ATOM     26  C   UNL     1       4.719   0.412   0.356  0.00  0.00    -0.059 A 
ATOM     27  C   UNL     1       4.665   1.681  -0.188  0.00  0.00    +0.002 A 
ATOM     28  C   UNL     1       5.562   2.649   0.224  0.00  0.00    +0.000 A 
ENDBRANCH  22  26
BRANCH  22  29
ATOM     29  N   UNL     1       2.414  -0.040  -0.269  0.00  0.00    +0.385 N 
ATOM     30  C   UNL     1       1.406  -1.093  -0.550  0.00  0.00    -0.078 C 
ATOM     31  C   UNL     1       0.069  -0.421  -0.148  0.00  0.00    -0.020 C 
ATOM     32  C   UNL     1       0.459   0.404   1.100  0.00  0.00    -0.020 C 
ATOM     33  C   UNL     1       1.981   0.608   0.988  0.00  0.00    -0.078 C 
ATOM     34  H   UNL     1       2.433   0.634  -1.019  0.00  0.00    -0.081 HD
ENDBRANCH  22  29
ENDBRANCH  21  22
ENDBRANCH   1  21
TORSDOF 9
