REMARK  Name = ZINC63234736
REMARK  6 active torsions:
REMARK  status: ('A' for Active; 'I' for Inactive)
REMARK    1  A    between atoms: C_7  and  C_10
REMARK    2  A    between atoms: C_10  and  C_11
REMARK    3  A    between atoms: N_15  and  C_19
REMARK    4  A    between atoms: C_19  and  C_20
REMARK    5  A    between atoms: N_22  and  C_23
REMARK    6  A    between atoms: C_25  and  C_33
REMARK                            x       y       z     vdW  Elec       q    Type
REMARK                         _______ _______ _______ _____ _____    ______ ____
ROOT
ATOM      1  C   UNL     1      -1.442  -3.702  -0.631  0.00  0.00    +0.165 C 
ATOM      2  C   UNL     1      -1.910  -5.121  -0.885  0.00  0.00    +0.244 C 
ATOM      3  O   UNL     1      -2.962  -5.618  -0.543  0.00  0.00    -0.273 OA
ATOM      4  N   UNL     1      -0.914  -5.717  -1.570  0.00  0.00    -0.216 N 
ATOM      5  C   UNL     1       0.108  -4.879  -1.782  0.00  0.00    +0.310 C 
ATOM      6  O   UNL     1       1.121  -5.188  -2.378  0.00  0.00    -0.252 OA
ATOM      7  N   UNL     1      -0.112  -3.655  -1.262  0.00  0.00    -0.287 N 
ATOM      8  H   UNL     1       0.486  -2.892  -1.297  0.00  0.00    +0.151 HD
ENDROOT
BRANCH   1   9
ATOM      9  C   UNL     1      -1.335  -3.431   0.871  0.00  0.00    +0.065 C 
BRANCH   9  16
ATOM     10  C   UNL     1      -3.771   0.369   1.694  0.00  0.00    +0.001 A 
ATOM     11  C   UNL     1      -2.984   1.520   1.842  0.00  0.00    +0.002 A 
ATOM     12  C   UNL     1      -1.638   1.500   1.750  0.00  0.00    +0.026 A 
ATOM     13  C   UNL     1      -0.953   0.280   1.493  0.00  0.00    +0.043 A 
ATOM     14  N   UNL     1       0.322   0.005   1.360  0.00  0.00    -0.380 N 
ATOM     15  C   UNL     1       0.467  -1.431   1.101  0.00  0.00    +0.144 C 
ATOM     16  C   UNL     1      -0.936  -1.996   1.095  0.00  0.00    -0.039 C 
ATOM     17  C   UNL     1      -1.761  -0.950   1.332  0.00  0.00    -0.001 A 
ATOM     18  C   UNL     1      -3.220  -0.842   1.447  0.00  0.00    +0.010 A 
ATOM     19  H   UNL     1       1.048   0.645   1.423  0.00  0.00    +0.160 HD
ENDBRANCH   9  16
ENDBRANCH   1   9
BRANCH   4  20
ATOM     20  C   UNL     1      -0.945  -7.109  -2.026  0.00  0.00    +0.213 C 
BRANCH  20  21
ATOM     21  C   UNL     1      -1.550  -7.172  -3.405  0.00  0.00    +0.232 C 
ATOM     22  O   UNL     1      -1.918  -6.155  -3.953  0.00  0.00    -0.274 OA
ATOM     23  N   UNL     1      -1.682  -8.359  -4.029  0.00  0.00    -0.301 N 
ATOM     24  H   UNL     1      -1.387  -9.173  -3.590  0.00  0.00    +0.150 HD
BRANCH  23  25
ATOM     25  C   UNL     1      -2.269  -8.421  -5.369  0.00  0.00    +0.151 C 
ATOM     26  C   UNL     1      -1.715  -9.616  -6.178  0.00  0.00    +0.132 C 
ATOM     27  C   UNL     1      -1.524  -9.259  -7.640  0.00  0.00    -0.046 C 
ATOM     28  C   UNL     1      -1.460  -7.977  -7.952  0.00  0.00    -0.013 C 
ATOM     29  S   UNL     1      -1.659  -7.053  -6.439  0.00  0.00    -0.106 S 
ATOM     30  C   UNL     1      -1.246  -7.757  -9.430  0.00  0.00    +0.042 C 
ATOM     31  C   UNL     1      -0.765  -9.125  -9.960  0.00  0.00    +0.009 C 
ATOM     32  C   UNL     1      -1.382 -10.084  -8.924  0.00  0.00    +0.033 C 
BRANCH  26  33
ATOM     33  C   UNL     1      -0.387 -10.030  -5.597  0.00  0.00    +0.220 C 
ATOM     34  O   UNL     1       0.629  -9.467  -5.945  0.00  0.00    -0.275 OA
ATOM     35  N   UNL     1      -0.329 -11.026  -4.691  0.00  0.00    -0.329 N 
ATOM     36  H   UNL     1      -1.131 -11.524  -4.465  0.00  0.00    +0.145 HD
ATOM     37  H   UNL     1       0.514 -11.245  -4.264  0.00  0.00    +0.145 HD
ENDBRANCH  26  33
ENDBRANCH  23  25
ENDBRANCH  20  21
ENDBRANCH   4  20
TORSDOF 6
