REMARK  Name = ZINC42955279
REMARK  12 active torsions:
REMARK  status: ('A' for Active; 'I' for Inactive)
REMARK    1  A    between atoms: C_1  and  C_2
REMARK    2  A    between atoms: C_2  and  C_4
REMARK    3  A    between atoms: C_2  and  N_21
REMARK    4  A    between atoms: C_4  and  C_6
REMARK    5  A    between atoms: C_4  and  N_13
REMARK    6  A    between atoms: N_13  and  C_14
REMARK    7  A    between atoms: N_13  and  C_18
REMARK    8  A    between atoms: C_14  and  C_15
REMARK    9  A    between atoms: C_15  and  C_16
REMARK   10  A    between atoms: C_16  and  O_17
REMARK   11  A    between atoms: C_18  and  C_19
REMARK   12  A    between atoms: C_18  and  C_20
REMARK                            x       y       z     vdW  Elec       q    Type
REMARK                         _______ _______ _______ _____ _____    ______ ____
ROOT
ATOM      1  C   UNL     1      -0.634  -0.271   0.812  0.00  0.00    -0.052 C 
ENDROOT
BRANCH   1   2
ATOM      2  C   UNL     1       0.816  -0.372   0.413  0.00  0.00    -0.062 A 
ATOM      3  C   UNL     1       1.724  -0.984   1.258  0.00  0.00    +0.003 A 
ATOM      4  C   UNL     1       3.053  -1.078   0.892  0.00  0.00    +0.015 A 
ATOM      5  C   UNL     1       3.476  -0.559  -0.319  0.00  0.00    +0.018 A 
ATOM      6  C   UNL     1       2.567   0.053  -1.163  0.00  0.00    +0.015 A 
ATOM      7  C   UNL     1       1.237   0.142  -0.799  0.00  0.00    +0.003 A 
ATOM      8 BR   UNL     1       5.295  -0.687  -0.819  0.00  0.00    -0.050 Br
ENDBRANCH   1   2
BRANCH   1  10
ATOM      9  C   UNL     1      -2.610  -1.588   1.590  0.00  0.00    -0.016 C 
ATOM     10  C   UNL     1      -1.228  -1.675   0.939  0.00  0.00    -0.088 C 
BRANCH  10  11
ATOM     11  N   UNL     1      -1.351  -2.277  -0.395  0.00  0.00    +0.379 N 
ATOM     12  H   UNL     1      -0.440  -2.334  -0.824  0.00  0.00    -0.090 HD
ATOM     13  H   UNL     1      -1.743  -3.203  -0.312  0.00  0.00    -0.090 HD
ATOM     14  H   UNL     1      -1.957  -1.706  -0.967  0.00  0.00    -0.090 HD
ENDBRANCH  10  11
ENDBRANCH   1  10
BRANCH   1  15
ATOM     15  N   UNL     1      -0.739   0.424   2.102  0.00  0.00    +0.385 N 
ATOM     16  H   UNL     1      -1.694   0.388   2.427  0.00  0.00    -0.081 HD
BRANCH  15  17
ATOM     17  C   UNL     1       0.136  -0.230   3.084  0.00  0.00    -0.074 C 
ATOM     18  C   UNL     1      -0.129   0.353   4.473  0.00  0.00    -0.013 C 
ATOM     19  C   UNL     1      -0.148  -1.734   3.099  0.00  0.00    -0.013 C 
ENDBRANCH  15  17
BRANCH  15  20
ATOM     20  C   UNL     1      -0.331   1.825   1.939  0.00  0.00    -0.075 C 
BRANCH  20  21
ATOM     21  C   UNL     1      -0.351   2.525   3.300  0.00  0.00    +0.009 C 
BRANCH  21  22
ATOM     22  C   UNL     1      -0.471   4.036   3.095  0.00  0.00    +0.154 C 
BRANCH  22  23
ATOM     23  O   UNL     1      -0.490   4.689   4.365  0.00  0.00    -0.395 OA
ATOM     24  H   UNL     1      -0.565   5.652   4.312  0.00  0.00    +0.209 HD
ENDBRANCH  22  23
ENDBRANCH  21  22
ENDBRANCH  20  21
ENDBRANCH  15  20
ENDBRANCH   1  15
TORSDOF 9
