REMARK  Name = ZINC20132047
REMARK  10 active torsions:
REMARK  status: ('A' for Active; 'I' for Inactive)
REMARK    1  A    between atoms: C_1  and  C_2
REMARK    2  A    between atoms: C_6  and  C_20
REMARK    3  A    between atoms: N_8  and  C_9
REMARK    4  A    between atoms: C_11  and  O_17
REMARK    5  A    between atoms: C_13  and  O_15
REMARK    6  A    between atoms: O_15  and  C_16
REMARK    7  A    between atoms: O_17  and  C_18
REMARK    8  A    between atoms: C_20  and  N_22
REMARK    9  A    between atoms: C_23  and  C_26
REMARK   10  A    between atoms: C_26  and  O_27
REMARK                            x       y       z     vdW  Elec       q    Type
REMARK                         _______ _______ _______ _____ _____    ______ ____
ROOT
ATOM      1  C   UNL     1       0.565   7.262   0.078  0.00  0.00    +0.069 C 
ATOM      2  C   UNL     1       0.794   5.773   0.063  0.00  0.00    +0.081 A 
ATOM      3  C   UNL     1       2.089   5.274   0.034  0.00  0.00    +0.159 A 
ATOM      4  C   UNL     1       2.276   3.878   0.029  0.00  0.00    +0.027 A 
ATOM      5  C   UNL     1       3.634   3.330   0.012  0.00  0.00    +0.027 A 
ATOM      6  C   UNL     1       4.676   4.209   0.276  0.00  0.00    +0.064 A 
ATOM      7  C   UNL     1       4.317   5.616   0.551  0.00  0.00    +0.209 A 
ATOM      8  N   UNL     1       5.094   6.380   1.287  0.00  0.00    -0.325 N 
ATOM      9  O   UNL     1       3.162   6.098   0.012  0.00  0.00    -0.437 OA
ATOM     10  C   UNL     1       1.147   3.050   0.038  0.00  0.00    +0.007 A 
ATOM     11  C   UNL     1      -0.100   3.638   0.066  0.00  0.00    +0.117 A 
ATOM     12  N   UNL     1      -0.236   4.952   0.078  0.00  0.00    -0.256 NA
ATOM     13  H   UNL     1       5.980   5.952   1.779  0.00  0.00    +0.169 HD
ENDROOT
BRANCH   8  14
ATOM     14  C   UNL     1       4.801   7.707   1.440  0.00  0.00    +0.049 A 
ATOM     15  C   UNL     1       5.241   8.635   0.494  0.00  0.00    +0.071 A 
ATOM     16  C   UNL     1       4.938   9.977   0.651  0.00  0.00    +0.126 A 
ATOM     17  C   UNL     1       4.207  10.401   1.752  0.00  0.00    +0.091 A 
ATOM     18  C   UNL     1       3.771   9.483   2.697  0.00  0.00    +0.126 A 
ATOM     19  C   UNL     1       4.066   8.139   2.546  0.00  0.00    +0.071 A 
BRANCH  18  20
ATOM     20  O   UNL     1       3.056   9.904   3.772  0.00  0.00    -0.495 OA
ATOM     21  C   UNL     1       2.788  11.305   3.865  0.00  0.00    +0.277 C 
ENDBRANCH  18  20
BRANCH  16  22
ATOM     22  O   UNL     1       5.361  10.881  -0.272  0.00  0.00    -0.495 OA
ATOM     23  C   UNL     1       5.017  12.249  -0.045  0.00  0.00    +0.277 C 
ENDBRANCH  16  22
ENDBRANCH   8  14
BRANCH   6  24
ATOM     24  C   UNL     1       6.077   3.759   0.282  0.00  0.00    +0.082 C 
ATOM     25  S   UNL     1       6.451   2.119  -0.041  0.00  0.00    -0.035 S 
BRANCH  24  26
ATOM     26  N   UNL     1       7.066   4.637   0.542  0.00  0.00    -0.352 N 
ATOM     27  H   UNL     1       8.113   4.300   0.547  0.00  0.00    +0.143 HD
ATOM     28  H   UNL     1       6.826   5.690   0.750  0.00  0.00    +0.143 HD
ENDBRANCH  24  26
ENDBRANCH   6  24
BRANCH  10  29
ATOM     29  C   UNL     1       1.292   1.550   0.025  0.00  0.00    +0.193 C 
BRANCH  29  30
ATOM     30  O   UNL     1      -0.003   0.946   0.045  0.00  0.00    -0.390 OA
ATOM     31  H   UNL     1      -0.099  -0.149   0.039  0.00  0.00    +0.210 HD
ENDBRANCH  29  30
ENDBRANCH  10  29
TORSDOF 7
