REMARK  Name = ZINC66246675
REMARK  4 active torsions:
REMARK  status: ('A' for Active; 'I' for Inactive)
REMARK    1  A    between atoms: C_6  and  C_7
REMARK    2  A    between atoms: C_7  and  C_13
REMARK    3  A    between atoms: C_13  and  N_14
REMARK    4  A    between atoms: N_16  and  C_17
REMARK                            x       y       z     vdW  Elec       q    Type
REMARK                         _______ _______ _______ _____ _____    ______ ____
ROOT
ATOM      1  C   UNL     1      -1.193  -0.707   0.032  0.00  0.00    +0.017 C 
ATOM      2  C   UNL     1      -2.204  -0.546  -1.108  0.00  0.00    +0.041 C 
ATOM      3  C   UNL     1      -3.300  -1.605  -0.961  0.00  0.00    +0.161 C 
ATOM      4  O   UNL     1      -2.707  -2.905  -0.963  0.00  0.00    -0.380 OA
ATOM      5  C   UNL     1      -1.788  -3.129   0.108  0.00  0.00    +0.161 C 
ATOM      6  C   UNL     1      -0.632  -2.131   0.004  0.00  0.00    +0.041 C 
ENDROOT
BRANCH   1  12
ATOM      7  C   UNL     1       0.956   0.337   0.778  0.00  0.00    +0.005 A 
ATOM      8  C   UNL     1       1.987   1.243   0.614  0.00  0.00    +0.015 A 
ATOM      9  C   UNL     1       1.992   2.094  -0.477  0.00  0.00    +0.018 A 
ATOM     10  C   UNL     1       0.966   2.038  -1.403  0.00  0.00    +0.015 A 
ATOM     11  C   UNL     1      -0.065   1.132  -1.237  0.00  0.00    +0.005 A 
ATOM     12  C   UNL     1      -0.070   0.282  -0.148  0.00  0.00    -0.039 A 
ATOM     13 BR   UNL     1       3.402   3.335  -0.702  0.00  0.00    -0.050 Br
ENDBRANCH   1  12
BRANCH   1  14
ATOM     14  C   UNL     1      -1.887  -0.455   1.373  0.00  0.00    +0.127 C 
BRANCH  14  15
ATOM     15  N   UNL     1      -2.334   0.938   1.437  0.00  0.00    -0.357 N 
ATOM     16  C   UNL     1      -2.950   1.411   2.572  0.00  0.00    +0.169 C 
ATOM     17  N   UNL     1      -3.348   2.650   2.630  0.00  0.00    -0.355 N 
ATOM     18  N   UNL     1      -3.144   0.576   3.647  0.00  0.00    -0.371 N 
ATOM     19  H   UNL     1      -2.197   1.528   0.679  0.00  0.00    +0.162 HD
ATOM     20  H   UNL     1      -2.771  -0.320   3.639  0.00  0.00    +0.159 HD
ATOM     21  H   UNL     1      -3.656   0.881   4.412  0.00  0.00    +0.159 HD
ATOM     22  H   UNL     1      -3.179   3.249   1.885  0.00  0.00    +0.163 HD
BRANCH  17  23
ATOM     23  C   UNL     1      -4.051   3.139   3.818  0.00  0.00    +0.082 C 
ATOM     24  C   UNL     1      -3.976   4.638   4.117  0.00  0.00    +0.026 C 
ATOM     25  C   UNL     1      -3.200   3.645   4.984  0.00  0.00    +0.026 C 
ENDBRANCH  17  23
ENDBRANCH  14  15
ENDBRANCH   1  14
TORSDOF 4
