REMARK  Name = ZINC10210925
REMARK  10 active torsions:
REMARK  status: ('A' for Active; 'I' for Inactive)
REMARK    1  A    between atoms: C_1  and  C_2
REMARK    2  A    between atoms: C_4  and  C_35
REMARK    3  A    between atoms: C_6  and  N_8
REMARK    4  A    between atoms: C_9  and  C_11
REMARK    5  A    between atoms: C_11  and  O_12
REMARK    6  A    between atoms: O_12  and  C_13
REMARK    7  A    between atoms: C_13  and  C_15
REMARK    8  A    between atoms: C_20  and  N_21
REMARK    9  A    between atoms: N_21  and  S_22
REMARK   10  A    between atoms: S_22  and  C_25
REMARK                            x       y       z     vdW  Elec       q    Type
REMARK                         _______ _______ _______ _____ _____    ______ ____
ROOT
ATOM      1  C   UNL     1       4.044  -0.017  -3.795  0.00  0.00    +0.081 A 
ATOM      2  C   UNL     1       4.243   1.086  -4.630  0.00  0.00    +0.017 A 
ATOM      3  C   UNL     1       4.890   2.203  -4.150  0.00  0.00    +0.001 A 
ATOM      4  C   UNL     1       5.347   2.240  -2.842  0.00  0.00    +0.002 A 
ATOM      5  C   UNL     1       5.153   1.162  -2.003  0.00  0.00    +0.025 A 
ATOM      6  C   UNL     1       4.507   0.024  -2.471  0.00  0.00    +0.062 A 
ENDROOT
BRANCH   1   7
ATOM      7  C   UNL     1       3.352  -1.215  -4.302  0.00  0.00    +0.341 C 
ATOM      8  O   UNL     1       3.181  -2.172  -3.573  0.00  0.00    -0.245 OA
BRANCH   7   9
ATOM      9  O   UNL     1       2.909  -1.249  -5.574  0.00  0.00    -0.452 OA
BRANCH   9  10
ATOM     10  C   UNL     1       2.236  -2.462  -6.005  0.00  0.00    +0.328 C 
BRANCH  10  12
ATOM     11  N   UNL     1       1.168  -3.326  -8.062  0.00  0.00    -0.283 N 
ATOM     12  C   UNL     1       1.815  -2.317  -7.445  0.00  0.00    +0.255 C 
ATOM     13  O   UNL     1       2.058  -1.294  -8.048  0.00  0.00    -0.272 OA
ATOM     14  H   UNL     1       0.915  -4.118  -7.562  0.00  0.00    +0.155 HD
BRANCH  11  20
ATOM     15  C   UNL     1       0.626  -5.498 -12.439  0.00  0.00    +0.044 C 
ATOM     16  C   UNL     1       0.591  -4.268 -11.569  0.00  0.00    -0.048 A 
ATOM     17  C   UNL     1       0.255  -3.044 -12.117  0.00  0.00    +0.006 A 
ATOM     18  C   UNL     1       0.222  -1.913 -11.322  0.00  0.00    -0.048 A 
ATOM     19  C   UNL     1       0.523  -2.003  -9.977  0.00  0.00    +0.026 A 
ATOM     20  C   UNL     1       0.862  -3.231  -9.424  0.00  0.00    +0.034 A 
ATOM     21  C   UNL     1       0.900  -4.364 -10.227  0.00  0.00    +0.026 A 
ATOM     22  C   UNL     1      -0.145  -0.581 -11.923  0.00  0.00    +0.044 C 
ENDBRANCH  11  20
ENDBRANCH  10  12
ENDBRANCH   9  10
ENDBRANCH   7   9
ENDBRANCH   1   7
BRANCH   6  23
ATOM     23  N   UNL     1       4.316  -1.065  -1.631  0.00  0.00    -0.215 N 
ATOM     24  H   UNL     1       4.368  -1.966  -1.985  0.00  0.00    +0.174 HD
BRANCH  23  25
ATOM     25  S   UNL     1       4.000  -0.825  -0.023  0.00  0.00    +0.072 S 
ATOM     26  O   UNL     1       5.035   0.012   0.474  0.00  0.00    -0.150 OA
ATOM     27  O   UNL     1       3.722  -2.103   0.532  0.00  0.00    -0.150 OA
BRANCH  25  28
ATOM     28  C   UNL     1       2.506   0.104   0.081  0.00  0.00    +0.112 A 
ATOM     29  C   UNL     1       1.290  -0.549   0.149  0.00  0.00    +0.032 A 
ATOM     30  C   UNL     1       0.117   0.177   0.230  0.00  0.00    +0.051 A 
ATOM     31  C   UNL     1       0.157   1.563   0.243  0.00  0.00    +0.162 A 
ATOM     32  C   UNL     1       1.379   2.220   0.176  0.00  0.00    +0.164 A 
ATOM     33  C   UNL     1       2.553   1.486   0.094  0.00  0.00    +0.078 A 
ATOM     34  O   UNL     1       1.442   3.579   0.195  0.00  0.00    -0.485 OA
ATOM     35  C   UNL     1       0.230   4.283  -0.098  0.00  0.00    +0.270 C 
ATOM     36  C   UNL     1      -0.907   3.639   0.705  0.00  0.00    +0.270 C 
ATOM     37  O   UNL     1      -1.008   2.264   0.314  0.00  0.00    -0.485 OA
ENDBRANCH  25  28
ENDBRANCH  23  25
ENDBRANCH   6  23
TORSDOF 8
