REMARK  Name = ZINC56647543
REMARK  6 active torsions:
REMARK  status: ('A' for Active; 'I' for Inactive)
REMARK    1  A    between atoms: C_1  and  C_2
REMARK    2  A    between atoms: C_2  and  C_4
REMARK    3  A    between atoms: C_2  and  N_12
REMARK    4  A    between atoms: C_4  and  C_5
REMARK    5  A    between atoms: C_8  and  O_11
REMARK    6  A    between atoms: N_15  and  C_16
REMARK                            x       y       z     vdW  Elec       q    Type
REMARK                         _______ _______ _______ _____ _____    ______ ____
ROOT
ATOM      1  N   UNL     1       0.689  -0.469  -1.205  0.00  0.00    -0.296 N 
ATOM      2  C   UNL     1       0.006  -0.607  -2.359  0.00  0.00    +0.304 C 
ATOM      3  O   UNL     1      -1.179  -0.338  -2.400  0.00  0.00    -0.253 OA
ATOM      4  N   UNL     1       0.637  -1.043  -3.467  0.00  0.00    -0.268 N 
ATOM      5  H   UNL     1       1.635  -0.683  -1.173  0.00  0.00    +0.151 HD
ATOM      6  H   UNL     1       1.595  -1.192  -3.453  0.00  0.00    +0.156 HD
ENDROOT
BRANCH   4   7
ATOM      7  C   UNL     1      -0.092  -1.280  -4.641  0.00  0.00    +0.051 A 
ATOM      8  C   UNL     1      -1.179  -0.472  -4.972  0.00  0.00    +0.028 A 
ATOM      9  C   UNL     1      -1.869  -0.742  -6.139  0.00  0.00    +0.043 A 
ATOM     10  C   UNL     1      -1.459  -1.803  -6.940  0.00  0.00    +0.099 A 
ATOM     11  N   UNL     1      -0.422  -2.550  -6.594  0.00  0.00    -0.348 N 
ATOM     12  C   UNL     1       0.263  -2.317  -5.490  0.00  0.00    +0.107 A 
ATOM     13  N   UNL     1      -2.147  -2.083  -8.118  0.00  0.00    -0.317 N 
ATOM     14  C   UNL     1      -3.307  -1.340  -8.630  0.00  0.00    +0.106 C 
ATOM     15  C   UNL     1      -3.747  -2.024  -9.941  0.00  0.00    +0.020 C 
ATOM     16  C   UNL     1      -3.161  -3.454  -9.801  0.00  0.00    +0.020 C 
ATOM     17  C   UNL     1      -1.828  -3.171  -9.061  0.00  0.00    +0.106 C 
ATOM     18  H   UNL     1      -0.156  -3.284  -7.170  0.00  0.00    +0.167 HD
ENDBRANCH   4   7
BRANCH   1  20
ATOM     19  C   UNL     1      -0.023   1.534   0.003  0.00  0.00    +0.028 C 
ATOM     20  C   UNL     1       0.004   0.004  -0.000  0.00  0.00    +0.076 C 
BRANCH  20  21
ATOM     21  C   UNL     1       0.748  -0.495   1.240  0.00  0.00    +0.057 C 
BRANCH  21  22
ATOM     22  C   UNL     1       0.668  -1.999   1.301  0.00  0.00    -0.045 A 
ATOM     23  C   UNL     1      -0.382  -2.608   1.962  0.00  0.00    +0.007 A 
ATOM     24  C   UNL     1      -0.457  -3.987   2.020  0.00  0.00    +0.045 A 
ATOM     25  C   UNL     1       0.522  -4.760   1.413  0.00  0.00    +0.117 A 
ATOM     26  C   UNL     1       1.575  -4.146   0.750  0.00  0.00    +0.045 A 
ATOM     27  C   UNL     1       1.643  -2.767   0.690  0.00  0.00    +0.007 A 
BRANCH  25  28
ATOM     28  O   UNL     1       0.451  -6.115   1.469  0.00  0.00    -0.507 OA
ATOM     29  H   UNL     1      -0.038  -6.514   0.737  0.00  0.00    +0.292 HD
ENDBRANCH  25  28
ENDBRANCH  21  22
ENDBRANCH  20  21
ENDBRANCH   1  20
TORSDOF 5
