REMARK  Name = ZINC06996470
REMARK  11 active torsions:
REMARK  status: ('A' for Active; 'I' for Inactive)
REMARK    1  A    between atoms: C_1  and  C_2
REMARK    2  A    between atoms: C_2  and  C_3
REMARK    3  A    between atoms: C_3  and  C_4
REMARK    4  A    between atoms: C_4  and  N_5
REMARK    5  A    between atoms: C_9  and  S_26
REMARK    6  A    between atoms: C_13  and  C_14
REMARK    7  A    between atoms: C_14  and  N_15
REMARK    8  A    between atoms: N_15  and  C_16
REMARK    9  A    between atoms: C_16  and  C_18
REMARK   10  A    between atoms: C_16  and  C_19
REMARK   11  A    between atoms: S_26  and  N_29
REMARK                            x       y       z     vdW  Elec       q    Type
REMARK                         _______ _______ _______ _____ _____    ______ ____
ROOT
ATOM      1  N   UNL     1      -2.787  -2.571   0.015  0.00  0.00    -0.329 N 
ATOM      2  C   UNL     1      -3.546  -2.854   1.133  0.00  0.00    +0.069 A 
ATOM      3  C   UNL     1      -3.320  -2.775   2.500  0.00  0.00    +0.030 A 
ATOM      4  C   UNL     1      -4.316  -3.145   3.379  0.00  0.00    +0.030 A 
ATOM      5  C   UNL     1      -5.540  -3.596   2.906  0.00  0.00    +0.107 A 
ATOM      6  C   UNL     1      -5.780  -3.681   1.563  0.00  0.00    +0.058 A 
ATOM      7  C   UNL     1      -4.786  -3.310   0.654  0.00  0.00    +0.091 A 
ATOM      8  N   UNL     1      -4.721  -3.282  -0.702  0.00  0.00    -0.234 NA
ATOM      9  C   UNL     1      -3.554  -2.844  -1.075  0.00  0.00    +0.094 A 
ENDROOT
BRANCH   5  10
ATOM     10  S   UNL     1      -6.798  -4.064   4.048  0.00  0.00    +0.056 S 
ATOM     11  O   UNL     1      -7.655  -4.966   3.361  0.00  0.00    -0.153 OA
ATOM     12  O   UNL     1      -6.139  -4.412   5.258  0.00  0.00    -0.153 OA
BRANCH  10  13
ATOM     13  N   UNL     1      -7.695  -2.710   4.370  0.00  0.00    -0.204 NA
ATOM     14  H   UNL     1      -8.636  -2.793   4.594  0.00  0.00    +0.144 HD
ATOM     15  H   UNL     1      -7.281  -1.834   4.334  0.00  0.00    +0.144 HD
ENDBRANCH  10  13
ENDBRANCH   5  10
BRANCH   1  16
ATOM     16  C   UNL     1      -1.413  -2.063   0.004  0.00  0.00    +0.123 C 
BRANCH  16  17
ATOM     17  C   UNL     1      -1.433  -0.534   0.013  0.00  0.00    +0.021 C 
BRANCH  17  19
ATOM     18  C   UNL     1      -0.019   1.526   0.010  0.00  0.00    +0.004 C 
ATOM     19  C   UNL     1       0.002  -0.004   0.002  0.00  0.00    -0.002 C 
ENDBRANCH  17  19
ENDBRANCH  16  17
ENDBRANCH   1  16
BRANCH   9  20
ATOM     20  C   UNL     1      -3.114  -2.668  -2.506  0.00  0.00    -0.006 C 
BRANCH  20  21
ATOM     21  N   UNL     1      -2.492  -3.910  -2.983  0.00  0.00    +0.388 N 
ATOM     22  H   UNL     1      -1.690  -4.127  -2.409  0.00  0.00    -0.084 HD
ATOM     23  H   UNL     1      -3.159  -4.664  -2.926  0.00  0.00    -0.084 HD
BRANCH  21  24
ATOM     24  C   UNL     1      -2.063  -3.739  -4.378  0.00  0.00    -0.042 C 
ATOM     25  C   UNL     1      -0.960  -2.681  -4.446  0.00  0.00    -0.009 C 
BRANCH  24  26
ATOM     26  C   UNL     1      -1.537  -5.048  -4.906  0.00  0.00    -0.043 A 
ATOM     27  C   UNL     1      -1.133  -6.036  -4.027  0.00  0.00    +0.003 A 
ATOM     28  C   UNL     1      -0.650  -7.237  -4.511  0.00  0.00    +0.000 A 
ATOM     29  C   UNL     1      -0.570  -7.452  -5.875  0.00  0.00    +0.001 A 
ATOM     30  C   UNL     1      -0.973  -6.465  -6.754  0.00  0.00    +0.020 A 
ATOM     31  C   UNL     1      -1.462  -5.264  -6.270  0.00  0.00    +0.043 A 
ATOM     32 CL   UNL     1      -1.975  -4.027  -7.374  0.00  0.00    -0.083 Cl
ENDBRANCH  24  26
ENDBRANCH  21  24
ENDBRANCH  20  21
ENDBRANCH   9  20
TORSDOF 9
