REMARK  Name = ZINC09484366
REMARK  7 active torsions:
REMARK  status: ('A' for Active; 'I' for Inactive)
REMARK    1  A    between atoms: C_1  and  C_2
REMARK    2  A    between atoms: C_5  and  S_8
REMARK    3  A    between atoms: S_8  and  C_9
REMARK    4  A    between atoms: C_9  and  C_10
REMARK    5  A    between atoms: N_20  and  C_21
REMARK    6  A    between atoms: C_24  and  O_27
REMARK    7  A    between atoms: O_27  and  C_28
REMARK                            x       y       z     vdW  Elec       q    Type
REMARK                         _______ _______ _______ _____ _____    ______ ____
ROOT
ATOM      1  C   UNL     1       6.558  -3.148   0.366  0.00  0.00    +0.060 A 
ATOM      2  C   UNL     1       7.051  -4.420   0.339  0.00  0.00    +0.094 A 
ATOM      3  C   UNL     1       6.152  -5.496   0.234  0.00  0.00    +0.253 A 
ATOM      4  O   UNL     1       6.558  -6.646   0.208  0.00  0.00    -0.268 OA
ATOM      5  N   UNL     1       4.829  -5.232   0.170  0.00  0.00    -0.293 N 
ATOM      6  H   UNL     1       4.190  -5.958   0.102  0.00  0.00    +0.172 HD
ATOM      7  C   UNL     1       4.396  -3.943   0.196  0.00  0.00    +0.211 A 
ATOM      8  N   UNL     1       5.245  -2.940   0.294  0.00  0.00    -0.218 NA
ATOM      9  N   UNL     1       3.049  -3.682   0.124  0.00  0.00    -0.298 N 
ATOM     10  C   UNL     1       2.603  -2.380   0.013  0.00  0.00    +0.180 C 
ATOM     11  N   UNL     1       3.506  -1.357  -0.162  0.00  0.00    -0.328 N 
ATOM     12  H   UNL     1       2.411  -4.412   0.151  0.00  0.00    +0.172 HD
ATOM     13  H   UNL     1       0.610  -2.779   0.128  0.00  0.00    +0.159 HD
ATOM     14  H   UNL     1       4.443  -1.556  -0.308  0.00  0.00    +0.169 HD
ATOM     15  N   UNL     1       1.322  -2.051   0.073  0.00  0.00    -0.371 N 
ATOM     16  H   UNL     1       1.045  -1.062   0.065  0.00  0.00    +0.159 HD
ENDROOT
BRANCH  11  17
ATOM     17  C   UNL     1       3.070  -0.025  -0.128  0.00  0.00    +0.042 A 
ATOM     18  C   UNL     1       1.929   0.314   0.587  0.00  0.00    +0.029 A 
ATOM     19  C   UNL     1       1.501   1.627   0.620  0.00  0.00    +0.047 A 
ATOM     20  C   UNL     1       2.209   2.605  -0.061  0.00  0.00    +0.120 A 
ATOM     21  C   UNL     1       3.349   2.267  -0.776  0.00  0.00    +0.047 A 
ATOM     22  C   UNL     1       3.779   0.955  -0.810  0.00  0.00    +0.029 A 
BRANCH  20  23
ATOM     23  O   UNL     1       1.787   3.897  -0.028  0.00  0.00    -0.495 OA
ATOM     24  C   UNL     1       2.564   4.853  -0.752  0.00  0.00    +0.277 C 
ENDBRANCH  20  23
ENDBRANCH  11  17
BRANCH   1  25
ATOM     25  C   UNL     1       7.500  -1.978   0.477  0.00  0.00    +0.130 C 
BRANCH  25  26
ATOM     26  S   UNL     1       7.636  -1.156  -1.135  0.00  0.00    -0.119 S 
BRANCH  26  31
ATOM     27  C   UNL     1      11.474   3.394  -0.135  0.00  0.00    +0.044 C 
ATOM     28  C   UNL     1      10.516   2.258  -0.385  0.00  0.00    -0.050 A 
ATOM     29  C   UNL     1       9.980   2.072  -1.646  0.00  0.00    +0.004 A 
ATOM     30  C   UNL     1       9.102   1.033  -1.878  0.00  0.00    +0.015 A 
ATOM     31  C   UNL     1       8.757   0.172  -0.843  0.00  0.00    +0.008 A 
ATOM     32  C   UNL     1       9.293   0.365   0.424  0.00  0.00    +0.015 A 
ATOM     33  C   UNL     1      10.175   1.403   0.648  0.00  0.00    +0.004 A 
ENDBRANCH  26  31
ENDBRANCH  25  26
ENDBRANCH   1  25
TORSDOF 5
