REMARK  Name = ZINC20849888
REMARK  9 active torsions:
REMARK  status: ('A' for Active; 'I' for Inactive)
REMARK    1  A    between atoms: C_1  and  C_2
REMARK    2  A    between atoms: C_3  and  C_27
REMARK    3  A    between atoms: C_4  and  C_20
REMARK    4  A    between atoms: C_9  and  S_11
REMARK    5  A    between atoms: S_11  and  C_12
REMARK    6  A    between atoms: C_12  and  C_13
REMARK    7  A    between atoms: N_29  and  C_30
REMARK    8  A    between atoms: C_35  and  O_36
REMARK    9  A    between atoms: O_36  and  C_37
REMARK                            x       y       z     vdW  Elec       q    Type
REMARK                         _______ _______ _______ _____ _____    ______ ____
ROOT
ATOM      1  C   UNL     1       2.460   6.932   2.529  0.00  0.00    +0.061 C 
ATOM      2  C   UNL     1       2.416   6.165   1.233  0.00  0.00    +0.018 C 
ATOM      3  C   UNL     1       2.576   4.834   1.262  0.00  0.00    +0.060 C 
ATOM      4  C   UNL     1       2.537   3.974   0.027  0.00  0.00    +0.179 C 
ATOM      5  N   UNL     1       2.597   4.824  -1.160  0.00  0.00    -0.220 N 
ATOM      6  C   UNL     1       2.439   6.170  -1.127  0.00  0.00    +0.219 A 
ATOM      7  N   UNL     1       2.541   6.620  -2.348  0.00  0.00    -0.187 NA
ATOM      8  C   UNL     1       2.767   5.596  -3.185  0.00  0.00    +0.211 A 
ATOM      9  N   UNL     1       2.810   4.478  -2.493  0.00  0.00    -0.141 NA
ATOM     10  N   UNL     1       2.214   6.852   0.061  0.00  0.00    -0.287 N 
ATOM     11  H   UNL     1       1.887   7.902   0.088  0.00  0.00    +0.155 HD
ENDROOT
BRANCH   4  12
ATOM     12  C   UNL     1       1.258   3.177   0.009  0.00  0.00    -0.000 A 
ATOM     13  C   UNL     1       0.038   3.827   0.003  0.00  0.00    +0.007 A 
ATOM     14  C   UNL     1      -1.134   3.096  -0.012  0.00  0.00    +0.000 A 
ATOM     15  C   UNL     1      -1.088   1.714  -0.026  0.00  0.00    +0.001 A 
ATOM     16  C   UNL     1       0.131   1.063  -0.014  0.00  0.00    +0.020 A 
ATOM     17  C   UNL     1       1.305   1.794   0.001  0.00  0.00    +0.046 A 
ATOM     18 CL   UNL     1       2.837   0.977   0.010  0.00  0.00    -0.083 Cl
ENDBRANCH   4  12
BRANCH   3  19
ATOM     19  C   UNL     1       2.792   4.208   2.512  0.00  0.00    +0.248 C 
ATOM     20  O   UNL     1       3.906   3.820   2.815  0.00  0.00    -0.270 OA
ATOM     21  N   UNL     1       1.764   4.041   3.369  0.00  0.00    -0.279 N 
ATOM     22  H   UNL     1       0.742   4.306   3.059  0.00  0.00    +0.155 HD
BRANCH  21  23
ATOM     23  C   UNL     1       1.998   3.531   4.652  0.00  0.00    +0.076 A 
ATOM     24  C   UNL     1       3.178   3.833   5.316  0.00  0.00    +0.027 A 
ATOM     25  C   UNL     1       3.406   3.330   6.583  0.00  0.00    +0.002 A 
ATOM     26  C   UNL     1       2.460   2.525   7.191  0.00  0.00    +0.004 A 
ATOM     27  C   UNL     1       1.282   2.219   6.535  0.00  0.00    +0.047 A 
ATOM     28  C   UNL     1       1.044   2.724   5.267  0.00  0.00    +0.141 A 
BRANCH  28  29
ATOM     29  O   UNL     1      -0.117   2.429   4.623  0.00  0.00    -0.493 OA
ATOM     30  C   UNL     1      -1.049   1.595   5.315  0.00  0.00    +0.277 C 
ENDBRANCH  28  29
ENDBRANCH  21  23
ENDBRANCH   3  19
BRANCH   8  31
ATOM     31  S   UNL     1       2.975   5.729  -4.930  0.00  0.00    -0.080 S 
BRANCH  31  32
ATOM     32  C   UNL     1       2.808   7.505  -5.258  0.00  0.00    +0.112 C 
BRANCH  32  33
ATOM     33  C   UNL     1       2.967   7.760  -6.735  0.00  0.00    -0.037 A 
ATOM     34  C   UNL     1       4.219   8.021  -7.261  0.00  0.00    +0.004 A 
ATOM     35  C   UNL     1       4.365   8.250  -8.616  0.00  0.00    +0.000 A 
ATOM     36  C   UNL     1       3.259   8.228  -9.444  0.00  0.00    +0.000 A 
ATOM     37  C   UNL     1       2.006   7.972  -8.918  0.00  0.00    +0.000 A 
ATOM     38  C   UNL     1       1.860   7.738  -7.563  0.00  0.00    +0.004 A 
ENDBRANCH  32  33
ENDBRANCH  31  32
ENDBRANCH   8  31
TORSDOF 7
