REMARK  Name = ZINC58591710
REMARK  8 active torsions:
REMARK  status: ('A' for Active; 'I' for Inactive)
REMARK    1  A    between atoms: C_1  and  C_2
REMARK    2  A    between atoms: C_2  and  C_3
REMARK    3  A    between atoms: C_2  and  C_4
REMARK    4  A    between atoms: C_2  and  O_5
REMARK    5  A    between atoms: O_5  and  C_6
REMARK    6  A    between atoms: C_11  and  C_14
REMARK    7  A    between atoms: N_16  and  C_17
REMARK    8  A    between atoms: C_25  and  C_30
REMARK                            x       y       z     vdW  Elec       q    Type
REMARK                         _______ _______ _______ _____ _____    ______ ____
ROOT
ATOM      1  C   UNL     1       5.128  -3.407  -4.283  0.00  0.00    +0.217 C 
ATOM      2  O   UNL     1       4.653  -4.519  -4.185  0.00  0.00    -0.275 OA
ATOM      3  N   UNL     1       6.428  -3.256  -4.607  0.00  0.00    -0.308 N 
ATOM      4  H   UNL     1       6.808  -2.368  -4.686  0.00  0.00    +0.149 HD
ENDROOT
BRANCH   3   5
ATOM      5  C   UNL     1       7.266  -4.435  -4.842  0.00  0.00    +0.105 C 
ATOM      6  C   UNL     1       8.419  -4.056  -5.768  0.00  0.00    +0.027 C 
ATOM      7  C   UNL     1       9.401  -5.233  -5.818  0.00  0.00    +0.008 C 
ATOM      8  C   UNL     1      10.082  -5.344  -4.456  0.00  0.00    +0.054 C 
ATOM      9  C   UNL     1       9.060  -5.363  -3.347  0.00  0.00    +0.024 A 
ATOM     10  C   UNL     1       7.787  -4.944  -3.523  0.00  0.00    -0.007 A 
ATOM     11  C   UNL     1       6.887  -4.975  -2.448  0.00  0.00    +0.025 A 
ATOM     12  C   UNL     1       7.311  -5.440  -1.209  0.00  0.00    +0.101 A 
ATOM     13  C   UNL     1       8.655  -5.875  -1.074  0.00  0.00    +0.261 A 
ATOM     14  O   UNL     1       9.061  -6.292  -0.003  0.00  0.00    -0.267 OA
ATOM     15  N   UNL     1       9.475  -5.825  -2.133  0.00  0.00    -0.325 N 
ATOM     16  H   UNL     1      10.392  -6.127  -2.033  0.00  0.00    +0.169 HD
BRANCH  12  17
ATOM     17  C   UNL     1       6.389  -5.480  -0.064  0.00  0.00    +0.247 C 
ATOM     18  O   UNL     1       5.273  -5.007  -0.166  0.00  0.00    -0.270 OA
ATOM     19  N   UNL     1       6.780  -6.042   1.097  0.00  0.00    -0.325 N 
ATOM     20  H   UNL     1       7.693  -6.353   1.202  0.00  0.00    +0.145 HD
ATOM     21  H   UNL     1       6.149  -6.134   1.828  0.00  0.00    +0.145 HD
ENDBRANCH  12  17
ENDBRANCH   3   5
BRANCH   1  27
ATOM     22  C   UNL     1       1.899  -0.141  -1.386  0.00  0.00    +0.403 C 
ATOM     23  O   UNL     1       2.428   0.576  -0.559  0.00  0.00    -0.226 OA
ATOM     24  N   UNL     1       2.591  -0.544  -2.470  0.00  0.00    -0.267 N 
ATOM     25  C   UNL     1       1.964  -1.406  -3.481  0.00  0.00    +0.112 C 
ATOM     26  C   UNL     1       2.845  -2.641  -3.692  0.00  0.00    +0.032 C 
ATOM     27  C   UNL     1       4.266  -2.195  -4.041  0.00  0.00    +0.078 C 
ATOM     28  C   UNL     1       4.846  -1.380  -2.883  0.00  0.00    +0.032 C 
ATOM     29  C   UNL     1       3.986  -0.126  -2.666  0.00  0.00    +0.112 C 
BRANCH  22  30
ATOM     30  O   UNL     1       0.621  -0.532  -1.219  0.00  0.00    -0.445 OA
BRANCH  30  32
ATOM     31  C   UNL     1      -0.088   1.462  -0.053  0.00  0.00    +0.055 C 
ATOM     32  C   UNL     1      -0.052  -0.067  -0.048  0.00  0.00    +0.107 C 
ATOM     33  C   UNL     1       0.693  -0.555   1.196  0.00  0.00    +0.055 C 
ATOM     34  C   UNL     1      -1.482  -0.611  -0.032  0.00  0.00    +0.055 C 
ENDBRANCH  30  32
ENDBRANCH  22  30
ENDBRANCH   1  27
TORSDOF 5
