REMARK  Name = ZINC45843287
REMARK  9 active torsions:
REMARK  status: ('A' for Active; 'I' for Inactive)
REMARK    1  A    between atoms: C_2  and  C_3
REMARK    2  A    between atoms: C_3  and  N_4
REMARK    3  A    between atoms: N_7  and  C_8
REMARK    4  A    between atoms: C_11  and  N_14
REMARK    5  A    between atoms: C_15  and  C_17
REMARK    6  A    between atoms: C_17  and  C_18
REMARK    7  A    between atoms: C_18  and  C_19
REMARK    8  A    between atoms: C_22  and  S_25
REMARK    9  A    between atoms: S_25  and  N_28
REMARK                            x       y       z     vdW  Elec       q    Type
REMARK                         _______ _______ _______ _____ _____    ______ ____
ROOT
ATOM      1  N   UNL     1      -6.563  -6.926  -3.358  0.00  0.00    -0.285 N 
ATOM      2  C   UNL     1      -6.429  -7.866  -4.315  0.00  0.00    +0.218 C 
ATOM      3  O   UNL     1      -5.442  -7.877  -5.020  0.00  0.00    -0.275 OA
ATOM      4  H   UNL     1      -7.380  -6.875  -2.839  0.00  0.00    +0.155 HD
ENDROOT
BRANCH   1   8
ATOM      5  C   UNL     1      -3.464  -4.231  -2.634  0.00  0.00    +0.035 A 
ATOM      6  C   UNL     1      -3.713  -4.671  -3.927  0.00  0.00    +0.025 A 
ATOM      7  C   UNL     1      -4.739  -5.563  -4.167  0.00  0.00    +0.025 A 
ATOM      8  C   UNL     1      -5.521  -6.021  -3.115  0.00  0.00    +0.033 A 
ATOM      9  C   UNL     1      -5.272  -5.581  -1.822  0.00  0.00    +0.025 A 
ATOM     10  C   UNL     1      -4.243  -4.693  -1.581  0.00  0.00    +0.025 A 
BRANCH   5  14
ATOM     11  N   UNL     1      -0.647  -2.601  -1.059  0.00  0.00    -0.296 N 
ATOM     12  C   UNL     1      -1.707  -3.412  -1.252  0.00  0.00    +0.304 C 
ATOM     13  O   UNL     1      -2.017  -4.221  -0.399  0.00  0.00    -0.253 OA
ATOM     14  N   UNL     1      -2.423  -3.325  -2.390  0.00  0.00    -0.269 N 
ATOM     15  H   UNL     1      -0.400  -1.956  -1.740  0.00  0.00    +0.151 HD
ATOM     16  H   UNL     1      -2.218  -2.635  -3.041  0.00  0.00    +0.156 HD
BRANCH  11  17
ATOM     17  C   UNL     1       0.131  -2.695   0.178  0.00  0.00    +0.132 C 
BRANCH  17  19
ATOM     18  C   UNL     1       1.380  -0.818   1.115  0.00  0.00    +0.005 C 
ATOM     19  C   UNL     1       1.252  -1.688   0.144  0.00  0.00    -0.016 C 
ENDBRANCH  17  19
ENDBRANCH  11  17
ENDBRANCH   5  14
ENDBRANCH   1   8
BRANCH   2  20
ATOM     20  C   UNL     1      -7.504  -8.904  -4.507  0.00  0.00    +0.101 C 
BRANCH  20  21
ATOM     21  C   UNL     1      -7.108  -9.844  -5.647  0.00  0.00    +0.044 C 
BRANCH  21  22
ATOM     22  C   UNL     1      -8.183 -10.882  -5.839  0.00  0.00    -0.047 A 
ATOM     23  C   UNL     1      -8.127 -12.073  -5.140  0.00  0.00    +0.005 A 
ATOM     24  C   UNL     1      -9.113 -13.025  -5.316  0.00  0.00    +0.029 A 
ATOM     25  C   UNL     1     -10.156 -12.786  -6.191  0.00  0.00    +0.105 A 
ATOM     26  C   UNL     1     -10.213 -11.595  -6.890  0.00  0.00    +0.029 A 
ATOM     27  C   UNL     1      -9.229 -10.641  -6.710  0.00  0.00    +0.005 A 
BRANCH  25  28
ATOM     28  S   UNL     1     -11.413 -14.001  -6.417  0.00  0.00    +0.061 S 
ATOM     29  O   UNL     1     -11.983 -13.762  -7.696  0.00  0.00    -0.153 OA
ATOM     30  O   UNL     1     -10.838 -15.251  -6.060  0.00  0.00    -0.153 OA
BRANCH  28  31
ATOM     31  N   UNL     1     -12.599 -13.690  -5.304  0.00  0.00    -0.177 NA
ATOM     32  C   UNL     1     -12.510 -14.313  -4.003  0.00  0.00    +0.109 C 
ATOM     33  C   UNL     1     -13.224 -15.687  -4.035  0.00  0.00    +0.017 C 
ATOM     34  C   UNL     1     -14.681 -15.503  -4.120  0.00  0.00    +0.001 C 
ATOM     35  C   UNL     1     -15.153 -14.802  -5.390  0.00  0.00    +0.001 C 
ATOM     36  C   UNL     1     -15.070 -13.308  -5.197  0.00  0.00    +0.017 C 
ATOM     37  C   UNL     1     -13.701 -12.783  -5.680  0.00  0.00    +0.109 C 
ENDBRANCH  28  31
ENDBRANCH  25  28
ENDBRANCH  21  22
ENDBRANCH  20  21
ENDBRANCH   2  20
TORSDOF 9
