REMARK  Name = ZINC13149689
REMARK  9 active torsions:
REMARK  status: ('A' for Active; 'I' for Inactive)
REMARK    1  A    between atoms: C_1  and  N_2
REMARK    2  A    between atoms: N_2  and  C_3
REMARK    3  A    between atoms: N_2  and  C_22
REMARK    4  A    between atoms: C_3  and  C_4
REMARK    5  A    between atoms: N_6  and  C_7
REMARK    6  A    between atoms: C_11  and  S_13
REMARK    7  A    between atoms: S_13  and  N_16
REMARK    8  A    between atoms: C_22  and  C_23
REMARK    9  A    between atoms: N_25  and  C_26
REMARK                            x       y       z     vdW  Elec       q    Type
REMARK                         _______ _______ _______ _____ _____    ______ ____
ROOT
ATOM      1  C   UNL     1       4.943   1.501  -0.846  0.00  0.00    +0.201 C 
ATOM      2  O   UNL     1       4.701   0.342  -1.107  0.00  0.00    -0.278 OA
ATOM      3  N   UNL     1       6.215   1.944  -0.864  0.00  0.00    -0.287 N 
ATOM      4  H   UNL     1       6.443   2.975  -0.555  0.00  0.00    +0.155 HD
ENDROOT
BRANCH   3   5
ATOM      5  C   UNL     1       7.247   1.094  -1.275  0.00  0.00    +0.035 A 
ATOM      6  C   UNL     1       7.199  -0.259  -0.964  0.00  0.00    +0.023 A 
ATOM      7  C   UNL     1       8.216  -1.097  -1.376  0.00  0.00    +0.004 A 
ATOM      8  C   UNL     1       9.288  -0.589  -2.087  0.00  0.00    +0.029 A 
ATOM      9  C   UNL     1       9.341   0.758  -2.393  0.00  0.00    +0.114 A 
ATOM     10  C   UNL     1       8.325   1.601  -1.989  0.00  0.00    +0.052 A 
BRANCH   9  11
ATOM     11  S   UNL     1      10.709   1.401  -3.299  0.00  0.00    +0.100 S 
ATOM     12  O   UNL     1      11.258   0.314  -4.032  0.00  0.00    -0.146 OA
ATOM     13  O   UNL     1      10.256   2.592  -3.929  0.00  0.00    -0.146 OA
BRANCH  11  14
ATOM     14  N   UNL     1      11.857   1.856  -2.196  0.00  0.00    -0.118 NA
ATOM     15  C   UNL     1      12.465   0.912  -1.411  0.00  0.00    +0.117 C 
ATOM     16  N   UNL     1      12.211  -0.349  -1.458  0.00  0.00    -0.331 N 
ATOM     17  C   UNL     1      13.018  -1.116  -0.502  0.00  0.00    +0.103 C 
ATOM     18  C   UNL     1      13.570  -0.069   0.492  0.00  0.00    +0.026 C 
ATOM     19  C   UNL     1      13.528   1.213  -0.377  0.00  0.00    +0.074 C 
ATOM     20  H   UNL     1      11.491  -0.866  -2.110  0.00  0.00    +0.147 HD
ENDBRANCH  11  14
ENDBRANCH   9  11
ENDBRANCH   3   5
BRANCH   1  21
ATOM     21  C   UNL     1       3.820   2.446  -0.502  0.00  0.00    +0.019 C 
BRANCH  21  23
ATOM     22  C   UNL     1       2.472   0.702   0.500  0.00  0.00    -0.095 C 
ATOM     23  N   UNL     1       2.541   1.725  -0.552  0.00  0.00    +0.389 N 
ATOM     24  H   UNL     1       2.478   1.215  -1.524  0.00  0.00    -0.081 HD
BRANCH  23  25
ATOM     25  C   UNL     1       1.408   2.656  -0.457  0.00  0.00    +0.019 C 
BRANCH  25  26
ATOM     26  C   UNL     1       0.127   1.920  -0.755  0.00  0.00    +0.201 C 
ATOM     27  O   UNL     1       0.155   0.737  -1.022  0.00  0.00    -0.278 OA
ATOM     28  N   UNL     1      -1.049   2.578  -0.732  0.00  0.00    -0.286 N 
ATOM     29  H   UNL     1      -1.083   3.633  -0.422  0.00  0.00    +0.155 HD
BRANCH  28  30
ATOM     30  C   UNL     1      -2.227   1.919  -1.103  0.00  0.00    +0.047 A 
ATOM     31  C   UNL     1      -2.335   0.545  -0.941  0.00  0.00    +0.024 A 
ATOM     32  C   UNL     1      -3.501  -0.102  -1.302  0.00  0.00    +0.002 A 
ATOM     33  C   UNL     1      -4.556   0.616  -1.835  0.00  0.00    +0.001 A 
ATOM     34  C   UNL     1      -4.449   1.985  -2.003  0.00  0.00    +0.017 A 
ATOM     35  C   UNL     1      -3.288   2.639  -1.639  0.00  0.00    +0.039 A 
ATOM     36 BR   UNL     1      -3.142   4.510  -1.870  0.00  0.00    -0.048 Br
ENDBRANCH  28  30
ENDBRANCH  25  26
ENDBRANCH  23  25
ENDBRANCH  21  23
ENDBRANCH   1  21
TORSDOF 8
