REMARK  Name = ZINC12292738
REMARK  13 active torsions:
REMARK  status: ('A' for Active; 'I' for Inactive)
REMARK    1  A    between atoms: C_1  and  C_2
REMARK    2  A    between atoms: C_5  and  O_8
REMARK    3  A    between atoms: O_8  and  C_9
REMARK    4  A    between atoms: C_9  and  C_11
REMARK    5  A    between atoms: C_9  and  C_12
REMARK    6  A    between atoms: N_14  and  N_15
REMARK    7  A    between atoms: C_16  and  C_18
REMARK    8  A    between atoms: C_21  and  N_24
REMARK    9  A    between atoms: C_25  and  C_27
REMARK   10  A    between atoms: C_30  and  C_33
REMARK   11  A    between atoms: C_33  and  C_34
REMARK   12  A    between atoms: C_33  and  C_35
REMARK   13  A    between atoms: C_33  and  C_36
REMARK                            x       y       z     vdW  Elec       q    Type
REMARK                         _______ _______ _______ _____ _____    ______ ____
ROOT
ATOM      1  C   UNL     1       3.477   4.101  -0.490  0.00  0.00    +0.038 A 
ATOM      2  C   UNL     1       2.144   4.521  -0.500  0.00  0.00    +0.015 A 
ATOM      3  C   UNL     1       1.144   3.624  -0.800  0.00  0.00    +0.024 A 
ATOM      4  C   UNL     1       1.459   2.301  -1.094  0.00  0.00    +0.034 A 
ATOM      5  C   UNL     1       2.784   1.878  -1.079  0.00  0.00    +0.024 A 
ATOM      6  C   UNL     1       3.790   2.771  -0.785  0.00  0.00    +0.015 A 
ENDROOT
BRANCH   1   8
ATOM      7  N   UNL     1       5.837   4.653  -0.159  0.00  0.00    -0.230 N 
ATOM      8  C   UNL     1       4.552   5.060  -0.168  0.00  0.00    +0.260 C 
ATOM      9  O   UNL     1       4.279   6.216   0.088  0.00  0.00    -0.269 OA
ATOM     10  H   UNL     1       6.055   3.730  -0.363  0.00  0.00    +0.173 HD
BRANCH   7  13
ATOM     11  C   UNL     1       8.143   5.157   0.156  0.00  0.00    +0.270 C 
ATOM     12  O   UNL     1       8.415   4.003  -0.100  0.00  0.00    -0.270 OA
ATOM     13  N   UNL     1       6.858   5.563   0.146  0.00  0.00    -0.231 N 
ATOM     14  H   UNL     1       6.639   6.486   0.351  0.00  0.00    +0.173 HD
BRANCH  11  15
ATOM     15  C   UNL     1       9.240   6.136   0.484  0.00  0.00    +0.257 C 
ATOM     16  C   UNL     1       9.303   7.214  -0.600  0.00  0.00    +0.062 C 
BRANCH  15  17
ATOM     17  O   UNL     1      10.491   5.447   0.544  0.00  0.00    -0.480 OA
BRANCH  17  22
ATOM     18  C   UNL     1      14.539   7.763   3.702  0.00  0.00    +0.044 C 
ATOM     19  C   UNL     1      13.456   7.143   2.857  0.00  0.00    -0.050 A 
ATOM     20  C   UNL     1      12.263   7.815   2.662  0.00  0.00    +0.007 A 
ATOM     21  C   UNL     1      11.268   7.249   1.888  0.00  0.00    +0.046 A 
ATOM     22  C   UNL     1      11.467   6.005   1.306  0.00  0.00    +0.122 A 
ATOM     23  C   UNL     1      12.663   5.331   1.507  0.00  0.00    +0.046 A 
ATOM     24  C   UNL     1      13.657   5.904   2.277  0.00  0.00    +0.007 A 
ENDBRANCH  17  22
ENDBRANCH  15  17
ENDBRANCH  11  15
ENDBRANCH   7  13
ENDBRANCH   1   8
BRANCH   4  25
ATOM     25  N   UNL     1       0.444   1.396  -1.398  0.00  0.00    -0.282 N 
ATOM     26  C   UNL     1       0.668   0.405  -2.283  0.00  0.00    +0.248 C 
ATOM     27  O   UNL     1       1.723   0.353  -2.885  0.00  0.00    -0.270 OA
ATOM     28  H   UNL     1      -0.425   1.482  -0.976  0.00  0.00    +0.155 HD
BRANCH  26  29
ATOM     29  C   UNL     1      -0.370  -0.621  -2.523  0.00  0.00    +0.037 A 
ATOM     30  C   UNL     1      -1.580  -0.568  -1.829  0.00  0.00    +0.013 A 
ATOM     31  C   UNL     1      -2.546  -1.526  -2.061  0.00  0.00    +0.005 A 
ATOM     32  C   UNL     1      -2.313  -2.542  -2.970  0.00  0.00    -0.042 A 
ATOM     33  C   UNL     1      -1.113  -2.603  -3.657  0.00  0.00    +0.005 A 
ATOM     34  C   UNL     1      -0.141  -1.649  -3.439  0.00  0.00    +0.013 A 
BRANCH  32  35
ATOM     35  C   UNL     1      -3.370  -3.588  -3.213  0.00  0.00    -0.013 C 
ATOM     36  C   UNL     1      -2.811  -4.969  -2.865  0.00  0.00    +0.015 C 
ATOM     37  C   UNL     1      -4.589  -3.295  -2.337  0.00  0.00    +0.015 C 
ATOM     38  C   UNL     1      -3.783  -3.563  -4.686  0.00  0.00    +0.015 C 
ENDBRANCH  32  35
ENDBRANCH  26  29
ENDBRANCH   4  25
TORSDOF 8
