REMARK  Name = ZINC08790256
REMARK  7 active torsions:
REMARK  status: ('A' for Active; 'I' for Inactive)
REMARK    1  A    between atoms: C_1  and  C_2
REMARK    2  A    between atoms: C_17  and  C_19
REMARK    3  A    between atoms: C_19  and  C_20
REMARK    4  A    between atoms: C_23  and  O_26
REMARK    5  A    between atoms: N_29  and  C_32
REMARK    6  A    between atoms: C_32  and  C_33
REMARK    7  A    between atoms: C_33  and  C_34
REMARK                            x       y       z     vdW  Elec       q    Type
REMARK                         _______ _______ _______ _____ _____    ______ ____
ROOT
ATOM      1  C   UNL     1       7.597   5.711   3.145  0.00  0.00    +0.044 C 
ATOM      2  C   UNL     1       6.314   5.288   3.812  0.00  0.00    -0.049 A 
ATOM      3  C   UNL     1       5.134   5.256   3.090  0.00  0.00    +0.008 A 
ATOM      4  C   UNL     1       3.962   4.871   3.700  0.00  0.00    -0.026 A 
ATOM      5  C   UNL     1       3.947   4.512   5.045  0.00  0.00    +0.054 A 
ATOM      6  C   UNL     1       5.139   4.546   5.765  0.00  0.00    +0.063 A 
ATOM      7  C   UNL     1       6.313   4.933   5.148  0.00  0.00    +0.025 A 
ATOM      8 CL   UNL     1       5.150   4.101   7.443  0.00  0.00    -0.082 Cl
ATOM      9  N   UNL     1       2.652   4.164   5.438  0.00  0.00    -0.285 N 
ATOM     10  C   UNL     1       1.770   4.268   4.426  0.00  0.00    +0.211 C 
ATOM     11  O   UNL     1       0.580   4.036   4.476  0.00  0.00    -0.277 OA
ATOM     12  C   UNL     1       2.545   4.728   3.222  0.00  0.00    +0.050 C 
ATOM     13  C   UNL     1       1.998   6.051   2.674  0.00  0.00    +0.088 C 
ATOM     14  C   UNL     1       1.082   5.637   1.489  0.00  0.00    +0.073 C 
ATOM     15  C   UNL     1       1.153   4.095   1.456  0.00  0.00    -0.053 C 
ATOM     16  C   UNL     1      -0.295   6.060   1.949  0.00  0.00    +0.224 C 
ATOM     17  O   UNL     1      -1.319   5.920   1.315  0.00  0.00    -0.275 OA
ATOM     18  N   UNL     1      -0.207   6.612   3.165  0.00  0.00    -0.241 N 
ATOM     19  C   UNL     1       1.032   6.657   3.667  0.00  0.00    +0.225 C 
ATOM     20  O   UNL     1       1.334   7.113   4.748  0.00  0.00    -0.275 OA
ATOM     21  H   UNL     1       2.417   3.881   6.335  0.00  0.00    +0.155 HD
ATOM     22  N   UNL     1       2.419   3.785   2.124  0.00  0.00    +0.394 N 
ATOM     23  H   UNL     1       2.405   2.823   2.483  0.00  0.00    -0.083 HD
ATOM     24  H   UNL     1       3.202   3.895   1.470  0.00  0.00    -0.083 HD
ENDROOT
BRANCH  15  25
ATOM     25  C   UNL     1       1.147   3.593   0.011  0.00  0.00    +0.020 C 
BRANCH  25  26
ATOM     26  C   UNL     1       1.171   2.086   0.002  0.00  0.00    -0.049 A 
ATOM     27  C   UNL     1      -0.017   1.377   0.010  0.00  0.00    +0.007 A 
ATOM     28  C   UNL     1       0.002  -0.004   0.002  0.00  0.00    +0.045 A 
ATOM     29  C   UNL     1       1.213  -0.680  -0.013  0.00  0.00    +0.117 A 
ATOM     30  C   UNL     1       2.403   0.033  -0.021  0.00  0.00    +0.045 A 
ATOM     31  C   UNL     1       2.379   1.415  -0.013  0.00  0.00    +0.007 A 
BRANCH  29  32
ATOM     32  O   UNL     1       1.234  -2.039  -0.020  0.00  0.00    -0.507 OA
ATOM     33  H   UNL     1       1.232  -2.428  -0.906  0.00  0.00    +0.292 HD
ENDBRANCH  29  32
ENDBRANCH  25  26
ENDBRANCH  15  25
BRANCH  18  34
ATOM     34  C   UNL     1      -1.374   7.124   3.888  0.00  0.00    +0.121 C 
BRANCH  34  35
ATOM     35  C   UNL     1      -1.584   8.598   3.538  0.00  0.00    +0.054 C 
BRANCH  35  36
ATOM     36  C   UNL     1      -2.784   9.125   4.282  0.00  0.00    -0.046 A 
ATOM     37  C   UNL     1      -4.039   9.055   3.708  0.00  0.00    +0.004 A 
ATOM     38  C   UNL     1      -5.140   9.534   4.392  0.00  0.00    +0.000 A 
ATOM     39  C   UNL     1      -4.985  10.092   5.647  0.00  0.00    +0.000 A 
ATOM     40  C   UNL     1      -3.729  10.167   6.220  0.00  0.00    +0.000 A 
ATOM     41  C   UNL     1      -2.628   9.684   5.537  0.00  0.00    +0.004 A 
ENDBRANCH  35  36
ENDBRANCH  34  35
ENDBRANCH  18  34
TORSDOF 6
