REMARK  Name = ZINC59098334
REMARK  11 active torsions:
REMARK  status: ('A' for Active; 'I' for Inactive)
REMARK    1  A    between atoms: C_1  and  C_2
REMARK    2  A    between atoms: C_3  and  N_9
REMARK    3  A    between atoms: N_9  and  C_10
REMARK    4  A    between atoms: C_10  and  N_12
REMARK    5  A    between atoms: N_12  and  C_13
REMARK    6  A    between atoms: N_12  and  C_20
REMARK    7  A    between atoms: C_13  and  C_14
REMARK    8  A    between atoms: C_22  and  C_28
REMARK    9  A    between atoms: C_22  and  C_29
REMARK   10  A    between atoms: C_24  and  C_26
REMARK   11  A    between atoms: C_24  and  C_27
REMARK                            x       y       z     vdW  Elec       q    Type
REMARK                         _______ _______ _______ _____ _____    ______ ____
ROOT
ATOM      1  N   UNL     1       0.091   0.076  -4.756  0.00  0.00    -0.304 N 
ENDROOT
BRANCH   1   2
ATOM      2  C   UNL     1       0.155   1.542  -4.734  0.00  0.00    +0.073 C 
ATOM      3  C   UNL     1      -1.123   2.092  -4.098  0.00  0.00    +0.009 C 
ATOM      4  C   UNL     1      -1.067   3.618  -4.056  0.00  0.00    -0.072 C 
ATOM      5  N   UNL     1       0.137   4.105  -3.399  0.00  0.00    +0.386 N 
ATOM      6  C   UNL     1       1.405   3.503  -3.780  0.00  0.00    -0.072 C 
ATOM      7  C   UNL     1       1.343   1.982  -3.879  0.00  0.00    +0.009 C 
ATOM      8  C   UNL     1       1.940   4.090  -5.088  0.00  0.00    -0.010 C 
ATOM      9  C   UNL     1       2.433   3.849  -2.676  0.00  0.00    -0.010 C 
ATOM     10  C   UNL     1      -2.279   4.100  -3.226  0.00  0.00    -0.010 C 
ATOM     11  C   UNL     1      -1.225   4.191  -5.464  0.00  0.00    -0.010 C 
ATOM     12  H   UNL     1       0.201   5.114  -3.551  0.00  0.00    -0.084 HD
ATOM     13  H   UNL     1       0.018   3.993  -2.389  0.00  0.00    -0.084 HD
ENDBRANCH   1   2
BRANCH   1  14
ATOM     14  C   UNL     1       0.070  -0.615  -3.599  0.00  0.00    +0.138 C 
ATOM     15  S   UNL     1       0.102  -2.327  -3.623  0.00  0.00    -0.018 S 
BRANCH  14  16
ATOM     16  N   UNL     1       0.023   0.041  -2.422  0.00  0.00    -0.296 N 
ATOM     17  H   UNL     1      -0.071   1.006  -2.409  0.00  0.00    +0.154 HD
BRANCH  16  20
ATOM     18  C   UNL     1       1.908   0.917  -0.479  0.00  0.00    +0.047 C 
ATOM     19  C   UNL     1       1.018  -0.276  -0.245  0.00  0.00    -0.011 A 
ATOM     20  C   UNL     1       0.112  -0.670  -1.221  0.00  0.00    +0.037 A 
ATOM     21  C   UNL     1      -0.707  -1.770  -1.002  0.00  0.00    +0.023 A 
ATOM     22  C   UNL     1      -0.618  -2.470   0.186  0.00  0.00    +0.003 A 
ATOM     23  C   UNL     1       0.284  -2.076   1.157  0.00  0.00    +0.020 A 
ATOM     24  C   UNL     1       1.105  -0.983   0.940  0.00  0.00    +0.046 A 
ATOM     25 CL   UNL     1       2.242  -0.497   2.158  0.00  0.00    -0.083 Cl
ENDBRANCH  16  20
ENDBRANCH  14  16
ENDBRANCH   1  14
BRANCH   1  26
ATOM     26  C   UNL     1       0.050  -0.637  -6.035  0.00  0.00    +0.162 C 
BRANCH  26  27
ATOM     27  C   UNL     1      -1.384  -0.819  -6.463  0.00  0.00    +0.058 A 
ATOM     28  C   UNL     1      -1.959   0.090  -7.331  0.00  0.00    +0.025 A 
ATOM     29  C   UNL     1      -3.278  -0.087  -7.718  0.00  0.00    +0.003 A 
ATOM     30  C   UNL     1      -3.973  -1.177  -7.215  0.00  0.00    +0.020 A 
ATOM     31  C   UNL     1      -3.332  -2.044  -6.352  0.00  0.00    +0.111 A 
ATOM     32  N   UNL     1      -2.073  -1.847  -6.009  0.00  0.00    -0.258 NA
ENDBRANCH  26  27
ENDBRANCH   1  26
TORSDOF 6
