REMARK  Name = ZINC63746633
REMARK  7 active torsions:
REMARK  status: ('A' for Active; 'I' for Inactive)
REMARK    1  A    between atoms: C_1  and  C_2
REMARK    2  A    between atoms: C_5  and  N_9
REMARK    3  A    between atoms: C_6  and  C_8
REMARK    4  A    between atoms: N_12  and  C_13
REMARK    5  A    between atoms: C_15  and  C_37
REMARK    6  A    between atoms: C_18  and  C_31
REMARK    7  A    between atoms: C_19  and  C_23
REMARK                            x       y       z     vdW  Elec       q    Type
REMARK                         _______ _______ _______ _____ _____    ______ ____
ROOT
ATOM      1  C   UNL     1      -0.421  -6.831  -1.685  0.00  0.00    +0.059 A 
ATOM      2  C   UNL     1      -0.420  -5.936  -2.709  0.00  0.00    +0.028 A 
ATOM      3  C   UNL     1      -0.253  -6.337  -4.038  0.00  0.00    -0.048 A 
ATOM      4  C   UNL     1      -0.084  -7.632  -4.389  0.00  0.00    +0.013 A 
ATOM      5  C   UNL     1      -0.069  -8.646  -3.400  0.00  0.00    +0.006 A 
ATOM      6  C   UNL     1       0.083 -10.020  -3.468  0.00  0.00    -0.000 C 
ATOM      7  C   UNL     1       0.001 -10.511  -2.039  0.00  0.00    +0.198 C 
ATOM      8  N   UNL     1      -0.202  -9.318  -1.212  0.00  0.00    -0.368 N 
ATOM      9  C   UNL     1      -0.235  -8.259  -1.985  0.00  0.00    +0.065 A 
ATOM     10  C   UNL     1      -0.263  -5.287  -5.120  0.00  0.00    +0.044 C 
ATOM     11  H   UNL     1      -0.293  -9.312  -0.246  0.00  0.00    +0.161 HD
ENDROOT
BRANCH   7  12
ATOM     12  C   UNL     1       1.285 -11.199  -1.653  0.00  0.00    +0.243 C 
ATOM     13  O   UNL     1       2.184 -10.565  -1.144  0.00  0.00    -0.273 OA
ATOM     14  N   UNL     1       1.435 -12.521  -1.874  0.00  0.00    -0.295 N 
ATOM     15  C   UNL     1       0.411 -13.287  -2.602  0.00  0.00    +0.136 C 
ATOM     16  C   UNL     1       1.103 -14.085  -3.712  0.00  0.00    +0.179 C 
ATOM     17  O   UNL     1       2.180 -14.839  -3.150  0.00  0.00    -0.377 OA
ATOM     18  C   UNL     1       3.211 -14.040  -2.565  0.00  0.00    +0.179 C 
ATOM     19  C   UNL     1       2.629 -13.238  -1.400  0.00  0.00    +0.136 C 
ENDBRANCH   7  12
BRANCH   1  23
ATOM     20  N   UNL     1      -0.173  -4.833   1.314  0.00  0.00    -0.269 N 
ATOM     21  C   UNL     1      -0.101  -5.204   0.020  0.00  0.00    +0.308 C 
ATOM     22  O   UNL     1       0.406  -4.461  -0.798  0.00  0.00    -0.252 OA
ATOM     23  N   UNL     1      -0.590  -6.399  -0.366  0.00  0.00    -0.267 N 
ATOM     24  H   UNL     1      -0.509  -5.454   1.979  0.00  0.00    +0.156 HD
ATOM     25  H   UNL     1      -1.060  -6.960   0.271  0.00  0.00    +0.156 HD
BRANCH  20  30
ATOM     26  C   UNL     1       1.490   0.363   2.869  0.00  0.00    +0.044 C 
ATOM     27  C   UNL     1       1.048  -1.017   2.456  0.00  0.00    -0.050 A 
ATOM     28  C   UNL     1       1.689  -1.664   1.415  0.00  0.00    +0.005 A 
ATOM     29  C   UNL     1       1.287  -2.929   1.034  0.00  0.00    +0.024 A 
ATOM     30  C   UNL     1       0.238  -3.551   1.698  0.00  0.00    +0.038 A 
ATOM     31  C   UNL     1      -0.404  -2.899   2.742  0.00  0.00    -0.029 A 
ATOM     32  C   UNL     1       0.006  -1.636   3.122  0.00  0.00    +0.008 A 
ATOM     33  C   UNL     1      -1.544  -3.571   3.464  0.00  0.00    +0.045 C 
ENDBRANCH  20  30
ENDBRANCH   1  23
BRANCH   6  34
ATOM     34  C   UNL     1       0.280 -10.829  -4.672  0.00  0.00    -0.019 A 
ATOM     35  C   UNL     1      -0.718 -11.718  -5.096  0.00  0.00    +0.008 A 
ATOM     36  C   UNL     1      -0.523 -12.476  -6.230  0.00  0.00    +0.001 A 
ATOM     37  C   UNL     1       0.654 -12.362  -6.950  0.00  0.00    +0.000 A 
ATOM     38  C   UNL     1       1.645 -11.487  -6.539  0.00  0.00    +0.001 A 
ATOM     39  C   UNL     1       1.466 -10.716  -5.411  0.00  0.00    +0.008 A 
ENDBRANCH   6  34
TORSDOF 4
