REMARK  Name = ZINC23356571
REMARK  11 active torsions:
REMARK  status: ('A' for Active; 'I' for Inactive)
REMARK    1  A    between atoms: C_1  and  C_2
REMARK    2  A    between atoms: C_2  and  C_4
REMARK    3  A    between atoms: C_2  and  N_14
REMARK    4  A    between atoms: N_9  and  C_10
REMARK    5  A    between atoms: C_10  and  C_11
REMARK    6  A    between atoms: C_10  and  C_12
REMARK    7  A    between atoms: C_10  and  C_13
REMARK    8  A    between atoms: N_17  and  C_20
REMARK    9  A    between atoms: C_20  and  C_21
REMARK   10  A    between atoms: N_23  and  C_24
REMARK   11  A    between atoms: C_28  and  C_30
REMARK                            x       y       z     vdW  Elec       q    Type
REMARK                         _______ _______ _______ _____ _____    ______ ____
ROOT
ATOM      1  N   UNL     1      -1.374  -0.512   0.005  0.00  0.00    -0.295 NA
ATOM      2  C   UNL     1      -2.138   0.054   1.126  0.00  0.00    +0.066 C 
ATOM      3  C   UNL     1      -3.545  -0.548   1.135  0.00  0.00    -0.063 C 
ATOM      4  N   UNL     1      -4.215  -0.247  -0.137  0.00  0.00    +0.387 N 
ATOM      5  C   UNL     1      -3.453  -0.839  -1.245  0.00  0.00    -0.063 C 
ATOM      6  C   UNL     1      -2.046  -0.240  -1.274  0.00  0.00    +0.066 C 
ATOM      7  H   UNL     1      -4.267   0.753  -0.261  0.00  0.00    -0.081 HD
ENDROOT
BRANCH   1   9
ATOM      8  C   UNL     1      -0.021   1.529   0.014  0.00  0.00    +0.034 C 
ATOM      9  C   UNL     1       0.003  -0.001  -0.004  0.00  0.00    +0.140 C 
BRANCH   9  10
ATOM     10  C   UNL     1       0.735  -0.506   1.212  0.00  0.00    +0.237 C 
ATOM     11  O   UNL     1       0.165  -1.222   2.008  0.00  0.00    -0.274 OA
ATOM     12  N   UNL     1       2.022  -0.163   1.415  0.00  0.00    -0.239 N 
ATOM     13  C   UNL     1       2.676  -0.616   2.503  0.00  0.00    +0.306 C 
ATOM     14  O   UNL     1       2.106  -1.333   3.301  0.00  0.00    -0.252 OA
ATOM     15  N   UNL     1       3.964  -0.273   2.706  0.00  0.00    -0.294 N 
ATOM     16  H   UNL     1       2.478   0.409   0.778  0.00  0.00    +0.159 HD
ATOM     17  H   UNL     1       4.420   0.300   2.070  0.00  0.00    +0.151 HD
BRANCH  15  18
ATOM     18  C   UNL     1       4.675  -0.764   3.889  0.00  0.00    +0.028 C 
ATOM     19  C   UNL     1       4.699  -2.294   3.870  0.00  0.00    +0.031 C 
ATOM     20  C   UNL     1       6.110  -0.232   3.879  0.00  0.00    +0.031 C 
ATOM     21  C   UNL     1       3.960  -0.281   5.152  0.00  0.00    +0.031 C 
ENDBRANCH  15  18
ENDBRANCH   9  10
ENDBRANCH   1   9
BRANCH   4  22
ATOM     22  C   UNL     1      -5.572  -0.809  -0.121  0.00  0.00    +0.019 C 
BRANCH  22  23
ATOM     23  C   UNL     1      -6.301  -0.396  -1.373  0.00  0.00    +0.201 C 
ATOM     24  O   UNL     1      -5.745   0.298  -2.199  0.00  0.00    -0.278 OA
ATOM     25  N   UNL     1      -7.572  -0.798  -1.577  0.00  0.00    -0.287 N 
ATOM     26  H   UNL     1      -7.994  -1.408  -0.951  0.00  0.00    +0.155 HD
BRANCH  25  27
ATOM     27  C   UNL     1      -8.282  -0.337  -2.691  0.00  0.00    +0.034 A 
ATOM     28  C   UNL     1      -7.624  -0.124  -3.896  0.00  0.00    +0.025 A 
ATOM     29  C   UNL     1      -8.327   0.332  -4.994  0.00  0.00    +0.022 A 
ATOM     30  C   UNL     1      -9.686   0.576  -4.894  0.00  0.00    +0.053 A 
ATOM     31  C   UNL     1     -10.343   0.365  -3.695  0.00  0.00    +0.075 A 
ATOM     32  C   UNL     1      -9.646  -0.097  -2.596  0.00  0.00    +0.037 A 
ATOM     33 CL   UNL     1     -10.567   1.150  -6.276  0.00  0.00    -0.083 Cl
BRANCH  31  34
ATOM     34  C   UNL     1     -11.823   0.632  -3.591  0.00  0.00    +0.419 C 
ATOM     35  F   UNL     1     -12.257   0.347  -2.292  0.00  0.00    -0.166 F 
ATOM     36  F   UNL     1     -12.075   1.977  -3.882  0.00  0.00    -0.166 F 
ATOM     37  F   UNL     1     -12.509  -0.179  -4.500  0.00  0.00    -0.166 F 
ENDBRANCH  31  34
ENDBRANCH  25  27
ENDBRANCH  22  23
ENDBRANCH   4  22
TORSDOF 7
