REMARK  Name = ZINC67128718
REMARK  8 active torsions:
REMARK  status: ('A' for Active; 'I' for Inactive)
REMARK    1  A    between atoms: C_1  and  C_2
REMARK    2  A    between atoms: C_2  and  C_3
REMARK    3  A    between atoms: C_2  and  C_4
REMARK    4  A    between atoms: C_4  and  N_5
REMARK    5  A    between atoms: C_6  and  C_8
REMARK    6  A    between atoms: C_8  and  N_9
REMARK    7  A    between atoms: C_11  and  O_19
REMARK    8  A    between atoms: C_14  and  C_16
REMARK                            x       y       z     vdW  Elec       q    Type
REMARK                         _______ _______ _______ _____ _____    ______ ____
ROOT
ATOM      1  N   UNL     1       0.395  -0.589   6.088  0.00  0.00    +0.395 N 
ATOM      2  C   UNL     1       1.657   0.160   6.271  0.00  0.00    -0.045 C 
ATOM      3  C   UNL     1       1.873   0.320   7.787  0.00  0.00    +0.097 C 
ATOM      4  C   UNL     1       0.645  -0.353   8.442  0.00  0.00    +0.023 C 
ATOM      5  C   UNL     1      -0.410  -0.328   7.308  0.00  0.00    +0.022 C 
ATOM      6  H   UNL     1       0.585  -1.576   6.001  0.00  0.00    -0.080 HD
ENDROOT
BRANCH   5   7
ATOM      7  C   UNL     1      -1.435  -1.414   7.511  0.00  0.00    +0.197 C 
ATOM      8  O   UNL     1      -1.508  -2.334   6.724  0.00  0.00    -0.278 OA
ATOM      9  N   UNL     1      -2.271  -1.363   8.568  0.00  0.00    -0.331 N 
ATOM     10  H   UNL     1      -2.213  -0.627   9.197  0.00  0.00    +0.145 HD
ATOM     11  H   UNL     1      -2.931  -2.062   8.698  0.00  0.00    +0.145 HD
ENDBRANCH   5   7
BRANCH   3  12
ATOM     12  O   UNL     1       3.075  -0.338   8.190  0.00  0.00    -0.394 OA
ATOM     13  H   UNL     1       3.263  -0.270   9.136  0.00  0.00    +0.210 HD
ENDBRANCH   3  12
BRANCH   1  14
ATOM     14  C   UNL     1      -0.315  -0.103   4.898  0.00  0.00    +0.020 C 
BRANCH  14  16
ATOM     15  N   UNL     1      -0.008  -0.140   2.444  0.00  0.00    -0.317 N 
ATOM     16  C   UNL     1       0.457  -0.484   3.661  0.00  0.00    +0.196 C 
ATOM     17  O   UNL     1       1.496  -1.101   3.761  0.00  0.00    -0.278 OA
ATOM     18  H   UNL     1      -0.840   0.353   2.364  0.00  0.00    +0.149 HD
BRANCH  15  19
ATOM     19  C   UNL     1       0.742  -0.511   1.242  0.00  0.00    +0.107 C 
BRANCH  19  21
ATOM     20  C   UNL     1      -0.019   1.526   0.010  0.00  0.00    +0.009 C 
ATOM     21  C   UNL     1       0.002  -0.004   0.002  0.00  0.00    -0.000 C 
ATOM     22  C   UNL     1       0.718  -0.497  -1.257  0.00  0.00    +0.009 C 
ENDBRANCH  19  21
ENDBRANCH  15  19
ENDBRANCH  14  16
ENDBRANCH   1  14
TORSDOF 6
