REMARK  Name = ZINC25682621
REMARK  11 active torsions:
REMARK  status: ('A' for Active; 'I' for Inactive)
REMARK    1  A    between atoms: C_1  and  C_2
REMARK    2  A    between atoms: C_2  and  C_3
REMARK    3  A    between atoms: C_3  and  C_4
REMARK    4  A    between atoms: C_4  and  N_5
REMARK    5  A    between atoms: C_6  and  N_34
REMARK    6  A    between atoms: C_7  and  N_14
REMARK    7  A    between atoms: N_14  and  C_15
REMARK    8  A    between atoms: C_20  and  C_22
REMARK    9  A    between atoms: C_22  and  N_23
REMARK   10  A    between atoms: N_26  and  C_29
REMARK   11  A    between atoms: C_29  and  C_30
REMARK                            x       y       z     vdW  Elec       q    Type
REMARK                         _______ _______ _______ _____ _____    ______ ____
ROOT
ATOM      1  N   UNL     1       2.415   1.613  -1.272  0.00  0.00    -0.263 N 
ATOM      2  C   UNL     1       3.665   2.107  -1.389  0.00  0.00    +0.204 C 
ATOM      3  O   UNL     1       3.842   3.306  -1.432  0.00  0.00    -0.277 OA
ENDROOT
BRANCH   1   6
ATOM      4  N   UNL     1      -0.110   3.993  -2.482  0.00  0.00    -0.280 N 
ATOM      5  C   UNL     1       0.977   3.150  -2.474  0.00  0.00    +0.127 A 
ATOM      6  C   UNL     1       1.306   2.484  -1.311  0.00  0.00    +0.140 A 
ATOM      7  C   UNL     1       0.515   2.689  -0.165  0.00  0.00    +0.277 A 
ATOM      8  O   UNL     1       0.783   2.113   0.876  0.00  0.00    -0.266 OA
ATOM      9  N   UNL     1      -0.542   3.522  -0.227  0.00  0.00    -0.273 N 
ATOM     10  H   UNL     1      -1.170   3.680   0.663  0.00  0.00    +0.173 HD
ATOM     11  C   UNL     1      -0.845   4.166  -1.368  0.00  0.00    +0.331 A 
ATOM     12  O   UNL     1      -1.802   4.915  -1.395  0.00  0.00    -0.246 OA
BRANCH   5  13
ATOM     13  N   UNL     1       1.727   2.973  -3.612  0.00  0.00    -0.343 N 
ATOM     14  H   UNL     1       2.595   2.297  -3.599  0.00  0.00    +0.144 HD
ATOM     15  H   UNL     1       1.459   3.506  -4.536  0.00  0.00    +0.144 HD
ENDBRANCH   5  13
BRANCH   4  16
ATOM     16  C   UNL     1      -0.470   4.706  -3.709  0.00  0.00    +0.128 C 
BRANCH  16  17
ATOM     17  C   UNL     1      -1.445   3.855  -4.526  0.00  0.00    +0.021 C 
BRANCH  17  19
ATOM     18  C   UNL     1      -2.796   3.750  -6.626  0.00  0.00    +0.004 C 
ATOM     19  C   UNL     1      -1.821   4.600  -5.809  0.00  0.00    -0.002 C 
ENDBRANCH  17  19
ENDBRANCH  16  17
ENDBRANCH   4  16
ENDBRANCH   1   6
BRANCH   1  20
ATOM     20  C   UNL     1       2.209   0.172  -1.104  0.00  0.00    +0.082 C 
ATOM     21  C   UNL     1       2.889  -0.312   0.193  0.00  0.00    +0.023 C 
ATOM     22  C   UNL     1       3.448  -1.710  -0.171  0.00  0.00    +0.002 C 
ATOM     23  C   UNL     1       3.935  -1.516  -1.629  0.00  0.00    +0.002 C 
ATOM     24  C   UNL     1       2.873  -0.594  -2.262  0.00  0.00    +0.023 C 
ENDBRANCH   1  20
BRANCH   2  25
ATOM     25  C   UNL     1       4.842   1.168  -1.466  0.00  0.00    +0.019 C 
BRANCH  25  26
ATOM     26  N   UNL     1       6.088   1.946  -1.487  0.00  0.00    +0.387 N 
ATOM     27  C   UNL     1       6.194   2.736  -2.721  0.00  0.00    -0.063 C 
ATOM     28  C   UNL     1       7.463   3.590  -2.669  0.00  0.00    +0.066 C 
ATOM     29  N   UNL     1       8.633   2.716  -2.506  0.00  0.00    -0.298 NA
ATOM     30  C   UNL     1       8.526   1.925  -1.271  0.00  0.00    +0.066 C 
ATOM     31  C   UNL     1       7.257   1.071  -1.323  0.00  0.00    -0.063 C 
ATOM     32  H   UNL     1       6.064   2.644  -0.638  0.00  0.00    -0.081 HD
BRANCH  29  33
ATOM     33  C   UNL     1       9.879   3.493  -2.527  0.00  0.00    +0.198 C 
BRANCH  33  34
ATOM     34  C   UNL     1      11.050   2.570  -2.868  0.00  0.00    +0.402 C 
ATOM     35  F   UNL     1      10.776   1.889  -4.058  0.00  0.00    -0.169 F 
ATOM     36  F   UNL     1      12.214   3.331  -3.022  0.00  0.00    -0.169 F 
ATOM     37  F   UNL     1      11.232   1.646  -1.833  0.00  0.00    -0.169 F 
ENDBRANCH  33  34
ENDBRANCH  29  33
ENDBRANCH  25  26
ENDBRANCH   2  25
TORSDOF 10
