REMARK  Name = ZINC66214681
REMARK  7 active torsions:
REMARK  status: ('A' for Active; 'I' for Inactive)
REMARK    1  A    between atoms: C_3  and  C_6
REMARK    2  A    between atoms: C_6  and  N_7
REMARK    3  A    between atoms: C_8  and  C_10
REMARK    4  A    between atoms: C_13  and  N_16
REMARK    5  A    between atoms: C_17  and  C_19
REMARK    6  A    between atoms: C_19  and  N_20
REMARK    7  A    between atoms: N_20  and  C_21
REMARK                            x       y       z     vdW  Elec       q    Type
REMARK                         _______ _______ _______ _____ _____    ______ ____
ROOT
ATOM      1  C   UNL     1       5.931   0.536   2.967  0.00  0.00    +0.037 A 
ATOM      2  C   UNL     1       7.045  -0.240   3.299  0.00  0.00    +0.015 A 
ATOM      3  C   UNL     1       7.515  -0.248   4.593  0.00  0.00    +0.024 A 
ATOM      4  C   UNL     1       6.882   0.515   5.570  0.00  0.00    +0.033 A 
ATOM      5  C   UNL     1       5.772   1.288   5.243  0.00  0.00    +0.024 A 
ATOM      6  C   UNL     1       5.301   1.305   3.949  0.00  0.00    +0.015 A 
ENDROOT
BRANCH   1   8
ATOM      7  N   UNL     1       6.033  -0.195   0.635  0.00  0.00    -0.304 N 
ATOM      8  C   UNL     1       5.424   0.548   1.581  0.00  0.00    +0.244 C 
ATOM      9  O   UNL     1       4.458   1.227   1.292  0.00  0.00    -0.270 OA
ATOM     10  H   UNL     1       6.804  -0.737   0.865  0.00  0.00    +0.149 HD
BRANCH   7  11
ATOM     11  C   UNL     1       5.530  -0.183  -0.741  0.00  0.00    +0.179 C 
BRANCH  11  14
ATOM     12  C   UNL     1       7.196  -2.852  -2.661  0.00  0.00    +0.041 A 
ATOM     13  C   UNL     1       6.165  -2.400  -1.806  0.00  0.00    +0.046 A 
ATOM     14  C   UNL     1       6.380  -1.089  -1.594  0.00  0.00    +0.122 A 
ATOM     15  O   UNL     1       7.481  -0.725  -2.272  0.00  0.00    -0.466 OA
ATOM     16  C   UNL     1       7.980  -1.790  -2.921  0.00  0.00    +0.195 A 
ENDBRANCH  11  14
ENDBRANCH   7  11
ENDBRANCH   1   8
BRANCH   4  17
ATOM     17  N   UNL     1       7.360   0.503   6.880  0.00  0.00    -0.287 N 
ATOM     18  C   UNL     1       8.681   0.375   7.114  0.00  0.00    +0.200 C 
ATOM     19  O   UNL     1       9.463   0.366   6.187  0.00  0.00    -0.278 OA
ATOM     20  H   UNL     1       6.742   0.588   7.622  0.00  0.00    +0.155 HD
BRANCH  18  21
ATOM     21  C   UNL     1       9.187   0.244   8.527  0.00  0.00    +0.015 C 
BRANCH  21  22
ATOM     22  N   UNL     1      10.650   0.119   8.514  0.00  0.00    +0.387 N 
ATOM     23  H   UNL     1      10.913  -0.699   7.985  0.00  0.00    -0.085 HD
ATOM     24  H   UNL     1      11.054   0.939   8.088  0.00  0.00    -0.085 HD
BRANCH  22  25
ATOM     25  C   UNL     1      11.143  -0.010   9.892  0.00  0.00    -0.071 C 
ATOM     26  C   UNL     1      10.631  -1.318  10.497  0.00  0.00    -0.016 C 
ATOM     27  C   UNL     1      11.144  -1.452  11.932  0.00  0.00    -0.002 C 
ATOM     28  C   UNL     1      12.674  -1.457  11.928  0.00  0.00    -0.000 C 
ATOM     29  C   UNL     1      13.186  -0.148  11.323  0.00  0.00    -0.002 C 
ATOM     30  C   UNL     1      12.673  -0.014   9.888  0.00  0.00    -0.016 C 
ENDBRANCH  22  25
ENDBRANCH  21  22
ENDBRANCH  18  21
ENDBRANCH   4  17
TORSDOF 7
