REMARK  Name = ZINC48952840
REMARK  7 active torsions:
REMARK  status: ('A' for Active; 'I' for Inactive)
REMARK    1  A    between atoms: C_1  and  C_2
REMARK    2  A    between atoms: C_4  and  N_21
REMARK    3  A    between atoms: C_6  and  S_8
REMARK    4  A    between atoms: S_8  and  N_11
REMARK    5  A    between atoms: N_11  and  C_12
REMARK    6  A    between atoms: N_11  and  C_18
REMARK    7  A    between atoms: C_12  and  C_13
REMARK                            x       y       z     vdW  Elec       q    Type
REMARK                         _______ _______ _______ _____ _____    ______ ____
ROOT
ATOM      1  S   UNL     1       0.203  -2.935   2.337  0.00  0.00    +0.061 S 
ATOM      2  O   UNL     1      -0.575  -2.078   3.161  0.00  0.00    -0.153 OA
ATOM      3  O   UNL     1      -0.255  -4.216   1.924  0.00  0.00    -0.153 OA
ENDROOT
BRANCH   1   9
ATOM      4  C   UNL     1       0.819   1.571  -0.237  0.00  0.00    +0.044 C 
ATOM      5  C   UNL     1       0.834   0.065  -0.263  0.00  0.00    -0.047 A 
ATOM      6  C   UNL     1       1.130  -0.602  -1.436  0.00  0.00    +0.026 A 
ATOM      7  C   UNL     1       1.144  -1.991  -1.458  0.00  0.00    +0.027 A 
ATOM      8  C   UNL     1       0.859  -2.704  -0.301  0.00  0.00    +0.051 A 
ATOM      9  C   UNL     1       0.564  -2.031   0.868  0.00  0.00    +0.107 A 
ATOM     10  C   UNL     1       0.556  -0.648   0.889  0.00  0.00    +0.032 A 
BRANCH   7  11
ATOM     11  N   UNL     1       1.442  -2.668  -2.643  0.00  0.00    -0.358 N 
ATOM     12  H   UNL     1       1.640  -2.169  -3.451  0.00  0.00    +0.142 HD
ATOM     13  H   UNL     1       1.451  -3.638  -2.658  0.00  0.00    +0.142 HD
ENDBRANCH   7  11
ENDBRANCH   1   9
BRANCH   1  14
ATOM     14  N   UNL     1       1.638  -3.178   3.128  0.00  0.00    -0.169 NA
BRANCH  14  15
ATOM     15  C   UNL     1       2.435  -4.375   2.847  0.00  0.00    +0.080 C 
ATOM     16  C   UNL     1       3.723  -4.569   3.650  0.00  0.00    +0.022 C 
ATOM     17  C   UNL     1       3.794  -4.176   2.173  0.00  0.00    +0.022 C 
ENDBRANCH  14  15
BRANCH  14  18
ATOM     18  C   UNL     1       2.109  -2.196   4.108  0.00  0.00    +0.145 C 
BRANCH  18  19
ATOM     19  C   UNL     1       1.669  -2.613   5.487  0.00  0.00    -0.025 A 
ATOM     20  C   UNL     1       0.408  -2.286   5.950  0.00  0.00    +0.012 A 
ATOM     21  C   UNL     1       0.043  -2.676   7.196  0.00  0.00    +0.045 A 
ATOM     22  S   UNL     1       1.505  -3.532   7.758  0.00  0.00    -0.105 S 
ATOM     23  C   UNL     1       2.501  -3.318   6.292  0.00  0.00    +0.050 A 
ENDBRANCH  18  19
ENDBRANCH  14  18
ENDBRANCH   1  14
TORSDOF 6
