REMARK  Name = ZINC09130122
REMARK  9 active torsions:
REMARK  status: ('A' for Active; 'I' for Inactive)
REMARK    1  A    between atoms: C_1  and  C_2
REMARK    2  A    between atoms: C_13  and  C_22
REMARK    3  A    between atoms: C_16  and  C_18
REMARK    4  A    between atoms: C_18  and  C_19
REMARK    5  A    between atoms: N_24  and  C_25
REMARK    6  A    between atoms: C_27  and  O_33
REMARK    7  A    between atoms: C_30  and  O_31
REMARK    8  A    between atoms: O_31  and  C_32
REMARK    9  A    between atoms: O_33  and  C_34
REMARK                            x       y       z     vdW  Elec       q    Type
REMARK                         _______ _______ _______ _____ _____    ______ ____
ROOT
ATOM      1  C   UNL     1       3.163  -6.854  -0.375  0.00  0.00    +0.044 C 
ATOM      2  C   UNL     1       2.114  -6.345  -1.330  0.00  0.00    -0.049 A 
ATOM      3  C   UNL     1       1.180  -5.417  -0.903  0.00  0.00    +0.008 A 
ATOM      4  C   UNL     1       0.223  -4.952  -1.777  0.00  0.00    -0.026 A 
ATOM      5  C   UNL     1       0.181  -5.405  -3.091  0.00  0.00    +0.054 A 
ATOM      6  C   UNL     1       1.125  -6.340  -3.513  0.00  0.00    +0.063 A 
ATOM      7  C   UNL     1       2.083  -6.804  -2.633  0.00  0.00    +0.025 A 
ATOM      8 CL   UNL     1       1.097  -6.923  -5.148  0.00  0.00    -0.082 Cl
ATOM      9  N   UNL     1      -0.869  -4.794  -3.780  0.00  0.00    -0.285 N 
ATOM     10  C   UNL     1      -1.556  -3.938  -3.002  0.00  0.00    +0.211 C 
ATOM     11  O   UNL     1      -2.513  -3.268  -3.332  0.00  0.00    -0.277 OA
ATOM     12  C   UNL     1      -0.909  -3.970  -1.641  0.00  0.00    +0.049 C 
ATOM     13  C   UNL     1      -1.912  -4.436  -0.574  0.00  0.00    +0.076 C 
ATOM     14  C   UNL     1      -2.363  -3.103   0.082  0.00  0.00    -0.003 C 
ATOM     15  C   UNL     1      -1.057  -2.270   0.031  0.00  0.00    -0.061 C 
ATOM     16  H   UNL     1      -1.079  -4.967  -4.711  0.00  0.00    +0.155 HD
ATOM     17  N   UNL     1      -0.427  -2.646  -1.249  0.00  0.00    +0.394 N 
ATOM     18  H   UNL     1      -0.675  -1.960  -1.971  0.00  0.00    -0.083 HD
ATOM     19  H   UNL     1       0.594  -2.670  -1.137  0.00  0.00    -0.083 HD
ENDROOT
BRANCH  13  20
ATOM     20  C   UNL     1      -1.239  -5.328   0.437  0.00  0.00    +0.220 C 
ATOM     21  O   UNL     1      -0.658  -4.840   1.384  0.00  0.00    -0.275 OA
ATOM     22  N   UNL     1      -1.282  -6.667   0.290  0.00  0.00    -0.282 N 
ATOM     23  H   UNL     1      -1.674  -7.055  -0.508  0.00  0.00    +0.155 HD
BRANCH  22  24
ATOM     24  C   UNL     1      -0.761  -7.499   1.290  0.00  0.00    +0.079 A 
ATOM     25  C   UNL     1      -0.850  -7.124   2.622  0.00  0.00    +0.072 A 
ATOM     26  C   UNL     1      -0.339  -7.952   3.609  0.00  0.00    +0.122 A 
ATOM     27  C   UNL     1       0.272  -9.149   3.265  0.00  0.00    +0.049 A 
ATOM     28  C   UNL     1       0.367  -9.522   1.938  0.00  0.00    +0.051 A 
ATOM     29  C   UNL     1      -0.148  -8.702   0.947  0.00  0.00    +0.141 A 
BRANCH  29  30
ATOM     30  O   UNL     1      -0.054  -9.070  -0.359  0.00  0.00    -0.493 OA
ATOM     31  C   UNL     1       0.587 -10.316  -0.637  0.00  0.00    +0.277 C 
ENDBRANCH  29  30
BRANCH  26  32
ATOM     32  O   UNL     1      -0.431  -7.588   4.916  0.00  0.00    -0.495 OA
ATOM     33  C   UNL     1       0.122  -8.485   5.881  0.00  0.00    +0.277 C 
ENDBRANCH  26  32
ENDBRANCH  22  24
ENDBRANCH  13  20
BRANCH  15  34
ATOM     34  C   UNL     1      -1.379  -0.774   0.053  0.00  0.00    +0.080 C 
BRANCH  34  35
ATOM     35  C   UNL     1      -0.095   0.016   0.049  0.00  0.00    +0.209 C 
ATOM     36  O   UNL     1       0.972  -0.561   0.030  0.00  0.00    -0.276 OA
ATOM     37  N   UNL     1      -0.133   1.363   0.066  0.00  0.00    -0.329 N 
ATOM     38  H   UNL     1       0.693   1.871   0.063  0.00  0.00    +0.145 HD
ATOM     39  H   UNL     1      -0.986   1.824   0.077  0.00  0.00    +0.145 HD
ENDBRANCH  34  35
ENDBRANCH  15  34
TORSDOF 6
