REMARK  Name = ZINC61502515
REMARK  12 active torsions:
REMARK  status: ('A' for Active; 'I' for Inactive)
REMARK    1  A    between atoms: C_1  and  C_2
REMARK    2  A    between atoms: C_2  and  C_3
REMARK    3  A    between atoms: C_3  and  N_4
REMARK    4  A    between atoms: N_7  and  C_8
REMARK    5  A    between atoms: C_8  and  C_9
REMARK    6  A    between atoms: C_8  and  C_10
REMARK    7  A    between atoms: C_8  and  C_11
REMARK    8  A    between atoms: N_13  and  C_14
REMARK    9  A    between atoms: C_14  and  C_15
REMARK   10  A    between atoms: C_15  and  C_16
REMARK   11  A    between atoms: C_15  and  N_23
REMARK   12  A    between atoms: C_19  and  C_22
REMARK                            x       y       z     vdW  Elec       q    Type
REMARK                         _______ _______ _______ _____ _____    ______ ____
ROOT
ATOM      1  C   UNL     1       2.072  -6.189  -3.187  0.00  0.00    +0.236 C 
ATOM      2  O   UNL     1       2.161  -6.946  -4.131  0.00  0.00    -0.273 OA
ATOM      3  N   UNL     1       1.992  -6.681  -1.935  0.00  0.00    -0.315 N 
ATOM      4  H   UNL     1       1.921  -6.076  -1.180  0.00  0.00    +0.149 HD
ENDROOT
BRANCH   1   5
ATOM      5  C   UNL     1       2.051  -4.700  -3.415  0.00  0.00    +0.106 C 
ATOM      6  C   UNL     1       1.536  -4.407  -4.826  0.00  0.00    +0.041 C 
ATOM      7  C   UNL     1       3.467  -4.141  -3.262  0.00  0.00    +0.041 C 
BRANCH   5  11
ATOM      8  N   UNL     1       0.180  -2.150  -1.539  0.00  0.00    -0.299 N 
ATOM      9  C   UNL     1       0.993  -2.731  -2.444  0.00  0.00    +0.300 C 
ATOM     10  O   UNL     1       1.569  -2.050  -3.270  0.00  0.00    -0.253 OA
ATOM     11  N   UNL     1       1.168  -4.068  -2.432  0.00  0.00    -0.286 N 
ATOM     12  H   UNL     1      -0.279  -2.693  -0.880  0.00  0.00    +0.150 HD
ATOM     13  H   UNL     1       0.708  -4.611  -1.772  0.00  0.00    +0.151 HD
BRANCH   8  14
ATOM     14  C   UNL     1      -0.009  -0.697  -1.552  0.00  0.00    +0.105 C 
BRANCH  14  16
ATOM     15  C   UNL     1      -1.170   1.218  -0.445  0.00  0.00    +0.005 C 
ATOM     16  C   UNL     1      -0.972  -0.299  -0.431  0.00  0.00    +0.015 C 
ENDBRANCH  14  16
ENDBRANCH   8  14
ENDBRANCH   5  11
ENDBRANCH   1   5
BRANCH   3  17
ATOM     17  C   UNL     1       2.012  -8.129  -1.713  0.00  0.00    +0.093 C 
BRANCH  17  18
ATOM     18  C   UNL     1       2.044  -8.415  -0.210  0.00  0.00    -0.020 C 
BRANCH  18  19
ATOM     19  C   UNL     1       3.343  -7.915   0.368  0.00  0.00    -0.059 A 
ATOM     20  C   UNL     1       4.495  -8.666   0.230  0.00  0.00    +0.002 A 
ATOM     21  C   UNL     1       5.686  -8.209   0.761  0.00  0.00    +0.003 A 
ATOM     22  C   UNL     1       5.726  -6.999   1.429  0.00  0.00    -0.050 A 
ATOM     23  C   UNL     1       4.574  -6.247   1.566  0.00  0.00    +0.003 A 
ATOM     24  C   UNL     1       3.383  -6.703   1.032  0.00  0.00    +0.002 A 
ATOM     25  C   UNL     1       7.024  -6.500   2.009  0.00  0.00    +0.044 C 
ENDBRANCH  18  19
BRANCH  18  26
ATOM     26  N   UNL     1       1.931  -9.862   0.015  0.00  0.00    +0.385 N 
ATOM     27  C   UNL     1       1.946 -10.156   1.471  0.00  0.00    -0.078 C 
ATOM     28  C   UNL     1       1.274 -11.549   1.558  0.00  0.00    -0.020 C 
ATOM     29  C   UNL     1       0.172 -11.469   0.478  0.00  0.00    -0.020 C 
ATOM     30  C   UNL     1       0.629 -10.356  -0.483  0.00  0.00    -0.078 C 
ATOM     31  H   UNL     1       2.687 -10.346  -0.446  0.00  0.00    -0.081 HD
ENDBRANCH  18  26
ENDBRANCH  17  18
ENDBRANCH   3  17
TORSDOF 8
