REMARK  Name = ZINC35612638
REMARK  10 active torsions:
REMARK  status: ('A' for Active; 'I' for Inactive)
REMARK    1  A    between atoms: C_1  and  C_2
REMARK    2  A    between atoms: C_7  and  N_8
REMARK    3  A    between atoms: C_11  and  C_14
REMARK    4  A    between atoms: N_16  and  C_17
REMARK    5  A    between atoms: C_17  and  C_18
REMARK    6  A    between atoms: N_20  and  C_21
REMARK    7  A    between atoms: C_21  and  C_22
REMARK    8  A    between atoms: C_22  and  N_23
REMARK    9  A    between atoms: N_23  and  C_24
REMARK   10  A    between atoms: N_23  and  C_25
REMARK                            x       y       z     vdW  Elec       q    Type
REMARK                         _______ _______ _______ _____ _____    ______ ____
ROOT
ATOM      1  N   UNL     1       0.025  -0.015   2.416  0.00  0.00    -0.293 N 
ATOM      2  C   UNL     1      -0.059  -0.714   3.610  0.00  0.00    +0.163 A 
ATOM      3  N   UNL     1      -0.166  -0.251   4.839  0.00  0.00    -0.220 NA
ATOM      4  C   UNL     1      -0.235  -1.076   5.885  0.00  0.00    +0.135 A 
ATOM      5  C   UNL     1      -0.194  -2.431   5.668  0.00  0.00    +0.081 A 
ATOM      6  S   UNL     1      -0.058  -2.479   3.886  0.00  0.00    -0.060 S 
ATOM      7  H   UNL     1      -0.096   0.947   2.408  0.00  0.00    +0.154 HD
ENDROOT
BRANCH   1  14
ATOM      8  C   UNL     1      -1.114   0.999   0.015  0.00  0.00    +0.045 C 
ATOM      9  C   UNL     1      -0.252  -0.237   0.028  0.00  0.00    -0.029 A 
ATOM     10  C   UNL     1       0.010  -0.909  -1.149  0.00  0.00    +0.006 A 
ATOM     11  C   UNL     1       0.800  -2.044  -1.139  0.00  0.00    +0.020 A 
ATOM     12  C   UNL     1       1.331  -2.509   0.052  0.00  0.00    +0.043 A 
ATOM     13  C   UNL     1       1.073  -1.841   1.233  0.00  0.00    +0.043 A 
ATOM     14  C   UNL     1       0.284  -0.697   1.224  0.00  0.00    +0.037 A 
ATOM     15 CL   UNL     1       2.323  -3.934   0.061  0.00  0.00    -0.083 Cl
ENDBRANCH   1  14
BRANCH   4  16
ATOM     16  C   UNL     1      -0.354  -0.542   7.251  0.00  0.00    +0.263 C 
ATOM     17  O   UNL     1      -0.417  -1.303   8.198  0.00  0.00    -0.268 OA
ATOM     18  N   UNL     1      -0.394   0.790   7.453  0.00  0.00    -0.301 N 
ATOM     19  H   UNL     1      -0.344   1.396   6.698  0.00  0.00    +0.150 HD
BRANCH  18  20
ATOM     20  C   UNL     1      -0.512   1.321   8.813  0.00  0.00    +0.200 C 
BRANCH  20  21
ATOM     21  C   UNL     1      -0.535   2.827   8.763  0.00  0.00    +0.230 C 
ATOM     22  O   UNL     1      -0.460   3.400   7.697  0.00  0.00    -0.274 OA
ATOM     23  N   UNL     1      -0.639   3.538   9.904  0.00  0.00    -0.316 N 
ATOM     24  H   UNL     1      -0.700   3.079  10.757  0.00  0.00    +0.149 HD
BRANCH  23  25
ATOM     25  C   UNL     1      -0.661   5.002   9.856  0.00  0.00    +0.085 C 
BRANCH  25  26
ATOM     26  C   UNL     1      -0.785   5.557  11.276  0.00  0.00    -0.061 C 
BRANCH  26  27
ATOM     27  N   UNL     1      -0.807   7.025  11.228  0.00  0.00    +0.377 N 
ATOM     28  C   UNL     1      -2.019   7.474  10.528  0.00  0.00    -0.097 C 
ATOM     29  C   UNL     1      -0.805   7.560  12.596  0.00  0.00    -0.097 C 
ATOM     30  H   UNL     1       0.008   7.358  10.735  0.00  0.00    -0.083 HD
ENDBRANCH  26  27
ENDBRANCH  25  26
ENDBRANCH  23  25
ENDBRANCH  20  21
ENDBRANCH  18  20
ENDBRANCH   4  16
TORSDOF 7
