REMARK  Name = ZINC22063239
REMARK  15 active torsions:
REMARK  status: ('A' for Active; 'I' for Inactive)
REMARK    1  A    between atoms: C_1  and  C_2
REMARK    2  A    between atoms: C_2  and  C_4
REMARK    3  A    between atoms: C_2  and  N_14
REMARK    4  A    between atoms: C_7  and  S_10
REMARK    5  A    between atoms: S_10  and  N_13
REMARK    6  A    between atoms: N_14  and  C_15
REMARK    7  A    between atoms: N_14  and  C_16
REMARK    8  A    between atoms: C_16  and  C_17
REMARK    9  A    between atoms: N_19  and  C_20
REMARK   10  A    between atoms: C_20  and  C_22
REMARK   11  A    between atoms: C_20  and  C_30
REMARK   12  A    between atoms: C_25  and  O_28
REMARK   13  A    between atoms: O_28  and  C_29
REMARK   14  A    between atoms: C_30  and  C_31
REMARK   15  A    between atoms: C_30  and  C_32
REMARK                            x       y       z     vdW  Elec       q    Type
REMARK                         _______ _______ _______ _____ _____    ______ ____
ROOT
ATOM      1  N   UNL     1      -1.376  -0.512   0.012  0.00  0.00    +0.388 N 
ATOM      2  C   UNL     1      -1.356  -1.981   0.004  0.00  0.00    -0.095 C 
ATOM      3  H   UNL     1      -1.848  -0.187   0.843  0.00  0.00    -0.081 HD
ENDROOT
BRANCH   1   5
ATOM      4  C   UNL     1      -0.019   1.526   0.010  0.00  0.00    -0.008 C 
ATOM      5  C   UNL     1       0.002  -0.004   0.002  0.00  0.00    -0.041 C 
BRANCH   5   6
ATOM      6  C   UNL     1       0.731  -0.503   1.223  0.00  0.00    -0.061 A 
ATOM      7  C   UNL     1       0.081  -0.558   2.442  0.00  0.00    +0.004 A 
ATOM      8  C   UNL     1       0.749  -1.016   3.562  0.00  0.00    +0.029 A 
ATOM      9  C   UNL     1       2.068  -1.420   3.463  0.00  0.00    +0.105 A 
ATOM     10  C   UNL     1       2.718  -1.365   2.244  0.00  0.00    +0.029 A 
ATOM     11  C   UNL     1       2.048  -0.911   1.123  0.00  0.00    +0.004 A 
BRANCH   9  12
ATOM     12  S   UNL     1       2.921  -2.002   4.890  0.00  0.00    +0.056 S 
ATOM     13  O   UNL     1       4.306  -1.804   4.645  0.00  0.00    -0.153 OA
ATOM     14  O   UNL     1       2.259  -1.441   6.016  0.00  0.00    -0.153 OA
BRANCH  12  15
ATOM     15  N   UNL     1       2.683  -3.639   4.969  0.00  0.00    -0.204 NA
ATOM     16  H   UNL     1       3.359  -4.209   5.367  0.00  0.00    +0.144 HD
ATOM     17  H   UNL     1       1.867  -4.028   4.617  0.00  0.00    +0.144 HD
ENDBRANCH  12  15
ENDBRANCH   9  12
ENDBRANCH   5   6
ENDBRANCH   1   5
BRANCH   1  18
ATOM     18  C   UNL     1      -2.087  -0.026  -1.178  0.00  0.00    +0.019 C 
BRANCH  18  19
ATOM     19  C   UNL     1      -3.532  -0.445  -1.106  0.00  0.00    +0.197 C 
ATOM     20  O   UNL     1      -3.932  -1.085  -0.157  0.00  0.00    -0.278 OA
ATOM     21  N   UNL     1      -4.382  -0.107  -2.096  0.00  0.00    -0.310 N 
ATOM     22  H   UNL     1      -4.062   0.405  -2.855  0.00  0.00    +0.149 HD
BRANCH  21  23
ATOM     23  C   UNL     1      -5.787  -0.514  -2.026  0.00  0.00    +0.106 C 
BRANCH  23  24
ATOM     24  C   UNL     1      -6.360  -0.585  -3.419  0.00  0.00    -0.027 A 
ATOM     25  C   UNL     1      -6.018   0.374  -4.354  0.00  0.00    +0.009 A 
ATOM     26  C   UNL     1      -6.542   0.312  -5.631  0.00  0.00    +0.046 A 
ATOM     27  C   UNL     1      -7.411  -0.713  -5.974  0.00  0.00    +0.120 A 
ATOM     28  C   UNL     1      -7.752  -1.675  -5.034  0.00  0.00    +0.046 A 
ATOM     29  C   UNL     1      -7.221  -1.611  -3.760  0.00  0.00    +0.009 A 
BRANCH  27  30
ATOM     30  O   UNL     1      -7.928  -0.776  -7.229  0.00  0.00    -0.495 OA
ATOM     31  C   UNL     1      -8.816  -1.860  -7.512  0.00  0.00    +0.277 C 
ENDBRANCH  27  30
ENDBRANCH  23  24
BRANCH  23  32
ATOM     32  C   UNL     1      -6.574   0.507  -1.203  0.00  0.00    +0.008 C 
ATOM     33  C   UNL     1      -6.578   1.854  -1.929  0.00  0.00    +0.009 C 
ATOM     34  C   UNL     1      -8.013   0.020  -1.024  0.00  0.00    +0.009 C 
ENDBRANCH  23  32
ENDBRANCH  21  23
ENDBRANCH  18  19
ENDBRANCH   1  18
TORSDOF 10
