REMARK  Name = ZINC16959089
REMARK  10 active torsions:
REMARK  status: ('A' for Active; 'I' for Inactive)
REMARK    1  A    between atoms: C_1  and  C_2
REMARK    2  A    between atoms: C_7  and  C_8
REMARK    3  A    between atoms: C_10  and  C_24
REMARK    4  A    between atoms: C_11  and  C_23
REMARK    5  A    between atoms: N_12  and  C_16
REMARK    6  A    between atoms: C_24  and  O_26
REMARK    7  A    between atoms: O_26  and  C_27
REMARK    8  A    between atoms: C_27  and  C_28
REMARK    9  A    between atoms: C_28  and  O_29
REMARK   10  A    between atoms: O_29  and  C_30
REMARK                            x       y       z     vdW  Elec       q    Type
REMARK                         _______ _______ _______ _____ _____    ______ ____
ROOT
ATOM      1  C   UNL     1      -3.017   1.609  -0.006  0.00  0.00    +0.141 C 
ATOM      2  C   UNL     1      -3.555   0.316   0.572  0.00  0.00    +0.078 C 
ATOM      3  C   UNL     1      -4.890   0.119   0.538  0.00  0.00    +0.027 C 
ATOM      4  N   UNL     1      -5.727   1.055   0.001  0.00  0.00    -0.255 N 
ATOM      5  C   UNL     1      -5.307   2.214  -0.523  0.00  0.00    +0.142 C 
ATOM      6  S   UNL     1      -6.464   3.300  -1.165  0.00  0.00    -0.018 S 
ATOM      7  N   UNL     1      -4.003   2.552  -0.561  0.00  0.00    -0.315 N 
ATOM      8  C   UNL     1      -5.466  -1.154   1.102  0.00  0.00    +0.062 C 
ATOM      9  H   UNL     1      -3.721   3.397  -0.944  0.00  0.00    +0.149 HD
ENDROOT
BRANCH   1  16
ATOM     10  C   UNL     1      -0.954   3.510  -0.699  0.00  0.00    +0.044 C 
ATOM     11  C   UNL     1      -1.266   3.231   0.749  0.00  0.00    -0.045 A 
ATOM     12  C   UNL     1      -0.570   3.888   1.746  0.00  0.00    +0.004 A 
ATOM     13  C   UNL     1      -0.856   3.633   3.073  0.00  0.00    +0.000 A 
ATOM     14  C   UNL     1      -1.840   2.720   3.405  0.00  0.00    +0.000 A 
ATOM     15  C   UNL     1      -2.537   2.063   2.408  0.00  0.00    +0.006 A 
ATOM     16  C   UNL     1      -2.253   2.322   1.080  0.00  0.00    -0.020 A 
ENDBRANCH   1  16
BRANCH   4  17
ATOM     17  C   UNL     1      -7.102   0.788  -0.003  0.00  0.00    +0.041 A 
ATOM     18  C   UNL     1      -7.913   1.299   1.002  0.00  0.00    +0.024 A 
ATOM     19  C   UNL     1      -9.269   1.039   0.994  0.00  0.00    +0.003 A 
ATOM     20  C   UNL     1      -9.819   0.262  -0.009  0.00  0.00    +0.015 A 
ATOM     21  C   UNL     1      -9.014  -0.254  -1.009  0.00  0.00    +0.020 A 
ATOM     22  C   UNL     1      -7.657   0.008  -1.008  0.00  0.00    +0.039 A 
ATOM     23 BR   UNL     1      -9.771  -1.316  -2.378  0.00  0.00    -0.050 Br
ENDBRANCH   4  17
BRANCH   2  24
ATOM     24  C   UNL     1      -2.687  -0.653   1.128  0.00  0.00    +0.339 C 
ATOM     25  O   UNL     1      -3.134  -1.710   1.531  0.00  0.00    -0.245 OA
BRANCH  24  26
ATOM     26  O   UNL     1      -1.363  -0.404   1.212  0.00  0.00    -0.459 OA
BRANCH  26  27
ATOM     27  C   UNL     1      -0.531  -1.471   1.672  0.00  0.00    +0.260 C 
BRANCH  27  28
ATOM     28  C   UNL     1       0.913  -0.978   1.784  0.00  0.00    +0.200 C 
BRANCH  28  29
ATOM     29  O   UNL     1       0.996   0.029   2.794  0.00  0.00    -0.380 OA
ATOM     30  C   UNL     1       2.310   0.559   2.980  0.00  0.00    +0.194 C 
ENDBRANCH  28  29
ENDBRANCH  27  28
ENDBRANCH  26  27
ENDBRANCH  24  26
ENDBRANCH   2  24
TORSDOF 7
