REMARK  Name = ZINC67086094
REMARK  12 active torsions:
REMARK  status: ('A' for Active; 'I' for Inactive)
REMARK    1  A    between atoms: C_1  and  C_2
REMARK    2  A    between atoms: C_2  and  C_4
REMARK    3  A    between atoms: C_2  and  N_12
REMARK    4  A    between atoms: C_7  and  C_10
REMARK    5  A    between atoms: N_15  and  C_16
REMARK    6  A    between atoms: C_16  and  C_17
REMARK    7  A    between atoms: C_21  and  C_23
REMARK    8  A    between atoms: N_25  and  C_26
REMARK    9  A    between atoms: C_26  and  C_27
REMARK   10  A    between atoms: C_27  and  N_28
REMARK   11  A    between atoms: N_28  and  C_29
REMARK   12  A    between atoms: N_28  and  C_30
REMARK                            x       y       z     vdW  Elec       q    Type
REMARK                         _______ _______ _______ _____ _____    ______ ____
ROOT
ATOM      1  C   UNL     1       4.166  -1.166   2.249  0.00  0.00    +0.141 C 
ENDROOT
BRANCH   1   5
ATOM      2  N   UNL     1       0.711  -0.489   1.189  0.00  0.00    -0.293 N 
ATOM      3  C   UNL     1       2.054  -0.600   1.174  0.00  0.00    +0.300 C 
ATOM      4  O   UNL     1       2.677  -0.297   0.175  0.00  0.00    -0.253 OA
ATOM      5  N   UNL     1       2.706  -1.046   2.266  0.00  0.00    -0.295 N 
ATOM      6  H   UNL     1       0.213  -0.731   1.986  0.00  0.00    +0.151 HD
ATOM      7  H   UNL     1       2.208  -1.288   3.062  0.00  0.00    +0.151 HD
BRANCH   2   9
ATOM      8  C   UNL     1      -0.019   1.526   0.010  0.00  0.00    +0.033 C 
ATOM      9  C   UNL     1       0.002  -0.004   0.002  0.00  0.00    +0.102 C 
BRANCH   9  10
ATOM     10  C   UNL     1      -1.412  -0.526   0.013  0.00  0.00    -0.027 A 
ATOM     11  C   UNL     1      -2.121  -0.570   1.200  0.00  0.00    +0.007 A 
ATOM     12  C   UNL     1      -3.415  -1.046   1.217  0.00  0.00    +0.019 A 
ATOM     13  C   UNL     1      -4.010  -1.484   0.032  0.00  0.00    +0.052 A 
ATOM     14  C   UNL     1      -3.289  -1.436  -1.163  0.00  0.00    +0.019 A 
ATOM     15  C   UNL     1      -1.997  -0.953  -1.166  0.00  0.00    +0.007 A 
BRANCH  13  16
ATOM     16  C   UNL     1      -5.353  -1.980   0.043  0.00  0.00    +0.099 C 
ATOM     17  N   UNL     1      -6.419  -2.373   0.051  0.00  0.00    -0.191 NA
ENDBRANCH  13  16
ENDBRANCH   9  10
ENDBRANCH   2   9
ENDBRANCH   1   5
BRANCH   1  18
ATOM     18  C   UNL     1       4.642  -1.684   3.582  0.00  0.00    -0.030 A 
ATOM     19  C   UNL     1       4.952  -0.795   4.596  0.00  0.00    +0.005 A 
ATOM     20  C   UNL     1       5.390  -1.262   5.823  0.00  0.00    +0.001 A 
ATOM     21  C   UNL     1       5.521  -2.618   6.042  0.00  0.00    +0.013 A 
ATOM     22  C   UNL     1       5.210  -3.519   5.023  0.00  0.00    +0.037 A 
ATOM     23  C   UNL     1       4.763  -3.042   3.789  0.00  0.00    +0.018 A 
BRANCH  22  24
ATOM     24  C   UNL     1       5.348  -4.974   5.250  0.00  0.00    +0.244 C 
ATOM     25  O   UNL     1       5.076  -5.756   4.361  0.00  0.00    -0.270 OA
ATOM     26  N   UNL     1       5.775  -5.432   6.444  0.00  0.00    -0.313 N 
ATOM     27  H   UNL     1       5.992  -4.807   7.154  0.00  0.00    +0.149 HD
BRANCH  26  28
ATOM     28  C   UNL     1       5.912  -6.873   6.669  0.00  0.00    +0.086 C 
BRANCH  28  29
ATOM     29  C   UNL     1       6.409  -7.121   8.094  0.00  0.00    -0.061 C 
BRANCH  29  30
ATOM     30  N   UNL     1       6.547  -8.566   8.320  0.00  0.00    +0.377 N 
ATOM     31  C   UNL     1       7.597  -9.101   7.443  0.00  0.00    -0.097 C 
ATOM     32  C   UNL     1       6.909  -8.810   9.723  0.00  0.00    -0.097 C 
ATOM     33  H   UNL     1       5.671  -9.023   8.114  0.00  0.00    -0.083 HD
ENDBRANCH  29  30
ENDBRANCH  28  29
ENDBRANCH  26  28
ENDBRANCH  22  24
ENDBRANCH   1  18
TORSDOF 9
