REMARK  Name = ZINC53681464
REMARK  11 active torsions:
REMARK  status: ('A' for Active; 'I' for Inactive)
REMARK    1  A    between atoms: C_1  and  C_2
REMARK    2  A    between atoms: C_2  and  C_4
REMARK    3  A    between atoms: C_2  and  N_15
REMARK    4  A    between atoms: N_6  and  C_7
REMARK    5  A    between atoms: C_8  and  C_12
REMARK    6  A    between atoms: N_15  and  C_16
REMARK    7  A    between atoms: N_15  and  C_17
REMARK    8  A    between atoms: C_17  and  C_18
REMARK    9  A    between atoms: C_18  and  C_19
REMARK   10  A    between atoms: C_19  and  O_20
REMARK   11  A    between atoms: O_20  and  C_21
REMARK                            x       y       z     vdW  Elec       q    Type
REMARK                         _______ _______ _______ _____ _____    ______ ____
ROOT
ATOM      1  C   UNL     1      -0.017   1.375  -0.619  0.00  0.00    -0.004 C 
ATOM      2  C   UNL     1      -0.097  -0.065  -0.107  0.00  0.00    +0.016 C 
ENDROOT
BRANCH   2   3
ATOM      3  C   UNL     1      -1.513  -0.564  -0.234  0.00  0.00    +0.204 C 
ATOM      4  O   UNL     1      -1.857  -1.168  -1.228  0.00  0.00    -0.277 OA
ATOM      5  N   UNL     1      -2.398  -0.340   0.758  0.00  0.00    -0.281 N 
ATOM      6  H   UNL     1      -2.123   0.142   1.553  0.00  0.00    +0.155 HD
BRANCH   5   7
ATOM      7  C   UNL     1      -3.701  -0.800   0.642  0.00  0.00    +0.084 A 
ATOM      8  C   UNL     1      -4.739  -0.659   1.550  0.00  0.00    +0.065 A 
ATOM      9  C   UNL     1      -6.009  -1.239   1.176  0.00  0.00    +0.022 A 
ATOM     10  C   UNL     1      -6.042  -1.856  -0.020  0.00  0.00    +0.048 A 
ATOM     11  S   UNL     1      -4.385  -1.649  -0.634  0.00  0.00    -0.081 S 
BRANCH   8  12
ATOM     12  C   UNL     1      -4.558   0.042   2.825  0.00  0.00    +0.244 C 
ATOM     13  O   UNL     1      -3.475   0.519   3.109  0.00  0.00    -0.270 OA
ATOM     14  N   UNL     1      -5.591   0.159   3.683  0.00  0.00    -0.325 N 
ATOM     15  H   UNL     1      -6.455  -0.220   3.457  0.00  0.00    +0.145 HD
ATOM     16  H   UNL     1      -5.471   0.623   4.526  0.00  0.00    +0.145 HD
ENDBRANCH   8  12
ENDBRANCH   5   7
ENDBRANCH   2   3
BRANCH   2  17
ATOM     17  N   UNL     1       0.796  -0.917  -0.903  0.00  0.00    +0.385 N 
ATOM     18  C   UNL     1       2.171  -0.409  -0.808  0.00  0.00    -0.095 C 
ATOM     19  H   UNL     1       0.500  -0.907  -1.867  0.00  0.00    -0.081 HD
BRANCH  17  20
ATOM     20  C   UNL     1       0.746  -2.293  -0.390  0.00  0.00    -0.075 C 
BRANCH  20  21
ATOM     21  C   UNL     1       1.559  -3.209  -1.306  0.00  0.00    +0.022 C 
BRANCH  21  22
ATOM     22  C   UNL     1       1.506  -4.642  -0.771  0.00  0.00    +0.227 C 
BRANCH  22  23
ATOM     23  O   UNL     1       2.266  -5.498  -1.626  0.00  0.00    -0.492 OA
BRANCH  23  24
ATOM     24  C   UNL     1       2.322  -6.814  -1.291  0.00  0.00    +0.121 A 
ATOM     25  C   UNL     1       1.655  -7.272  -0.164  0.00  0.00    +0.047 A 
ATOM     26  C   UNL     1       1.714  -8.610   0.176  0.00  0.00    +0.023 A 
ATOM     27  C   UNL     1       2.437  -9.492  -0.607  0.00  0.00    +0.041 A 
ATOM     28  C   UNL     1       3.104  -9.037  -1.730  0.00  0.00    +0.023 A 
ATOM     29  C   UNL     1       3.042  -7.701  -2.077  0.00  0.00    +0.047 A 
ATOM     30 CL   UNL     1       2.510 -11.173  -0.177  0.00  0.00    -0.084 Cl
ENDBRANCH  23  24
ENDBRANCH  22  23
ENDBRANCH  21  22
ENDBRANCH  20  21
ENDBRANCH  17  20
ENDBRANCH   2  17
TORSDOF 9
