REMARK  Name = ZINC12635746
REMARK  14 active torsions:
REMARK  status: ('A' for Active; 'I' for Inactive)
REMARK    1  A    between atoms: C_1  and  C_2
REMARK    2  A    between atoms: C_2  and  N_75
REMARK    3  A    between atoms: C_6  and  C_8
REMARK    4  A    between atoms: C_8  and  N_9
REMARK    5  A    between atoms: N_9  and  C_10
REMARK    6  A    between atoms: N_9  and  C_25
REMARK    7  A    between atoms: C_10  and  C_11
REMARK    8  A    between atoms: C_16  and  C_24
REMARK    9  A    between atoms: C_17  and  C_23
REMARK   10  A    between atoms: C_25  and  N_27
REMARK   11  A    between atoms: N_27  and  C_28
REMARK   12  A    between atoms: C_28  and  C_29
REMARK   13  A    between atoms: C_29  and  C_30
REMARK   14  A    between atoms: C_30  and  N_77
REMARK                            x       y       z     vdW  Elec       q    Type
REMARK                         _______ _______ _______ _____ _____    ______ ____
ROOT
ATOM      1  N   UNL     1      -0.595   3.624   8.015  0.00  0.00    -0.310 N 
ENDROOT
BRANCH   1   2
ATOM      2  C   UNL     1      -1.374   4.008   6.985  0.00  0.00    +0.133 C 
ATOM      3  S   UNL     1      -2.853   4.816   7.285  0.00  0.00    -0.019 S 
BRANCH   2   4
ATOM      4  N   UNL     1      -0.988   3.756   5.718  0.00  0.00    -0.326 N 
ATOM      5  H   UNL     1      -0.150   3.298   5.548  0.00  0.00    +0.148 HD
BRANCH   4   6
ATOM      6  C   UNL     1      -1.835   4.173   4.598  0.00  0.00    +0.101 C 
BRANCH   6   7
ATOM      7  C   UNL     1      -1.172   3.769   3.280  0.00  0.00    +0.000 C 
BRANCH   7   8
ATOM      8  C   UNL     1      -2.057   4.205   2.110  0.00  0.00    -0.077 C 
BRANCH   8  14
ATOM      9  C   UNL     1      -1.365   2.354   0.708  0.00  0.00    -0.050 C 
ATOM     10  C   UNL     1      -0.643   1.995  -0.594  0.00  0.00    +0.141 C 
ATOM     11  O   UNL     1      -1.314   2.617  -1.693  0.00  0.00    -0.383 OA
ATOM     12  C   UNL     1      -1.385   4.042  -1.593  0.00  0.00    +0.141 C 
ATOM     13  C   UNL     1      -2.115   4.422  -0.302  0.00  0.00    -0.050 C 
ATOM     14  N   UNL     1      -1.394   3.826   0.843  0.00  0.00    +0.383 N 
ATOM     15  H   UNL     1      -0.430   4.180   0.851  0.00  0.00    -0.082 HD
ENDBRANCH   8  14
ENDBRANCH   7   8
ENDBRANCH   6   7
ENDBRANCH   4   6
ENDBRANCH   2   4
ENDBRANCH   1   2
BRANCH   1  16
ATOM     16  C   UNL     1       0.617   2.840   7.765  0.00  0.00    +0.092 C 
BRANCH  16  20
ATOM     17  C   UNL     1       2.740   4.987   5.704  0.00  0.00    -0.078 C 
ATOM     18  C   UNL     1       3.844   4.106   6.327  0.00  0.00    -0.020 C 
ATOM     19  C   UNL     1       3.038   2.997   7.052  0.00  0.00    -0.016 C 
ATOM     20  C   UNL     1       1.802   3.785   7.555  0.00  0.00    -0.051 C 
ATOM     21  N   UNL     1       1.504   4.734   6.464  0.00  0.00    +0.382 N 
ATOM     22  H   UNL     1       0.800   4.324   5.839  0.00  0.00    -0.081 HD
BRANCH  21  24
ATOM     23  C   UNL     1       0.763   7.008   5.885  0.00  0.00    -0.017 C 
ATOM     24  C   UNL     1       0.976   6.006   7.022  0.00  0.00    -0.082 C 
ENDBRANCH  21  24
ENDBRANCH  16  20
ENDBRANCH   1  16
BRANCH   1  25
ATOM     25  C   UNL     1      -0.959   3.992   9.386  0.00  0.00    +0.147 C 
BRANCH  25  26
ATOM     26  C   UNL     1      -0.349   5.327   9.727  0.00  0.00    +0.035 A 
ATOM     27  C   UNL     1      -1.068   6.463   9.551  0.00  0.00    +0.020 A 
ATOM     28  C   UNL     1      -0.446   7.744   9.892  0.00  0.00    -0.001 A 
ATOM     29  C   UNL     1      -1.137   8.950   9.732  0.00  0.00    +0.010 A 
ATOM     30  C   UNL     1      -0.529  10.128  10.059  0.00  0.00    +0.004 A 
ATOM     31  C   UNL     1       0.770  10.140  10.550  0.00  0.00    -0.046 A 
ATOM     32  C   UNL     1       1.470   8.965  10.716  0.00  0.00    -0.024 A 
ATOM     33  C   UNL     1       0.871   7.752  10.389  0.00  0.00    +0.052 A 
ATOM     34  N   UNL     1       1.548   6.562  10.546  0.00  0.00    -0.322 N 
ATOM     35  H   UNL     1       2.455   6.569  10.888  0.00  0.00    +0.169 HD
ATOM     36  C   UNL     1       0.967   5.390  10.235  0.00  0.00    +0.254 A 
ATOM     37  O   UNL     1       1.593   4.356  10.390  0.00  0.00    -0.268 OA
ATOM     38  C   UNL     1       2.879   8.993  11.250  0.00  0.00    +0.046 C 
ATOM     39  C   UNL     1       1.421  11.452  10.904  0.00  0.00    +0.044 C 
ENDBRANCH  25  26
ENDBRANCH   1  25
TORSDOF 11
