REMARK  Name = ZINC39855960
REMARK  7 active torsions:
REMARK  status: ('A' for Active; 'I' for Inactive)
REMARK    1  A    between atoms: C_1  and  C_2
REMARK    2  A    between atoms: C_5  and  N_9
REMARK    3  A    between atoms: C_10  and  C_12
REMARK    4  A    between atoms: C_13  and  C_28
REMARK    5  A    between atoms: C_18  and  C_26
REMARK    6  A    between atoms: C_18  and  C_27
REMARK    7  A    between atoms: N_21  and  N_22
REMARK                            x       y       z     vdW  Elec       q    Type
REMARK                         _______ _______ _______ _____ _____    ______ ____
ROOT
ATOM      1  C   UNL     1       0.303  -6.310   1.119  0.00  0.00    +0.193 A 
ATOM      2  C   UNL     1       0.422  -7.114   2.219  0.00  0.00    +0.009 A 
ATOM      3  C   UNL     1       0.517  -8.425   1.737  0.00  0.00    +0.043 A 
ATOM      4  C   UNL     1       0.454  -8.366   0.365  0.00  0.00    +0.116 A 
ATOM      5  O   UNL     1       0.319  -7.089   0.014  0.00  0.00    -0.454 OA
ATOM      6  C   UNL     1       0.531  -9.589  -0.514  0.00  0.00    +0.081 C 
ATOM      7  C   UNL     1       1.181 -10.735   0.266  0.00  0.00    -0.023 C 
ATOM      8  C   UNL     1       0.465 -10.955   1.603  0.00  0.00    +0.064 C 
ATOM      9  C   UNL     1       0.659  -9.711   2.457  0.00  0.00    +0.073 C 
ATOM     10  N   UNL     1       0.930  -9.772   3.724  0.00  0.00    -0.175 NA
ATOM     11  C   UNL     1       1.103 -12.018  -0.564  0.00  0.00    +0.011 C 
ATOM     12  C   UNL     1       2.649 -10.396   0.530  0.00  0.00    +0.011 C 
ATOM     13  C   UNL     1       0.446  -6.677   3.661  0.00  0.00    +0.048 C 
ENDROOT
BRANCH  10  14
ATOM     14  N   UNL     1       1.053 -11.017   4.354  0.00  0.00    -0.248 N 
ATOM     15  C   UNL     1       1.339 -11.082   5.692  0.00  0.00    +0.187 C 
ATOM     16  N   UNL     1       1.456 -12.266   6.292  0.00  0.00    -0.370 N 
ATOM     17  N   UNL     1       1.500  -9.960   6.394  0.00  0.00    -0.370 N 
ATOM     18  H   UNL     1       0.936 -11.833   3.844  0.00  0.00    +0.192 HD
ATOM     19  H   UNL     1       1.339 -13.082   5.781  0.00  0.00    +0.159 HD
ATOM     20  H   UNL     1       1.415  -9.098   5.957  0.00  0.00    +0.159 HD
ATOM     21  H   UNL     1       1.702 -10.006   7.341  0.00  0.00    +0.159 HD
ATOM     22  H   UNL     1       1.658 -12.312   7.239  0.00  0.00    +0.159 HD
ENDBRANCH  10  14
BRANCH   1  24
ATOM     23  N   UNL     1       0.057  -4.170  -0.022  0.00  0.00    -0.279 N 
ATOM     24  C   UNL     1       0.174  -4.849   1.136  0.00  0.00    +0.284 C 
ATOM     25  O   UNL     1       0.172  -4.251   2.196  0.00  0.00    -0.266 OA
ATOM     26  H   UNL     1      -0.018  -4.651  -0.861  0.00  0.00    +0.155 HD
BRANCH  23  31
ATOM     27  C   UNL     1       0.004   1.503   0.010  0.00  0.00    +0.045 C 
ATOM     28  C   UNL     1       0.019  -0.004   0.002  0.00  0.00    -0.032 A 
ATOM     29  C   UNL     1      -0.725  -0.696  -0.937  0.00  0.00    +0.006 A 
ATOM     30  C   UNL     1      -0.714  -2.077  -0.947  0.00  0.00    +0.023 A 
ATOM     31  C   UNL     1       0.045  -2.772  -0.014  0.00  0.00    +0.035 A 
ATOM     32  C   UNL     1       0.791  -2.075   0.927  0.00  0.00    +0.043 A 
ATOM     33  C   UNL     1       0.781  -0.692   0.929  0.00  0.00    +0.046 A 
ATOM     34 CL   UNL     1       1.718   0.180   2.101  0.00  0.00    -0.083 Cl
ENDBRANCH  23  31
ENDBRANCH   1  24
TORSDOF 3
