REMARK  Name = ZINC66939889
REMARK  12 active torsions:
REMARK  status: ('A' for Active; 'I' for Inactive)
REMARK    1  A    between atoms: C_1  and  C_2
REMARK    2  A    between atoms: C_2  and  C_4
REMARK    3  A    between atoms: C_2  and  N_16
REMARK    4  A    between atoms: C_4  and  C_5
REMARK    5  A    between atoms: C_5  and  C_6
REMARK    6  A    between atoms: C_9  and  O_12
REMARK    7  A    between atoms: O_12  and  C_13
REMARK    8  A    between atoms: C_13  and  C_14
REMARK    9  A    between atoms: C_13  and  C_15
REMARK   10  A    between atoms: N_16  and  C_17
REMARK   11  A    between atoms: C_17  and  C_19
REMARK   12  A    between atoms: C_17  and  C_26
REMARK                            x       y       z     vdW  Elec       q    Type
REMARK                         _______ _______ _______ _____ _____    ______ ____
ROOT
ATOM      1  N   UNL     1       0.805  -0.736   1.301  0.00  0.00    +0.391 N 
ATOM      2  H   UNL     1       0.438  -0.493   2.209  0.00  0.00    -0.084 HD
ATOM      3  H   UNL     1       0.743  -1.735   1.170  0.00  0.00    -0.084 HD
ENDROOT
BRANCH   1   5
ATOM      4  C   UNL     1       0.016   1.450   0.530  0.00  0.00    -0.014 C 
ATOM      5  C   UNL     1       0.025  -0.056   0.259  0.00  0.00    -0.073 C 
BRANCH   5   6
ATOM      6  C   UNL     1      -1.411  -0.584   0.271  0.00  0.00    -0.011 C 
BRANCH   6   7
ATOM      7  C   UNL     1      -1.414  -2.062  -0.123  0.00  0.00    +0.033 C 
BRANCH   7   8
ATOM      8  C   UNL     1      -2.828  -2.583  -0.112  0.00  0.00    -0.047 A 
ATOM      9  C   UNL     1      -3.356  -3.122   1.047  0.00  0.00    +0.007 A 
ATOM     10  C   UNL     1      -4.652  -3.600   1.060  0.00  0.00    +0.046 A 
ATOM     11  C   UNL     1      -5.424  -3.538  -0.091  0.00  0.00    +0.121 A 
ATOM     12  C   UNL     1      -4.893  -2.996  -1.252  0.00  0.00    +0.046 A 
ATOM     13  C   UNL     1      -3.598  -2.515  -1.258  0.00  0.00    +0.007 A 
BRANCH  11  14
ATOM     14  O   UNL     1      -6.699  -4.008  -0.081  0.00  0.00    -0.489 OA
BRANCH  14  15
ATOM     15  C   UNL     1      -7.221  -4.442   1.176  0.00  0.00    +0.167 C 
ATOM     16  C   UNL     1      -8.748  -4.341   1.157  0.00  0.00    +0.051 C 
ATOM     17  C   UNL     1      -6.810  -5.895   1.425  0.00  0.00    +0.051 C 
ENDBRANCH  14  15
ENDBRANCH  11  14
ENDBRANCH   7   8
ENDBRANCH   6   7
ENDBRANCH   5   6
ENDBRANCH   1   5
BRANCH   1  18
ATOM     18  C   UNL     1       2.210  -0.318   1.213  0.00  0.00    +0.047 C 
BRANCH  18  19
ATOM     19  C   UNL     1       2.987  -0.919   2.356  0.00  0.00    -0.053 A 
ATOM     20  C   UNL     1       2.740  -2.221   2.749  0.00  0.00    +0.005 A 
ATOM     21  C   UNL     1       3.451  -2.774   3.796  0.00  0.00    +0.038 A 
ATOM     22  C   UNL     1       4.412  -2.023   4.452  0.00  0.00    +0.123 A 
ATOM     23  C   UNL     1       4.659  -0.719   4.058  0.00  0.00    +0.038 A 
ATOM     24  C   UNL     1       3.949  -0.170   3.006  0.00  0.00    +0.005 A 
ATOM     25  F   UNL     1       5.108  -2.563   5.477  0.00  0.00    -0.205 F 
ENDBRANCH  18  19
BRANCH  18  26
ATOM     26  C   UNL     1       2.793  -0.789  -0.094  0.00  0.00    +0.201 C 
ATOM     27  O   UNL     1       2.106  -1.413  -0.875  0.00  0.00    -0.277 OA
ATOM     28  N   UNL     1       4.079  -0.518  -0.396  0.00  0.00    -0.330 N 
ATOM     29  H   UNL     1       4.628  -0.019   0.229  0.00  0.00    +0.145 HD
ATOM     30  H   UNL     1       4.454  -0.822  -1.237  0.00  0.00    +0.145 HD
ENDBRANCH  18  26
ENDBRANCH   1  18
TORSDOF 9
