REMARK  Name = ZINC21810986
REMARK  9 active torsions:
REMARK  status: ('A' for Active; 'I' for Inactive)
REMARK    1  A    between atoms: C_1  and  C_2
REMARK    2  A    between atoms: C_2  and  N_3
REMARK    3  A    between atoms: C_7  and  C_9
REMARK    4  A    between atoms: C_9  and  N_10
REMARK    5  A    between atoms: N_10  and  S_11
REMARK    6  A    between atoms: S_11  and  C_14
REMARK    7  A    between atoms: C_16  and  N_22
REMARK    8  A    between atoms: C_18  and  C_21
REMARK    9  A    between atoms: C_19  and  C_20
REMARK                            x       y       z     vdW  Elec       q    Type
REMARK                         _______ _______ _______ _____ _____    ______ ____
ROOT
ATOM      1  S   UNL     1       2.422   0.952  -0.208  0.00  0.00    +0.059 S 
ATOM      2  O   UNL     1       3.278   1.420   0.825  0.00  0.00    -0.153 OA
ATOM      3  O   UNL     1       1.928  -0.380  -0.243  0.00  0.00    -0.153 OA
ENDROOT
BRANCH   1   4
ATOM      4  C   UNL     1       1.014   2.011  -0.213  0.00  0.00    +0.110 A 
ATOM      5  C   UNL     1       0.916   3.034   0.710  0.00  0.00    +0.051 A 
ATOM      6  C   UNL     1      -0.197   3.865   0.708  0.00  0.00    +0.027 A 
ATOM      7  C   UNL     1      -1.203   3.671  -0.230  0.00  0.00    +0.026 A 
ATOM      8  C   UNL     1      -1.099   2.647  -1.150  0.00  0.00    -0.044 A 
ATOM      9  C   UNL     1       0.007   1.817  -1.141  0.00  0.00    -0.021 A 
ATOM     10  C   UNL     1       0.117   0.700  -2.147  0.00  0.00    +0.046 C 
ATOM     11  C   UNL     1      -2.193   2.432  -2.164  0.00  0.00    +0.044 C 
BRANCH   6  12
ATOM     12  N   UNL     1      -0.301   4.897   1.643  0.00  0.00    -0.358 N 
ATOM     13  H   UNL     1      -1.183   5.555   1.641  0.00  0.00    +0.142 HD
ATOM     14  H   UNL     1       0.499   5.053   2.382  0.00  0.00    +0.142 HD
ENDBRANCH   6  12
ENDBRANCH   1   4
BRANCH   1  15
ATOM     15  N   UNL     1       3.224   1.197  -1.635  0.00  0.00    -0.191 NA
ATOM     16  H   UNL     1       3.161   0.434  -2.425  0.00  0.00    +0.148 HD
BRANCH  15  17
ATOM     17  C   UNL     1       3.825   2.502  -1.923  0.00  0.00    +0.090 C 
BRANCH  17  22
ATOM     18  N   UNL     1       5.350   3.687  -3.446  0.00  0.00    +0.382 N 
ATOM     19  C   UNL     1       6.812   3.690  -3.227  0.00  0.00    -0.078 C 
ATOM     20  C   UNL     1       7.227   2.200  -3.311  0.00  0.00    -0.020 C 
ATOM     21  C   UNL     1       6.022   1.500  -2.629  0.00  0.00    -0.016 C 
ATOM     22  C   UNL     1       4.822   2.361  -3.075  0.00  0.00    -0.053 C 
ATOM     23  H   UNL     1       5.130   3.889  -4.505  0.00  0.00    -0.081 HD
BRANCH  18  25
ATOM     24  C   UNL     1       5.341   6.096  -3.006  0.00  0.00    -0.017 C 
ATOM     25  C   UNL     1       4.699   4.750  -2.668  0.00  0.00    -0.082 C 
ENDBRANCH  18  25
ENDBRANCH  17  22
ENDBRANCH  15  17
ENDBRANCH   1  15
TORSDOF 6
