REMARK  Name = ZINC15972243
REMARK  6 active torsions:
REMARK  status: ('A' for Active; 'I' for Inactive)
REMARK    1  A    between atoms: C_1  and  C_2
REMARK    2  A    between atoms: C_2  and  C_3
REMARK    3  A    between atoms: C_2  and  C_4
REMARK    4  A    between atoms: C_4  and  C_5
REMARK    5  A    between atoms: N_13  and  C_16
REMARK    6  A    between atoms: C_16  and  C_17
REMARK                            x       y       z     vdW  Elec       q    Type
REMARK                         _______ _______ _______ _____ _____    ______ ____
ROOT
ATOM      1  C   UNL     1       2.187  -0.073  -1.207  0.00  0.00    +0.068 C 
ATOM      2  C   UNL     1       2.950  -0.635  -2.426  0.00  0.00    +0.107 C 
ATOM      3  C   UNL     1       3.942   0.491  -2.830  0.00  0.00    +0.122 C 
ATOM      4  C   UNL     1       3.455   0.908  -4.199  0.00  0.00    +0.228 C 
ATOM      5  O   UNL     1       3.958   1.769  -4.889  0.00  0.00    -0.275 OA
ATOM      6  N   UNL     1       2.383   0.179  -4.532  0.00  0.00    -0.239 N 
ATOM      7  C   UNL     1       2.008  -0.731  -3.604  0.00  0.00    +0.227 C 
ATOM      8  O   UNL     1       1.073  -1.498  -3.692  0.00  0.00    -0.275 OA
ATOM      9  C   UNL     1       3.689   1.611  -1.813  0.00  0.00    +0.136 C 
ATOM     10  N   UNL     1       2.303   1.405  -1.329  0.00  0.00    -0.295 NA
ATOM     11  C   UNL     1       3.847   2.969  -2.436  0.00  0.00    +0.005 A 
ATOM     12  C   UNL     1       3.226   3.609  -3.485  0.00  0.00    +0.027 A 
ATOM     13  C   UNL     1       3.602   4.896  -3.831  0.00  0.00    +0.041 A 
ATOM     14  C   UNL     1       4.602   5.536  -3.120  0.00  0.00    +0.022 A 
ATOM     15  C   UNL     1       5.224   4.898  -2.067  0.00  0.00    +0.025 A 
ATOM     16  C   UNL     1       4.852   3.604  -1.713  0.00  0.00    +0.039 A 
ATOM     17  N   UNL     1       5.326   2.763  -0.702  0.00  0.00    -0.283 N 
ATOM     18  C   UNL     1       4.694   1.573  -0.694  0.00  0.00    +0.243 C 
ATOM     19  O   UNL     1       4.895   0.651   0.068  0.00  0.00    -0.273 OA
ATOM     20 CL   UNL     1       2.821   5.704  -5.155  0.00  0.00    -0.084 Cl
ATOM     21  H   UNL     1       1.625   1.768  -1.982  0.00  0.00    +0.123 HD
ATOM     22  H   UNL     1       6.028   3.007  -0.080  0.00  0.00    +0.155 HD
ENDROOT
BRANCH   1  23
ATOM     23  C   UNL     1       0.718  -0.497  -1.257  0.00  0.00    +0.022 C 
BRANCH  23  25
ATOM     24  C   UNL     1      -0.019   1.526   0.010  0.00  0.00    +0.007 C 
ATOM     25  C   UNL     1       0.002  -0.004   0.002  0.00  0.00    -0.016 C 
ATOM     26  C   UNL     1      -1.433  -0.534   0.013  0.00  0.00    +0.007 C 
ENDBRANCH  23  25
ENDBRANCH   1  23
BRANCH   6  27
ATOM     27  C   UNL     1       1.674   0.346  -5.803  0.00  0.00    +0.148 C 
BRANCH  27  28
ATOM     28  C   UNL     1       2.287  -0.581  -6.854  0.00  0.00    +0.136 C 
ATOM     29  C   UNL     1       1.627  -0.324  -8.226  0.00  0.00    +0.035 C 
ATOM     30  C   UNL     1       1.504  -1.760  -8.806  0.00  0.00    +0.031 C 
ATOM     31  C   UNL     1       1.238  -2.576  -7.516  0.00  0.00    +0.160 C 
ATOM     32  O   UNL     1       2.039  -1.946  -6.501  0.00  0.00    -0.375 OA
ENDBRANCH  27  28
ENDBRANCH   6  27
TORSDOF 4
