REMARK  Name = ZINC13264385
REMARK  10 active torsions:
REMARK  status: ('A' for Active; 'I' for Inactive)
REMARK    1  A    between atoms: C_1  and  O_2
REMARK    2  A    between atoms: O_2  and  C_3
REMARK    3  A    between atoms: C_5  and  C_15
REMARK    4  A    between atoms: C_7  and  O_13
REMARK    5  A    between atoms: C_8  and  O_9
REMARK    6  A    between atoms: O_9  and  C_10
REMARK    7  A    between atoms: O_13  and  C_14
REMARK    8  A    between atoms: N_16  and  N_17
REMARK    9  A    between atoms: N_17  and  C_18
REMARK   10  A    between atoms: CA_20  and  C_26
REMARK                            x       y       z     vdW  Elec       q    Type
REMARK                         _______ _______ _______ _____ _____    ______ ____
ROOT
ATOM      1  C   UNL     1       2.326   1.049  -0.015  0.00  0.00    +0.138 C 
ATOM      2  N   UNL     1       1.193   1.683  -0.000  0.00  0.00    -0.190 NA
ENDROOT
BRANCH   1   5
ATOM      3  C   UNL     1       5.999   1.834  -0.045  0.00  0.00    +0.166 A 
ATOM      4  C   UNL     1       4.812   1.123  -0.038  0.00  0.00    +0.059 A 
ATOM      5  C   UNL     1       3.592   1.803  -0.023  0.00  0.00    +0.002 A 
ATOM      6  C   UNL     1       3.575   3.200  -0.021  0.00  0.00    +0.059 A 
ATOM      7  C   UNL     1       4.765   3.905  -0.022  0.00  0.00    +0.166 A 
ATOM      8  C   UNL     1       5.979   3.225  -0.038  0.00  0.00    +0.210 A 
BRANCH   3  10
ATOM      9  C   UNL     1       7.134  -0.256  -0.068  0.00  0.00    +0.277 C 
ATOM     10  O   UNL     1       7.187   1.172  -0.061  0.00  0.00    -0.491 OA
ENDBRANCH   3  10
BRANCH   7  11
ATOM     11  O   UNL     1       4.749   5.265  -0.014  0.00  0.00    -0.491 OA
ATOM     12  C   UNL     1       3.469   5.899   0.002  0.00  0.00    +0.277 C 
ENDBRANCH   7  11
BRANCH   8  13
ATOM     13  O   UNL     1       7.147   3.921  -0.045  0.00  0.00    -0.427 OA
BRANCH  13  14
ATOM     14  C   UNL     1       7.693   4.260  -1.322  0.00  0.00    +0.541 C 
ATOM     15  F   UNL     1       7.947   3.090  -2.045  0.00  0.00    -0.166 F 
ATOM     16  F   UNL     1       6.778   5.053  -2.024  0.00  0.00    -0.166 F 
ENDBRANCH  13  14
ENDBRANCH   8  13
ENDBRANCH   1   5
BRANCH   2  17
ATOM     17  N   UNL     1      -0.011   0.966   0.007  0.00  0.00    -0.235 N 
ATOM     18  H   UNL     1       0.002  -0.004   0.002  0.00  0.00    +0.174 HD
BRANCH  17  19
ATOM     19  C   UNL     1      -1.226   1.645   0.017  0.00  0.00    +0.090 A 
ATOM     20  C   UNL     1      -2.418   0.986  -0.291  0.00  0.00    +0.097 A 
ATOM     21  CA  UNL     1      -3.610   1.703  -0.270  0.00  0.00    +0.173 A 
ATOM     22  N   UNL     1      -3.618   2.996   0.040  0.00  0.00    -0.225 NA
ATOM     23  C   UNL     1      -2.511   3.646   0.335  0.00  0.00    +0.150 A 
ATOM     24  C   UNL     1      -1.284   3.000   0.340  0.00  0.00    +0.102 A 
ATOM     25 CL   UNL     1       0.164   3.871   0.738  0.00  0.00    -0.078 Cl
ATOM     26 CL   UNL     1      -2.591   5.335   0.730  0.00  0.00    -0.060 Cl
ATOM     27 CL   UNL     1      -2.412  -0.703  -0.695  0.00  0.00    -0.079 Cl
BRANCH  21  28
ATOM     28  C   UNL     1      -4.882   1.020  -0.594  0.00  0.00    +0.406 C 
ATOM     29  O   UNL     1      -4.881  -0.161  -0.878  0.00  0.00    -0.239 OA
ATOM     30  OXT UNL     1      -6.040   1.708  -0.575  0.00  0.00    -0.239 OA
ENDBRANCH  21  28
ENDBRANCH  17  19
ENDBRANCH   2  17
TORSDOF 8
