REMARK  Name = ZINC35777560
REMARK  14 active torsions:
REMARK  status: ('A' for Active; 'I' for Inactive)
REMARK    1  A    between atoms: C_1  and  C_2
REMARK    2  A    between atoms: C_2  and  C_3
REMARK    3  A    between atoms: C_3  and  C_4
REMARK    4  A    between atoms: C_4  and  C_6
REMARK    5  A    between atoms: C_4  and  O_33
REMARK    6  A    between atoms: C_6  and  N_7
REMARK    7  A    between atoms: N_7  and  C_8
REMARK    8  A    between atoms: N_7  and  C_30
REMARK    9  A    between atoms: C_8  and  C_9
REMARK   10  A    between atoms: C_10  and  C_28
REMARK   11  A    between atoms: N_12  and  C_22
REMARK   12  A    between atoms: C_13  and  O_14
REMARK   13  A    between atoms: O_14  and  C_15
REMARK   14  A    between atoms: C_28  and  C_29
REMARK                            x       y       z     vdW  Elec       q    Type
REMARK                         _______ _______ _______ _____ _____    ______ ____
ROOT
ATOM      1  C   UNL     1       1.826  -5.756  -4.948  0.00  0.00    +0.021 A 
ATOM      2  C   UNL     1       2.482  -6.786  -4.268  0.00  0.00    +0.068 A 
ATOM      3  N   UNL     1       2.139  -7.926  -4.811  0.00  0.00    -0.168 NA
ATOM      4  N   UNL     1       1.249  -7.665  -5.861  0.00  0.00    -0.200 N 
ATOM      5  C   UNL     1       1.065  -6.319  -5.924  0.00  0.00    +0.225 A 
ENDROOT
BRANCH   4   6
ATOM      6  C   UNL     1       0.650  -8.620  -6.693  0.00  0.00    +0.069 A 
ATOM      7  C   UNL     1      -0.669  -8.463  -7.096  0.00  0.00    +0.028 A 
ATOM      8  C   UNL     1      -1.256  -9.406  -7.917  0.00  0.00    +0.002 A 
ATOM      9  C   UNL     1      -0.531 -10.507  -8.337  0.00  0.00    +0.000 A 
ATOM     10  C   UNL     1       0.783 -10.666  -7.937  0.00  0.00    +0.002 A 
ATOM     11  C   UNL     1       1.377  -9.723  -7.121  0.00  0.00    +0.028 A 
ENDBRANCH   4   6
BRANCH   2  12
ATOM     12  C   UNL     1       3.426  -6.613  -3.105  0.00  0.00    +0.054 C 
ATOM     13  C   UNL     1       2.658  -6.790  -1.794  0.00  0.00    +0.010 C 
ENDBRANCH   2  12
BRANCH   1  14
ATOM     14  C   UNL     1       1.937  -4.283  -4.648  0.00  0.00    -0.035 C 
BRANCH  14  15
ATOM     15  N   UNL     1       3.323  -3.844  -4.858  0.00  0.00    +0.386 N 
ATOM     16  H   UNL     1       3.953  -4.497  -4.417  0.00  0.00    -0.081 HD
BRANCH  15  17
ATOM     17  C   UNL     1       3.606  -3.787  -6.298  0.00  0.00    -0.068 C 
ATOM     18  C   UNL     1       2.428  -3.972  -7.257  0.00  0.00    -0.017 C 
ATOM     19  C   UNL     1       3.467  -5.084  -7.098  0.00  0.00    -0.017 C 
ENDBRANCH  15  17
BRANCH  15  20
ATOM     20  C   UNL     1       3.509  -2.511  -4.269  0.00  0.00    -0.046 C 
BRANCH  20  21
ATOM     21  C   UNL     1       4.997  -2.157  -4.267  0.00  0.00    +0.098 C 
BRANCH  21  22
ATOM     22  O   UNL     1       5.446  -1.977  -5.612  0.00  0.00    -0.394 OA
ATOM     23  H   UNL     1       4.986  -1.273  -6.089  0.00  0.00    +0.210 HD
ENDBRANCH  21  22
BRANCH  21  24
ATOM     24  C   UNL     1       5.213  -0.863  -3.480  0.00  0.00    +0.029 C 
BRANCH  24  26
ATOM     25  C   UNL     1       6.927   0.718  -2.584  0.00  0.00    +0.004 C 
ATOM     26  C   UNL     1       6.712  -0.576  -3.372  0.00  0.00    -0.001 C 
ENDBRANCH  24  26
ENDBRANCH  21  24
ENDBRANCH  20  21
ENDBRANCH  15  20
ENDBRANCH  14  15
ENDBRANCH   1  14
BRANCH   5  27
ATOM     27  O   UNL     1       0.269  -5.658  -6.803  0.00  0.00    -0.438 OA
BRANCH  27  28
ATOM     28  C   UNL     1      -0.994  -5.346  -6.410  0.00  0.00    +0.133 A 
ATOM     29  C   UNL     1      -1.400  -5.602  -5.108  0.00  0.00    +0.046 A 
ATOM     30  C   UNL     1      -2.684  -5.285  -4.710  0.00  0.00    +0.006 A 
ATOM     31  C   UNL     1      -3.567  -4.713  -5.608  0.00  0.00    +0.038 A 
ATOM     32  C   UNL     1      -3.165  -4.456  -6.908  0.00  0.00    +0.127 A 
ATOM     33  C   UNL     1      -1.878  -4.767  -7.309  0.00  0.00    +0.084 A 
ATOM     34  F   UNL     1      -4.029  -3.898  -7.784  0.00  0.00    -0.205 F 
ENDBRANCH  27  28
ENDBRANCH   5  27
TORSDOF 12
