REMARK  Name = ZINC07126019
REMARK  4 active torsions:
REMARK  status: ('A' for Active; 'I' for Inactive)
REMARK    1  A    between atoms: C_4  and  C_7
REMARK    2  A    between atoms: C_7  and  O_8
REMARK    3  A    between atoms: O_8  and  C_9
REMARK    4  A    between atoms: C_13  and  C_15
REMARK                            x       y       z     vdW  Elec       q    Type
REMARK                         _______ _______ _______ _____ _____    ______ ____
ROOT
ATOM      1  C   UNL     1       7.507  -2.840   4.289  0.00  0.00    +0.209 C 
ATOM      2  N   UNL     1       8.969  -2.651   4.328  0.00  0.00    -0.294 N 
ATOM      3  C   UNL     1       9.768  -3.679   3.847  0.00  0.00    +0.159 C 
ATOM      4  N   UNL     1       9.521  -4.951   4.365  0.00  0.00    -0.259 N 
ATOM      5  C   UNL     1       8.188  -5.221   4.660  0.00  0.00    +0.205 A 
ATOM      6  N   UNL     1       7.223  -4.237   4.638  0.00  0.00    -0.288 N 
ATOM      7  C   UNL     1       6.039  -4.822   4.984  0.00  0.00    +0.072 A 
ATOM      8  C   UNL     1       4.749  -4.328   5.133  0.00  0.00    +0.028 A 
ATOM      9  C   UNL     1       3.766  -5.231   5.503  0.00  0.00    +0.002 A 
ATOM     10  C   UNL     1       4.043  -6.570   5.719  0.00  0.00    +0.002 A 
ATOM     11  C   UNL     1       5.319  -7.086   5.578  0.00  0.00    +0.030 A 
ATOM     12  C   UNL     1       6.328  -6.192   5.205  0.00  0.00    +0.091 A 
ATOM     13  N   UNL     1       7.651  -6.364   4.988  0.00  0.00    -0.214 NA
ATOM     14  N   UNL     1      10.698  -3.467   2.960  0.00  0.00    -0.375 N 
ATOM     15  H   UNL     1       9.359  -1.835   4.678  0.00  0.00    +0.151 HD
ATOM     16  H   UNL     1      10.847  -2.572   2.617  0.00  0.00    +0.158 HD
ATOM     17  H   UNL     1      10.227  -5.600   4.508  0.00  0.00    +0.158 HD
ATOM     18  H   UNL     1      11.242  -4.205   2.642  0.00  0.00    +0.158 HD
ENDROOT
BRANCH   1  23
ATOM     19  C   UNL     1       5.319  -1.605   1.466  0.00  0.00    +0.121 A 
ATOM     20  C   UNL     1       6.048  -2.007   0.357  0.00  0.00    +0.045 A 
ATOM     21  C   UNL     1       7.245  -2.676   0.525  0.00  0.00    +0.004 A 
ATOM     22  C   UNL     1       7.716  -2.945   1.797  0.00  0.00    +0.007 A 
ATOM     23  C   UNL     1       6.991  -2.545   2.904  0.00  0.00    -0.003 A 
ATOM     24  C   UNL     1       5.796  -1.871   2.742  0.00  0.00    +0.053 A 
BRANCH  19  25
ATOM     25  O   UNL     1       4.141  -0.946   1.304  0.00  0.00    -0.487 OA
BRANCH  25  26
ATOM     26  C   UNL     1       3.711  -0.707  -0.038  0.00  0.00    +0.264 C 
BRANCH  26  30
ATOM     27  C   UNL     1      -0.017   1.378   0.010  0.00  0.00    +0.000 A 
ATOM     28  C   UNL     1       1.171   2.086   0.002  0.00  0.00    +0.000 A 
ATOM     29  C   UNL     1       2.377   1.411  -0.013  0.00  0.00    +0.007 A 
ATOM     30  C   UNL     1       2.396   0.029  -0.020  0.00  0.00    -0.010 A 
ATOM     31  C   UNL     1       1.208  -0.679  -0.012  0.00  0.00    +0.007 A 
ATOM     32  C   UNL     1       0.002  -0.004   0.002  0.00  0.00    +0.000 A 
ENDBRANCH  26  30
ENDBRANCH  25  26
ENDBRANCH  19  25
ENDBRANCH   1  23
TORSDOF 4
