REMARK  Name = ZINC12566261
REMARK  9 active torsions:
REMARK  status: ('A' for Active; 'I' for Inactive)
REMARK    1  A    between atoms: C_1  and  N_2
REMARK    2  A    between atoms: C_3  and  N_32
REMARK    3  A    between atoms: C_4  and  C_11
REMARK    4  A    between atoms: N_7  and  C_10
REMARK    5  A    between atoms: C_11  and  C_13
REMARK    6  A    between atoms: C_13  and  S_14
REMARK    7  A    between atoms: S_14  and  C_15
REMARK    8  A    between atoms: N_16  and  C_17
REMARK    9  A    between atoms: N_24  and  C_25
REMARK                            x       y       z     vdW  Elec       q    Type
REMARK                         _______ _______ _______ _____ _____    ______ ____
ROOT
ATOM      1  C   UNL     1      -4.304  -7.147   0.782  0.00  0.00    +0.159 C 
ATOM      2  N   UNL     1      -3.150  -7.769   0.872  0.00  0.00    -0.225 NA
ATOM      3  N   UNL     1      -5.203  -7.504  -0.194  0.00  0.00    -0.293 N 
ATOM      4  H   UNL     1      -5.007  -8.247  -0.785  0.00  0.00    +0.154 HD
ENDROOT
BRANCH   2   5
ATOM      5  C   UNL     1      -2.785  -8.677  -0.087  0.00  0.00    +0.085 A 
ATOM      6  C   UNL     1      -2.841  -8.331  -1.438  0.00  0.00    +0.029 A 
ATOM      7  C   UNL     1      -2.473  -9.250  -2.398  0.00  0.00    +0.002 A 
ATOM      8  C   UNL     1      -2.049 -10.514  -2.025  0.00  0.00    +0.002 A 
ATOM      9  C   UNL     1      -1.991 -10.864  -0.688  0.00  0.00    +0.022 A 
ATOM     10  C   UNL     1      -2.351  -9.952   0.284  0.00  0.00    +0.066 A 
ATOM     11 CL   UNL     1      -2.270 -10.390   1.962  0.00  0.00    -0.081 Cl
ENDBRANCH   2   5
BRANCH   3  12
ATOM     12  C   UNL     1      -6.401  -6.795  -0.335  0.00  0.00    +0.051 A 
ATOM     13  C   UNL     1      -6.381  -5.412  -0.455  0.00  0.00    +0.025 A 
ATOM     14  C   UNL     1      -7.565  -4.715  -0.594  0.00  0.00    +0.002 A 
ATOM     15  C   UNL     1      -8.771  -5.392  -0.613  0.00  0.00    +0.002 A 
ATOM     16  C   UNL     1      -8.795  -6.769  -0.493  0.00  0.00    +0.022 A 
ATOM     17  C   UNL     1      -7.613  -7.474  -0.360  0.00  0.00    +0.062 A 
ATOM     18 CL   UNL     1      -7.644  -9.204  -0.217  0.00  0.00    -0.082 Cl
ENDBRANCH   3  12
BRANCH   1  19
ATOM     19  S   UNL     1      -4.698  -5.855   1.914  0.00  0.00    -0.082 S 
BRANCH  19  20
ATOM     20  C   UNL     1      -3.239  -5.750   2.987  0.00  0.00    +0.157 C 
BRANCH  20  21
ATOM     21  C   UNL     1      -3.448  -4.669   4.015  0.00  0.00    +0.182 C 
ATOM     22  O   UNL     1      -4.481  -4.030   4.023  0.00  0.00    -0.291 OA
BRANCH  21  26
ATOM     23  C   UNL     1      -1.878  -2.303   8.004  0.00  0.00    +0.155 C 
ATOM     24  N   UNL     1      -1.659  -3.254   6.911  0.00  0.00    -0.284 N 
ATOM     25  C   UNL     1      -2.662  -3.483   6.013  0.00  0.00    +0.116 A 
ATOM     26  C   UNL     1      -2.443  -4.397   4.968  0.00  0.00    +0.120 A 
ATOM     27  C   UNL     1      -1.135  -5.062   4.900  0.00  0.00    +0.269 A 
ATOM     28  O   UNL     1      -0.890  -5.862   4.016  0.00  0.00    -0.267 OA
ATOM     29  N   UNL     1      -0.211  -4.766   5.837  0.00  0.00    -0.263 N 
ATOM     30  C   UNL     1      -0.476  -3.879   6.810  0.00  0.00    +0.333 A 
ATOM     31  O   UNL     1       0.386  -3.637   7.632  0.00  0.00    -0.246 OA
ATOM     32  C   UNL     1       1.101  -5.416   5.789  0.00  0.00    +0.157 C 
BRANCH  25  33
ATOM     33  N   UNL     1      -3.854  -2.837   6.128  0.00  0.00    -0.344 N 
ATOM     34  H   UNL     1      -4.037  -2.292   6.909  0.00  0.00    +0.144 HD
ATOM     35  H   UNL     1      -4.522  -2.923   5.429  0.00  0.00    +0.144 HD
ENDBRANCH  25  33
ENDBRANCH  21  26
ENDBRANCH  20  21
ENDBRANCH  19  20
ENDBRANCH   1  19
TORSDOF 7
