REMARK  Name = ZINC45551785
REMARK  11 active torsions:
REMARK  status: ('A' for Active; 'I' for Inactive)
REMARK    1  A    between atoms: C_1  and  C_2
REMARK    2  A    between atoms: C_2  and  C_3
REMARK    3  A    between atoms: C_2  and  C_15
REMARK    4  A    between atoms: C_2  and  N_19
REMARK    5  A    between atoms: C_3  and  C_4
REMARK    6  A    between atoms: C_4  and  C_5
REMARK    7  A    between atoms: C_5  and  C_6
REMARK    8  A    between atoms: C_6  and  S_7
REMARK    9  A    between atoms: S_7  and  C_8
REMARK   10  A    between atoms: C_15  and  O_17
REMARK   11  A    between atoms: O_17  and  C_18
REMARK                            x       y       z     vdW  Elec       q    Type
REMARK                         _______ _______ _______ _____ _____    ______ ____
ROOT
ATOM      1  C   UNL     1       0.742  -0.511   1.242  0.00  0.00    -0.002 C 
ENDROOT
BRANCH   1   3
ATOM      2  C   UNL     1      -0.019   1.526   0.010  0.00  0.00    +0.001 C 
ATOM      3  C   UNL     1       0.002  -0.004   0.002  0.00  0.00    +0.025 C 
BRANCH   3   4
ATOM      4  N   UNL     1      -1.376  -0.512   0.012  0.00  0.00    +0.389 N 
ATOM      5  H   UNL     1      -1.864  -0.178  -0.805  0.00  0.00    -0.088 HD
ATOM      6  H   UNL     1      -1.362  -1.521   0.007  0.00  0.00    -0.088 HD
ATOM      7  H   UNL     1      -1.848  -0.187   0.843  0.00  0.00    -0.088 HD
ENDBRANCH   3   4
BRANCH   3   8
ATOM      8  C   UNL     1       0.707  -0.490  -1.238  0.00  0.00    +0.295 C 
ATOM      9  O   UNL     1       1.884  -0.762  -1.196  0.00  0.00    -0.252 OA
BRANCH   8  10
ATOM     10  O   UNL     1       0.029  -0.621  -2.388  0.00  0.00    -0.469 OA
ATOM     11  C   UNL     1       0.760  -1.087  -3.524  0.00  0.00    +0.280 C 
ENDBRANCH   8  10
ENDBRANCH   3   8
ENDBRANCH   1   3
BRANCH   1  12
ATOM     12  C   UNL     1      -0.042  -0.124   2.497  0.00  0.00    -0.000 C 
BRANCH  12  13
ATOM     13  C   UNL     1       0.698  -0.630   3.737  0.00  0.00    +0.011 C 
BRANCH  13  14
ATOM     14  C   UNL     1      -0.085  -0.243   4.992  0.00  0.00    +0.074 C 
BRANCH  14  15
ATOM     15  S   UNL     1       0.792  -0.844   6.462  0.00  0.00    -0.125 S 
BRANCH  15  16
ATOM     16  C   UNL     1      -0.223  -0.326   7.806  0.00  0.00    +0.008 A 
ATOM     17  C   UNL     1      -1.399   0.372   7.561  0.00  0.00    +0.016 A 
ATOM     18  C   UNL     1      -2.193   0.776   8.617  0.00  0.00    +0.016 A 
ATOM     19  C   UNL     1      -1.818   0.487   9.917  0.00  0.00    +0.018 A 
ATOM     20  C   UNL     1      -0.647  -0.209  10.164  0.00  0.00    +0.016 A 
ATOM     21  C   UNL     1       0.148  -0.620   9.113  0.00  0.00    +0.016 A 
ATOM     22 BR   UNL     1      -2.907   1.043  11.359  0.00  0.00    -0.050 Br
ENDBRANCH  15  16
ENDBRANCH  14  15
ENDBRANCH  13  14
ENDBRANCH  12  13
ENDBRANCH   1  12
TORSDOF 9
