REMARK  Name = ZINC64191087
REMARK  6 active torsions:
REMARK  status: ('A' for Active; 'I' for Inactive)
REMARK    1  A    between atoms: C_7  and  C_10
REMARK    2  A    between atoms: C_10  and  C_12
REMARK    3  A    between atoms: C_10  and  C_30
REMARK    4  A    between atoms: C_12  and  N_13
REMARK    5  A    between atoms: C_14  and  C_16
REMARK    6  A    between atoms: C_23  and  C_25
REMARK                            x       y       z     vdW  Elec       q    Type
REMARK                         _______ _______ _______ _____ _____    ______ ____
ROOT
ATOM      1  C   UNL     1       0.745  -3.208  -0.464  0.00  0.00    +0.066 C 
ENDROOT
BRANCH   1   8
ATOM      2  C   UNL     1       0.152   1.272  -1.260  0.00  0.00    +0.001 A 
ATOM      3  C   UNL     1       1.339   2.016  -1.196  0.00  0.00    +0.002 A 
ATOM      4  C   UNL     1       2.537   1.456  -0.925  0.00  0.00    +0.026 A 
ATOM      5  C   UNL     1       2.640   0.058  -0.689  0.00  0.00    +0.043 A 
ATOM      6  N   UNL     1       3.668  -0.708  -0.412  0.00  0.00    -0.380 N 
ATOM      7  C   UNL     1       3.196  -2.089  -0.267  0.00  0.00    +0.145 C 
ATOM      8  C   UNL     1       1.703  -2.045  -0.500  0.00  0.00    -0.033 C 
ATOM      9  C   UNL     1       1.401  -0.750  -0.750  0.00  0.00    -0.000 A 
ATOM     10  C   UNL     1       0.139  -0.064  -1.051  0.00  0.00    +0.010 A 
ATOM     11  H   UNL     1       4.586  -0.410  -0.320  0.00  0.00    +0.160 HD
ENDBRANCH   1   8
BRANCH   1  12
ATOM     12  C   UNL     1       0.781  -3.845   0.901  0.00  0.00    -0.020 A 
ATOM     13  C   UNL     1       1.964  -4.366   1.391  0.00  0.00    +0.006 A 
ATOM     14  C   UNL     1       1.997  -4.950   2.643  0.00  0.00    +0.000 A 
ATOM     15  C   UNL     1       0.847  -5.015   3.407  0.00  0.00    +0.001 A 
ATOM     16  C   UNL     1      -0.337  -4.495   2.919  0.00  0.00    +0.020 A 
ATOM     17  C   UNL     1      -0.369  -3.904   1.668  0.00  0.00    +0.045 A 
ATOM     18 CL   UNL     1      -1.855  -3.245   1.057  0.00  0.00    -0.083 Cl
ENDBRANCH   1  12
BRANCH   1  19
ATOM     19  C   UNL     1       1.153  -4.238  -1.518  0.00  0.00    +0.116 C 
BRANCH  19  20
ATOM     20  N   UNL     1       0.156  -5.311  -1.565  0.00  0.00    -0.314 N 
ATOM     21  C   UNL     1       0.309  -6.336  -2.427  0.00  0.00    +0.218 C 
ATOM     22  O   UNL     1       1.271  -6.370  -3.164  0.00  0.00    -0.275 OA
ATOM     23  H   UNL     1      -0.614  -5.283  -0.976  0.00  0.00    +0.149 HD
BRANCH  21  24
ATOM     24  C   UNL     1      -0.717  -7.439  -2.475  0.00  0.00    +0.092 C 
ATOM     25  C   UNL     1      -0.308  -8.471  -3.529  0.00  0.00    +0.016 C 
ATOM     26  C   UNL     1      -1.366  -9.575  -3.601  0.00  0.00    +0.020 C 
ATOM     27  C   UNL     1      -1.457 -10.279  -2.244  0.00  0.00    +0.108 C 
ATOM     28  N   UNL     1      -1.706  -9.272  -1.204  0.00  0.00    -0.294 N 
ATOM     29  C   UNL     1      -0.801  -8.119  -1.105  0.00  0.00    +0.121 C 
ATOM     30  C   UNL     1      -2.746  -9.403  -0.356  0.00  0.00    +0.282 C 
ATOM     31  O   UNL     1      -2.875  -8.628   0.573  0.00  0.00    -0.267 OA
BRANCH  30  32
ATOM     32  C   UNL     1      -3.722 -10.479  -0.554  0.00  0.00    +0.189 A 
ATOM     33  C   UNL     1      -4.739 -10.807   0.296  0.00  0.00    +0.054 A 
ATOM     34  C   UNL     1      -5.419 -11.888  -0.285  0.00  0.00    +0.042 A 
ATOM     35  C   UNL     1      -4.796 -12.170  -1.450  0.00  0.00    +0.196 A 
ATOM     36  O   UNL     1      -3.777 -11.315  -1.611  0.00  0.00    -0.458 OA
ENDBRANCH  30  32
ENDBRANCH  21  24
ENDBRANCH  19  20
ENDBRANCH   1  19
TORSDOF 6
