REMARK  Name = ZINC35361450
REMARK  9 active torsions:
REMARK  status: ('A' for Active; 'I' for Inactive)
REMARK    1  A    between atoms: C_1  and  C_2
REMARK    2  A    between atoms: C_5  and  O_45
REMARK    3  A    between atoms: C_18  and  C_44
REMARK    4  A    between atoms: C_23  and  C_24
REMARK    5  A    between atoms: C_24  and  C_26
REMARK    6  A    between atoms: C_26  and  C_27
REMARK    7  A    between atoms: C_34  and  O_35
REMARK    8  A    between atoms: O_35  and  C_36
REMARK    9  A    between atoms: N_42  and  C_43
REMARK                            x       y       z     vdW  Elec       q    Type
REMARK                         _______ _______ _______ _____ _____    ______ ____
ROOT
ATOM      1  C   UNL     1       0.287   1.702  -0.020  0.00  0.00    +0.012 C 
ATOM      2  C   UNL     1       0.281   0.177   0.001  0.00  0.00    -0.026 C 
ATOM      3  C   UNL     1      -1.157  -0.307   0.244  0.00  0.00    +0.010 C 
ATOM      4  C   UNL     1      -1.677   0.198   1.587  0.00  0.00    +0.032 C 
ATOM      5  C   UNL     1      -0.774  -0.274   2.726  0.00  0.00    +0.115 C 
ATOM      6  C   UNL     1       0.661   0.201   2.488  0.00  0.00    +0.035 C 
ATOM      7  C   UNL     1       1.155  -0.336   1.150  0.00  0.00    -0.002 C 
ATOM      8  C   UNL     1       2.611   0.053   0.911  0.00  0.00    +0.004 C 
ATOM      9  C   UNL     1       3.104  -0.660  -0.351  0.00  0.00    +0.004 C 
ATOM     10  C   UNL     1       2.265  -0.239  -1.557  0.00  0.00    -0.003 C 
ATOM     11  C   UNL     1       0.784  -0.415  -1.307  0.00  0.00    -0.001 C 
ATOM     12  C   UNL     1      -0.043   0.005  -2.511  0.00  0.00    +0.005 C 
ATOM     13  C   UNL     1       0.343   1.354  -3.083  0.00  0.00    +0.012 C 
ATOM     14  C   UNL     1       1.820   1.589  -3.235  0.00  0.00    -0.001 C 
ATOM     15  C   UNL     1       2.652   1.165  -2.009  0.00  0.00    +0.006 C 
ATOM     16  C   UNL     1       4.051   1.031  -2.694  0.00  0.00    +0.032 C 
ATOM     17  C   UNL     1       3.713   0.545  -4.089  0.00  0.00    -0.019 C 
ATOM     18  C   UNL     1       2.448   0.864  -4.395  0.00  0.00    -0.003 C 
ATOM     19  C   UNL     1       2.035   3.095  -3.450  0.00  0.00    +0.016 C 
ENDROOT
BRANCH  18  20
ATOM     20  C   UNL     1       1.801   0.556  -5.671  0.00  0.00    +0.158 C 
ATOM     21  O   UNL     1       0.685   0.973  -5.901  0.00  0.00    -0.292 OA
BRANCH  20  22
ATOM     22  C   UNL     1       2.521  -0.278  -6.699  0.00  0.00    +0.069 C 
BRANCH  22  23
ATOM     23  C   UNL     1       1.686  -0.341  -7.980  0.00  0.00    -0.027 C 
ATOM     24  C   UNL     1       1.372   1.059  -8.437  0.00  0.00    -0.012 A 
ATOM     25  C   UNL     1       0.128   1.401  -8.926  0.00  0.00    -0.040 A 
ATOM     26  C   UNL     1      -0.122   2.699  -9.340  0.00  0.00    +0.053 A 
ATOM     27  C   UNL     1       0.869   3.663  -9.266  0.00  0.00    +0.170 A 
ATOM     28  C   UNL     1       2.124   3.325  -8.773  0.00  0.00    +0.208 A 
ATOM     29  C   UNL     1       2.372   2.023  -8.359  0.00  0.00    +0.167 A 
ATOM     30  O   UNL     1       2.919   4.435  -8.800  0.00  0.00    -0.449 OA
ATOM     31  C   UNL     1       2.264   5.354  -9.694  0.00  0.00    +0.467 C 
ATOM     32  O   UNL     1       0.875   4.986  -9.604  0.00  0.00    -0.452 OA
ATOM     33  C   UNL     1      -0.984   0.387  -9.020  0.00  0.00    +0.017 C 
ATOM     34  C   UNL     1      -0.408  -1.025  -8.908  0.00  0.00    -0.074 C 
ATOM     35  N   UNL     1       0.452  -1.087  -7.717  0.00  0.00    +0.383 N 
ATOM     36  C   UNL     1       0.778  -2.488  -7.419  0.00  0.00    -0.095 C 
ATOM     37  H   UNL     1      -0.029  -0.676  -6.931  0.00  0.00    -0.081 HD
BRANCH  29  38
ATOM     38  O   UNL     1       3.598   1.688  -7.875  0.00  0.00    -0.491 OA
ATOM     39  C   UNL     1       4.565   1.227  -8.821  0.00  0.00    +0.277 C 
ENDBRANCH  29  38
ENDBRANCH  22  23
ENDBRANCH  20  22
ENDBRANCH  18  20
BRANCH   5  40
ATOM     40  O   UNL     1      -1.250   0.260   3.964  0.00  0.00    -0.392 OA
ATOM     41  H   UNL     1      -2.152  -0.007   4.186  0.00  0.00    +0.210 HD
ENDBRANCH   5  40
TORSDOF 5
