REMARK  Name = ZINC39673558
REMARK  7 active torsions:
REMARK  status: ('A' for Active; 'I' for Inactive)
REMARK    1  A    between atoms: C_1  and  C_2
REMARK    2  A    between atoms: C_2  and  C_3
REMARK    3  A    between atoms: C_3  and  C_4
REMARK    4  A    between atoms: C_4  and  C_6
REMARK    5  A    between atoms: C_4  and  N_7
REMARK    6  A    between atoms: C_8  and  C_10
REMARK    7  A    between atoms: C_21  and  C_23
REMARK                            x       y       z     vdW  Elec       q    Type
REMARK                         _______ _______ _______ _____ _____    ______ ____
ROOT
ATOM      1  C   UNL     1      -0.224  -4.483  -2.403  0.00  0.00    +0.100 C 
ATOM      2  C   UNL     1      -1.107  -4.597  -3.666  0.00  0.00    +0.121 C 
ATOM      3  N   UNL     1      -0.589  -5.790  -4.377  0.00  0.00    -0.296 N 
ATOM      4  C   UNL     1      -0.287  -6.761  -3.298  0.00  0.00    +0.115 C 
ATOM      5  C   UNL     1       0.312  -5.905  -2.165  0.00  0.00    -0.004 C 
ATOM      6  C   UNL     1      -0.155  -6.425  -0.809  0.00  0.00    -0.010 C 
ATOM      7  C   UNL     1       0.438  -7.816  -0.569  0.00  0.00    -0.082 C 
ATOM      8  N   UNL     1       1.903  -7.739  -0.608  0.00  0.00    +0.379 N 
ATOM      9  C   UNL     1       2.347  -7.328  -1.945  0.00  0.00    -0.082 C 
ATOM     10  C   UNL     1       1.835  -5.915  -2.243  0.00  0.00    -0.010 C 
ATOM     11  C   UNL     1      -0.429  -5.954  -5.705  0.00  0.00    +0.247 C 
ATOM     12  O   UNL     1      -0.619  -5.021  -6.461  0.00  0.00    -0.270 OA
ATOM     13  H   UNL     1       2.221  -7.066   0.073  0.00  0.00    -0.086 HD
ATOM     14  H   UNL     1       2.292  -8.645  -0.390  0.00  0.00    -0.086 HD
ENDROOT
BRANCH  11  15
ATOM     15  C   UNL     1      -0.022  -7.270  -6.244  0.00  0.00    +0.040 A 
ATOM     16  C   UNL     1      -0.231  -8.428  -5.494  0.00  0.00    +0.033 A 
ATOM     17  C   UNL     1       0.151  -9.654  -6.002  0.00  0.00    +0.043 A 
ATOM     18  C   UNL     1       0.741  -9.735  -7.252  0.00  0.00    +0.040 A 
ATOM     19  C   UNL     1       0.951  -8.589  -8.000  0.00  0.00    +0.043 A 
ATOM     20  C   UNL     1       0.567  -7.359  -7.506  0.00  0.00    +0.033 A 
ATOM     21 CL   UNL     1       1.691  -8.701  -9.566  0.00  0.00    -0.083 Cl
ATOM     22 CL   UNL     1      -0.107 -11.096  -5.071  0.00  0.00    -0.083 Cl
ENDBRANCH  11  15
BRANCH   1  24
ATOM     23  N   UNL     1      -0.473  -3.318  -0.235  0.00  0.00    -0.312 N 
ATOM     24  C   UNL     1      -1.048  -4.028  -1.226  0.00  0.00    +0.218 C 
ATOM     25  O   UNL     1      -2.228  -4.302  -1.170  0.00  0.00    -0.275 OA
ATOM     26  H   UNL     1       0.471  -3.099  -0.279  0.00  0.00    +0.149 HD
BRANCH  23  27
ATOM     27  C   UNL     1      -1.274  -2.876   0.909  0.00  0.00    +0.070 C 
ATOM     28  C   UNL     1      -1.970  -1.558   0.566  0.00  0.00    +0.028 C 
BRANCH  27  29
ATOM     29  C   UNL     1      -0.363  -2.672   2.121  0.00  0.00    +0.022 C 
BRANCH  29  31
ATOM     30  C   UNL     1       1.147  -3.812   3.753  0.00  0.00    +0.004 C 
ATOM     31  C   UNL     1       0.236  -4.016   2.541  0.00  0.00    -0.002 C 
ENDBRANCH  29  31
ENDBRANCH  27  29
ENDBRANCH  23  27
ENDBRANCH   1  24
TORSDOF 5
