REMARK  Name = ZINC13262722
REMARK  6 active torsions:
REMARK  status: ('A' for Active; 'I' for Inactive)
REMARK    1  A    between atoms: C_6  and  S_7
REMARK    2  A    between atoms: S_7  and  O_10
REMARK    3  A    between atoms: O_10  and  C_11
REMARK    4  A    between atoms: C_14  and  S_19
REMARK    5  A    between atoms: C_16  and  C_17
REMARK    6  A    between atoms: S_19  and  N_22
REMARK                            x       y       z     vdW  Elec       q    Type
REMARK                         _______ _______ _______ _____ _____    ______ ____
ROOT
ATOM      1  C   UNL     1      -2.350   2.682   3.692  0.00  0.00    +0.171 A 
ATOM      2  C   UNL     1      -1.425   3.541   3.119  0.00  0.00    +0.051 A 
ATOM      3  C   UNL     1      -0.714   3.148   2.002  0.00  0.00    +0.032 A 
ATOM      4  C   UNL     1      -0.927   1.900   1.439  0.00  0.00    +0.106 A 
ATOM      5  C   UNL     1      -1.842   1.033   1.995  0.00  0.00    +0.047 A 
ATOM      6  C   UNL     1      -2.564   1.416   3.129  0.00  0.00    +0.109 A 
ENDROOT
BRANCH   6   7
ATOM      7  C   UNL     1      -3.544   0.493   3.730  0.00  0.00    +0.390 C 
ATOM      8  O   UNL     1      -4.170   0.829   4.716  0.00  0.00    -0.240 OA
ATOM      9  O   UNL     1      -3.747  -0.723   3.185  0.00  0.00    -0.240 OA
ENDBRANCH   6   7
BRANCH   4  10
ATOM     10  S   UNL     1      -0.017   1.417   0.010  0.00  0.00    +0.061 S 
ATOM     11  O   UNL     1       0.002  -0.004   0.002  0.00  0.00    -0.153 OA
ATOM     12  O   UNL     1       1.172   2.195   0.003  0.00  0.00    -0.153 OA
BRANCH  10  13
ATOM     13  N   UNL     1      -0.897   1.885  -1.312  0.00  0.00    -0.172 NA
ATOM     14  C   UNL     1      -1.888   0.984  -1.921  0.00  0.00    +0.137 C 
ATOM     15  C   UNL     1      -3.209   1.756  -2.073  0.00  0.00    +0.177 C 
ATOM     16  O   UNL     1      -2.958   2.982  -2.764  0.00  0.00    -0.377 OA
ATOM     17  C   UNL     1      -2.082   3.875  -2.072  0.00  0.00    +0.177 C 
ATOM     18  C   UNL     1      -0.708   3.214  -1.917  0.00  0.00    +0.137 C 
ENDBRANCH  10  13
ENDBRANCH   4  10
BRANCH   1  19
ATOM     19  O   UNL     1      -3.045   3.064   4.793  0.00  0.00    -0.341 OA
BRANCH  19  20
ATOM     20  S   UNL     1      -2.367   2.709   6.108  0.00  0.00    +0.151 S 
ATOM     21  O   UNL     1      -3.307   2.985   7.137  0.00  0.00    -0.131 OA
ATOM     22  O   UNL     1      -1.786   1.424   5.931  0.00  0.00    -0.131 OA
BRANCH  20  28
ATOM     23  C   UNL     1       0.222   3.527   5.839  0.00  0.00    +0.034 A 
ATOM     24  C   UNL     1       1.273   4.412   6.004  0.00  0.00    +0.051 A 
ATOM     25  C   UNL     1       1.066   5.607   6.671  0.00  0.00    +0.162 A 
ATOM     26  C   UNL     1      -0.193   5.918   7.167  0.00  0.00    +0.164 A 
ATOM     27  C   UNL     1      -1.243   5.032   6.996  0.00  0.00    +0.080 A 
ATOM     28  C   UNL     1      -1.033   3.839   6.328  0.00  0.00    +0.132 A 
ATOM     29  O   UNL     1      -0.387   7.099   7.822  0.00  0.00    -0.488 OA
ATOM     30  C   UNL     1       0.259   7.223   9.091  0.00  0.00    +0.232 C 
ATOM     31  C   UNL     1       1.699   7.682   8.920  0.00  0.00    +0.082 C 
ATOM     32  C   UNL     1       2.551   6.657   8.188  0.00  0.00    +0.232 C 
ATOM     33  O   UNL     1       2.095   6.486   6.844  0.00  0.00    -0.488 OA
ENDBRANCH  20  28
ENDBRANCH  19  20
ENDBRANCH   1  19
TORSDOF 6
