REMARK  Name = ZINC01033176
REMARK  10 active torsions:
REMARK  status: ('A' for Active; 'I' for Inactive)
REMARK    1  A    between atoms: C_1  and  C_2
REMARK    2  A    between atoms: C_3  and  O_27
REMARK    3  A    between atoms: C_4  and  C_25
REMARK    4  A    between atoms: C_5  and  C_8
REMARK    5  A    between atoms: C_8  and  S_9
REMARK    6  A    between atoms: S_9  and  C_10
REMARK    7  A    between atoms: C_10  and  C_11
REMARK    8  A    between atoms: N_13  and  C_14
REMARK    9  A    between atoms: C_16  and  C_21
REMARK   10  A    between atoms: C_25  and  O_26
REMARK                            x       y       z     vdW  Elec       q    Type
REMARK                         _______ _______ _______ _____ _____    ______ ____
ROOT
ATOM      1  C   UNL     1      -3.540   5.237  -6.242  0.00  0.00    +0.165 C 
ENDROOT
BRANCH   1   2
ATOM      2  C   UNL     1      -3.598   6.737  -6.376  0.00  0.00    +0.227 C 
ATOM      3  O   UNL     1      -3.128   7.443  -5.509  0.00  0.00    -0.275 OA
ATOM      4  N   UNL     1      -4.172   7.295  -7.461  0.00  0.00    -0.284 N 
ATOM      5  H   UNL     1      -4.476   6.734  -8.191  0.00  0.00    +0.155 HD
BRANCH   4   6
ATOM      6  C   UNL     1      -4.330   8.684  -7.533  0.00  0.00    +0.052 A 
ATOM      7  C   UNL     1      -4.396   9.438  -6.369  0.00  0.00    +0.037 A 
ATOM      8  C   UNL     1      -4.551  10.809  -6.444  0.00  0.00    +0.057 A 
ATOM      9  C   UNL     1      -4.641  11.430  -7.676  0.00  0.00    +0.014 A 
ATOM     10  C   UNL     1      -4.576  10.683  -8.837  0.00  0.00    +0.022 A 
ATOM     11  C   UNL     1      -4.415   9.312  -8.770  0.00  0.00    +0.062 A 
ATOM     12 CL   UNL     1      -4.326   8.374 -10.228  0.00  0.00    -0.082 Cl
BRANCH   8  13
ATOM     13  C   UNL     1      -4.622  11.627  -5.181  0.00  0.00    +0.417 C 
ATOM     14  F   UNL     1      -3.333  12.028  -4.811  0.00  0.00    -0.166 F 
ATOM     15  F   UNL     1      -5.416  12.758  -5.402  0.00  0.00    -0.166 F 
ATOM     16  F   UNL     1      -5.182  10.857  -4.156  0.00  0.00    -0.166 F 
ENDBRANCH   8  13
ENDBRANCH   4   6
ENDBRANCH   1   2
BRANCH   1  17
ATOM     17  S   UNL     1      -2.714   4.801  -4.687  0.00  0.00    -0.147 S 
BRANCH  17  18
ATOM     18  C   UNL     1      -2.726   2.988  -4.677  0.00  0.00    +0.106 C 
BRANCH  18  23
ATOM     19  C   UNL     1      -0.052   1.083   0.027  0.00  0.00    +0.067 C 
ATOM     20  C   UNL     1      -0.778   1.583  -1.195  0.00  0.00    +0.055 A 
ATOM     21  C   UNL     1      -2.147   1.803  -1.138  0.00  0.00    +0.141 A 
ATOM     22  C   UNL     1      -2.804   2.265  -2.274  0.00  0.00    +0.026 A 
ATOM     23  C   UNL     1      -2.060   2.487  -3.421  0.00  0.00    -0.013 A 
ATOM     24  C   UNL     1      -0.699   2.245  -3.400  0.00  0.00    +0.087 A 
ATOM     25  N   UNL     1      -0.105   1.812  -2.305  0.00  0.00    -0.361 N 
ATOM     26  H   UNL     1       0.851   1.654  -2.318  0.00  0.00    +0.165 HD
BRANCH  21  27
ATOM     27  O   UNL     1      -2.835   1.570   0.010  0.00  0.00    -0.505 OA
ATOM     28  H   UNL     1      -2.890   2.335   0.598  0.00  0.00    +0.292 HD
ENDBRANCH  21  27
BRANCH  22  29
ATOM     29  C   UNL     1      -4.290   2.517  -2.257  0.00  0.00    +0.195 C 
BRANCH  29  30
ATOM     30  O   UNL     1      -4.540   3.867  -1.861  0.00  0.00    -0.390 OA
ATOM     31  H   UNL     1      -5.478   4.101  -1.828  0.00  0.00    +0.210 HD
ENDBRANCH  29  30
ENDBRANCH  22  29
ENDBRANCH  18  23
ENDBRANCH  17  18
ENDBRANCH   1  17
TORSDOF 9
