REMARK  Name = ZINC43737047
REMARK  11 active torsions:
REMARK  status: ('A' for Active; 'I' for Inactive)
REMARK    1  A    between atoms: C_1  and  C_2
REMARK    2  A    between atoms: C_2  and  C_4
REMARK    3  A    between atoms: C_4  and  O_40
REMARK    4  A    between atoms: C_9  and  C_39
REMARK    5  A    between atoms: N_21  and  O_22
REMARK    6  A    between atoms: O_22  and  C_23
REMARK    7  A    between atoms: C_23  and  C_24
REMARK    8  A    between atoms: N_26  and  C_27
REMARK    9  A    between atoms: C_27  and  C_28
REMARK   10  A    between atoms: C_28  and  C_29
REMARK   11  A    between atoms: C_37  and  C_38
REMARK                            x       y       z     vdW  Elec       q    Type
REMARK                         _______ _______ _______ _____ _____    ______ ____
ROOT
ATOM      1  C   UNL     1      -1.232  -0.804   0.071  0.00  0.00    +0.129 C 
ATOM      2  C   UNL     1      -1.645  -1.198   1.502  0.00  0.00    +0.043 C 
ATOM      3  C   UNL     1      -1.715  -2.742   1.531  0.00  0.00    +0.008 C 
ATOM      4  C   UNL     1      -0.802  -3.165   0.366  0.00  0.00    +0.002 C 
ATOM      5  C   UNL     1      -1.112  -2.129  -0.728  0.00  0.00    +0.007 C 
ATOM      6  C   UNL     1      -2.488  -2.394  -1.344  0.00  0.00    +0.010 C 
ATOM      7  C   UNL     1      -2.579  -3.829  -1.853  0.00  0.00    +0.005 C 
ATOM      8  C   UNL     1      -2.425  -4.786  -0.665  0.00  0.00    +0.002 C 
ATOM      9  C   UNL     1      -1.048  -4.589  -0.074  0.00  0.00    -0.003 C 
ATOM     10  C   UNL     1      -0.894  -5.533   1.124  0.00  0.00    +0.008 C 
ATOM     11  C   UNL     1      -0.962  -6.982   0.637  0.00  0.00    +0.031 C 
ATOM     12  C   UNL     1      -2.258  -7.177  -0.129  0.00  0.00    -0.062 C 
ATOM     13  C   UNL     1      -3.013  -8.222   0.190  0.00  0.00    +0.026 C 
ATOM     14  C   UNL     1      -4.274  -8.467  -0.533  0.00  0.00    +0.080 C 
ATOM     15  N   UNL     1      -5.222  -9.189  -0.025  0.00  0.00    -0.089 NA
ATOM     16  C   UNL     1      -4.401  -7.828  -1.902  0.00  0.00    +0.059 C 
ATOM     17  C   UNL     1      -4.014  -6.357  -1.757  0.00  0.00    +0.017 C 
ATOM     18  C   UNL     1      -2.585  -6.225  -1.174  0.00  0.00    -0.007 C 
ATOM     19  C   UNL     1      -1.611  -6.424  -2.338  0.00  0.00    +0.016 C 
ATOM     20  C   UNL     1      -0.006  -2.064  -1.784  0.00  0.00    +0.015 C 
ENDROOT
BRANCH   1  22
ATOM     21  C   UNL     1       0.417   0.935  -0.964  0.00  0.00    +0.089 C 
ATOM     22  C   UNL     1       0.094  -0.090   0.093  0.00  0.00    +0.162 C 
ATOM     23  O   UNL     1       0.899  -0.338   0.959  0.00  0.00    -0.295 OA
ENDBRANCH   1  22
BRANCH   1  24
ATOM     24  O   UNL     1      -2.231   0.034  -0.515  0.00  0.00    -0.381 OA
ATOM     25  H   UNL     1      -2.362   0.873  -0.052  0.00  0.00    +0.211 HD
ENDBRANCH   1  24
BRANCH  15  26
ATOM     26  O   UNL     1      -5.063  -9.767   1.257  0.00  0.00    -0.384 OA
BRANCH  26  27
ATOM     27  C   UNL     1      -6.186 -10.537   1.691  0.00  0.00    +0.358 C 
BRANCH  27  28
ATOM     28  C   UNL     1      -5.909 -11.102   3.061  0.00  0.00    +0.253 C 
ATOM     29  O   UNL     1      -4.853 -10.868   3.611  0.00  0.00    -0.272 OA
ATOM     30  N   UNL     1      -6.833 -11.867   3.674  0.00  0.00    -0.312 N 
ATOM     31  H   UNL     1      -7.678 -12.053   3.234  0.00  0.00    +0.149 HD
BRANCH  30  32
ATOM     32  C   UNL     1      -6.564 -12.416   5.005  0.00  0.00    +0.110 C 
BRANCH  32  33
ATOM     33  C   UNL     1      -7.766 -13.240   5.470  0.00  0.00    +0.073 C 
BRANCH  33  34
ATOM     34  C   UNL     1      -7.489 -13.805   6.839  0.00  0.00    +0.035 A 
ATOM     35  C   UNL     1      -6.821 -14.944   7.105  0.00  0.00    +0.105 A 
ATOM     36  N   UNL     1      -6.798 -15.081   8.466  0.00  0.00    -0.352 N 
ATOM     37  H   UNL     1      -6.387 -15.804   8.965  0.00  0.00    +0.166 HD
ATOM     38  C   UNL     1      -7.454 -14.021   8.986  0.00  0.00    +0.171 A 
ATOM     39  N   UNL     1      -7.860 -13.259   8.007  0.00  0.00    -0.350 N 
ATOM     40  H   UNL     1      -8.354 -12.431   8.107  0.00  0.00    +0.166 HD
ENDBRANCH  33  34
ENDBRANCH  32  33
ENDBRANCH  30  32
ENDBRANCH  27  28
ENDBRANCH  26  27
ENDBRANCH  15  26
TORSDOF 8
