REMARK  Name = ZINC36280919
REMARK  8 active torsions:
REMARK  status: ('A' for Active; 'I' for Inactive)
REMARK    1  A    between atoms: C_1  and  C_2
REMARK    2  A    between atoms: C_2  and  O_3
REMARK    3  A    between atoms: O_3  and  C_4
REMARK    4  A    between atoms: C_7  and  C_10
REMARK    5  A    between atoms: C_10  and  C_12
REMARK    6  A    between atoms: C_10  and  N_24
REMARK    7  A    between atoms: C_12  and  C_13
REMARK    8  A    between atoms: C_19  and  C_23
REMARK                            x       y       z     vdW  Elec       q    Type
REMARK                         _______ _______ _______ _____ _____    ______ ____
ROOT
ATOM      1  C   UNL     1       1.109  -6.040  -1.847  0.00  0.00    -0.038 C 
ENDROOT
BRANCH   1   5
ATOM      2  C   UNL     1       0.777  -1.810  -1.336  0.00  0.00    +0.121 A 
ATOM      3  C   UNL     1       0.243  -2.669  -0.386  0.00  0.00    +0.046 A 
ATOM      4  C   UNL     1       0.351  -4.036  -0.554  0.00  0.00    +0.005 A 
ATOM      5  C   UNL     1       0.992  -4.548  -1.667  0.00  0.00    -0.061 A 
ATOM      6  C   UNL     1       1.525  -3.694  -2.615  0.00  0.00    +0.005 A 
ATOM      7  C   UNL     1       1.414  -2.327  -2.455  0.00  0.00    +0.046 A 
BRANCH   2   8
ATOM      8  O   UNL     1       0.671  -0.465  -1.174  0.00  0.00    -0.492 OA
BRANCH   8  10
ATOM      9  C   UNL     1      -0.019   1.526   0.010  0.00  0.00    +0.048 C 
ATOM     10  C   UNL     1       0.002  -0.004   0.002  0.00  0.00    +0.225 C 
ENDBRANCH   8  10
ENDBRANCH   2   8
ENDBRANCH   1   5
BRANCH   1  11
ATOM     11  N   UNL     1       2.440  -6.366  -2.377  0.00  0.00    +0.383 N 
ATOM     12  H   UNL     1       2.569  -5.908  -3.267  0.00  0.00    -0.089 HD
ATOM     13  H   UNL     1       3.146  -6.049  -1.730  0.00  0.00    -0.089 HD
ATOM     14  H   UNL     1       2.518  -7.364  -2.497  0.00  0.00    -0.089 HD
ENDBRANCH   1  11
BRANCH   1  15
ATOM     15  C   UNL     1       0.038  -6.521  -2.828  0.00  0.00    +0.051 C 
BRANCH  15  16
ATOM     16  C   UNL     1       0.075  -8.025  -2.915  0.00  0.00    +0.078 A 
ATOM     17  N   UNL     1      -0.586  -8.897  -2.196  0.00  0.00    -0.249 NA
ATOM     18  C   UNL     1      -0.457 -10.206  -2.380  0.00  0.00    +0.052 A 
ATOM     19  C   UNL     1       0.408 -10.561  -3.367  0.00  0.00    +0.013 A 
ATOM     20  S   UNL     1       0.972  -8.992  -3.964  0.00  0.00    -0.077 S 
ATOM     21  C   UNL     1       0.765 -11.937  -3.815  0.00  0.00    +0.047 C 
ATOM     22  C   UNL     1      -0.271 -12.914  -3.236  0.00  0.00    -0.009 C 
ATOM     23  C   UNL     1      -0.465 -12.604  -1.748  0.00  0.00    +0.010 C 
ATOM     24  C   UNL     1      -1.194 -11.270  -1.578  0.00  0.00    +0.056 C 
ATOM     25  C   UNL     1       0.228 -14.350  -3.402  0.00  0.00    +0.008 C 
ENDBRANCH  15  16
ENDBRANCH   1  15
TORSDOF 6
