REMARK  Name = ZINC46735343
REMARK  10 active torsions:
REMARK  status: ('A' for Active; 'I' for Inactive)
REMARK    1  A    between atoms: C_1  and  N_2
REMARK    2  A    between atoms: N_2  and  C_3
REMARK    3  A    between atoms: N_2  and  C_29
REMARK    4  A    between atoms: C_3  and  C_4
REMARK    5  A    between atoms: C_9  and  N_10
REMARK    6  A    between atoms: C_11  and  C_13
REMARK    7  A    between atoms: C_13  and  C_14
REMARK    8  A    between atoms: C_14  and  C_15
REMARK    9  A    between atoms: C_15  and  C_16
REMARK   10  A    between atoms: C_16  and  C_17
REMARK                            x       y       z     vdW  Elec       q    Type
REMARK                         _______ _______ _______ _____ _____    ______ ____
ROOT
ATOM      1  N   UNL     1       2.618  -1.907   0.322  0.00  0.00    -0.285 N 
ATOM      2  C   UNL     1       3.305  -2.311   1.408  0.00  0.00    +0.217 C 
ATOM      3  O   UNL     1       4.239  -1.653   1.815  0.00  0.00    -0.275 OA
ATOM      4  H   UNL     1       1.823  -2.389   0.044  0.00  0.00    +0.155 HD
ENDROOT
BRANCH   1  10
ATOM      5  C   UNL     1       2.147  -0.065  -1.168  0.00  0.00    -0.043 A 
ATOM      6  C   UNL     1       2.576   1.038  -1.880  0.00  0.00    +0.003 A 
ATOM      7  C   UNL     1       3.906   1.415  -1.838  0.00  0.00    +0.000 A 
ATOM      8  C   UNL     1       4.810   0.689  -1.084  0.00  0.00    +0.002 A 
ATOM      9  C   UNL     1       4.387  -0.414  -0.369  0.00  0.00    +0.023 A 
ATOM     10  C   UNL     1       3.051  -0.793  -0.405  0.00  0.00    +0.035 A 
BRANCH   5  11
ATOM     11  C   UNL     1       0.697  -0.475  -1.214  0.00  0.00    -0.041 C 
BRANCH  11  13
ATOM     12  C   UNL     1       0.002   1.478  -0.007  0.00  0.00    -0.095 C 
ATOM     13  N   UNL     1       0.013   0.009  -0.007  0.00  0.00    +0.382 N 
ATOM     14  H   UNL     1       0.499  -0.323   0.812  0.00  0.00    -0.081 HD
BRANCH  13  15
ATOM     15  C   UNL     1      -1.368  -0.491   0.006  0.00  0.00    -0.069 C 
ATOM     16  C   UNL     1      -2.081   0.014   1.263  0.00  0.00    -0.015 C 
ATOM     17  C   UNL     1      -3.519  -0.507   1.277  0.00  0.00    -0.002 C 
ATOM     18  C   UNL     1      -3.507  -2.037   1.277  0.00  0.00    -0.000 C 
ATOM     19  C   UNL     1      -2.795  -2.542   0.021  0.00  0.00    -0.002 C 
ATOM     20  C   UNL     1      -1.356  -2.021   0.006  0.00  0.00    -0.015 C 
ENDBRANCH  13  15
ENDBRANCH  11  13
ENDBRANCH   5  11
ENDBRANCH   1  10
BRANCH   2  21
ATOM     21  C   UNL     1       2.913  -3.582   2.118  0.00  0.00    +0.096 C 
BRANCH  21  22
ATOM     22  C   UNL     1       3.847  -3.809   3.309  0.00  0.00    +0.009 C 
BRANCH  22  23
ATOM     23  C   UNL     1       3.449  -5.099   4.029  0.00  0.00    +0.002 C 
BRANCH  23  24
ATOM     24  C   UNL     1       4.382  -5.327   5.220  0.00  0.00    +0.016 C 
BRANCH  24  25
ATOM     25  C   UNL     1       3.985  -6.616   5.941  0.00  0.00    +0.069 C 
ATOM     26  C   UNL     1       4.932  -6.904   7.125  0.00  0.00    +0.108 C 
ATOM     27  C   UNL     1       4.216  -7.439   8.369  0.00  0.00    +0.105 C 
ATOM     28  C   UNL     1       2.688  -7.575   8.195  0.00  0.00    +0.093 C 
ATOM     29  S   UNL     1       2.366  -6.420   6.806  0.00  0.00    -0.154 S 
ATOM     30  N   UNL     1       4.486  -6.425   9.401  0.00  0.00    -0.294 N 
ATOM     31  C   UNL     1       5.234  -5.449   8.868  0.00  0.00    +0.300 C 
ATOM     32  O   UNL     1       5.607  -4.479   9.499  0.00  0.00    -0.253 OA
ATOM     33  N   UNL     1       5.527  -5.639   7.583  0.00  0.00    -0.294 N 
ATOM     34  H   UNL     1       4.172  -6.457  10.318  0.00  0.00    +0.151 HD
ATOM     35  H   UNL     1       6.055  -5.035   7.037  0.00  0.00    +0.151 HD
ENDBRANCH  24  25
ENDBRANCH  23  24
ENDBRANCH  22  23
ENDBRANCH  21  22
ENDBRANCH   2  21
TORSDOF 9
