REMARK  Name = ZINC59795199
REMARK  9 active torsions:
REMARK  status: ('A' for Active; 'I' for Inactive)
REMARK    1  A    between atoms: C_1  and  C_2
REMARK    2  A    between atoms: N_7  and  S_9
REMARK    3  A    between atoms: S_9  and  C_12
REMARK    4  A    between atoms: C_15  and  N_18
REMARK    5  A    between atoms: C_19  and  C_21
REMARK    6  A    between atoms: C_21  and  S_22
REMARK    7  A    between atoms: S_22  and  C_23
REMARK    8  A    between atoms: C_26  and  C_29
REMARK    9  A    between atoms: N_27  and  N_28
REMARK                            x       y       z     vdW  Elec       q    Type
REMARK                         _______ _______ _______ _____ _____    ______ ____
ROOT
ATOM      1  N   UNL     1       3.843  -4.106  -4.087  0.00  0.00    -0.285 N 
ATOM      2  C   UNL     1       3.075  -4.847  -4.909  0.00  0.00    +0.227 C 
ATOM      3  O   UNL     1       1.968  -5.194  -4.556  0.00  0.00    -0.275 OA
ATOM      4  H   UNL     1       4.696  -3.763  -4.397  0.00  0.00    +0.155 HD
ENDROOT
BRANCH   1   8
ATOM      5  C   UNL     1       2.555  -3.282  -0.212  0.00  0.00    +0.106 A 
ATOM      6  C   UNL     1       2.227  -4.487  -0.806  0.00  0.00    +0.030 A 
ATOM      7  C   UNL     1       2.652  -4.763  -2.091  0.00  0.00    +0.025 A 
ATOM      8  C   UNL     1       3.410  -3.829  -2.786  0.00  0.00    +0.034 A 
ATOM      9  C   UNL     1       3.738  -2.620  -2.186  0.00  0.00    +0.025 A 
ATOM     10  C   UNL     1       3.305  -2.348  -0.902  0.00  0.00    +0.030 A 
BRANCH   5  11
ATOM     11  S   UNL     1       2.010  -2.934   1.427  0.00  0.00    +0.061 S 
ATOM     12  O   UNL     1       2.904  -1.964   1.955  0.00  0.00    -0.153 OA
ATOM     13  O   UNL     1       1.789  -4.189   2.057  0.00  0.00    -0.153 OA
BRANCH  11  19
ATOM     14  C   UNL     1      -0.638   1.123  -0.087  0.00  0.00    +0.009 C 
ATOM     15  C   UNL     1      -0.407  -0.389  -0.036  0.00  0.00    +0.002 C 
ATOM     16  C   UNL     1      -1.756  -1.109   0.047  0.00  0.00    +0.006 C 
ATOM     17  C   UNL     1      -1.527  -2.622   0.066  0.00  0.00    +0.017 C 
ATOM     18  C   UNL     1      -0.703  -2.995   1.303  0.00  0.00    +0.109 C 
ATOM     19  N   UNL     1       0.531  -2.198   1.306  0.00  0.00    -0.176 NA
ATOM     20  C   UNL     1       0.430  -0.736   1.199  0.00  0.00    +0.112 C 
ENDBRANCH  11  19
ENDBRANCH   5  11
ENDBRANCH   1   8
BRANCH   2  21
ATOM     21  C   UNL     1       3.592  -5.245  -6.268  0.00  0.00    +0.173 C 
BRANCH  21  22
ATOM     22  S   UNL     1       2.335  -6.231  -7.128  0.00  0.00    -0.075 S 
BRANCH  22  23
ATOM     23  C   UNL     1       3.081  -6.614  -8.678  0.00  0.00    +0.209 A 
ATOM     24  N   UNL     1       4.280  -6.252  -9.077  0.00  0.00    -0.121 NA
ATOM     25  N   UNL     1       4.506  -6.701 -10.259  0.00  0.00    -0.127 NA
ATOM     26  C   UNL     1       3.465  -7.377 -10.688  0.00  0.00    +0.182 A 
ATOM     27  N   UNL     1       2.523  -7.346  -9.687  0.00  0.00    -0.224 N 
BRANCH  26  28
ATOM     28  C   UNL     1       3.333  -8.049 -11.999  0.00  0.00    +0.021 A 
ATOM     29  C   UNL     1       2.078  -8.454 -12.455  0.00  0.00    +0.013 A 
ATOM     30  C   UNL     1       1.961  -9.081 -13.678  0.00  0.00    +0.021 A 
ATOM     31  C   UNL     1       3.086  -9.307 -14.453  0.00  0.00    +0.041 A 
ATOM     32  C   UNL     1       4.334  -8.908 -14.006  0.00  0.00    +0.021 A 
ATOM     33  C   UNL     1       4.463  -8.275 -12.787  0.00  0.00    +0.013 A 
ATOM     34 CL   UNL     1       2.931 -10.097 -15.992  0.00  0.00    -0.084 Cl
ENDBRANCH  26  28
BRANCH  27  35
ATOM     35  N   UNL     1       1.285  -7.925  -9.700  0.00  0.00    -0.295 N 
ATOM     36  H   UNL     1       0.594  -7.292 -10.072  0.00  0.00    +0.163 HD
ATOM     37  H   UNL     1       1.297  -8.792 -10.215  0.00  0.00    +0.163 HD
ENDBRANCH  27  35
ENDBRANCH  22  23
ENDBRANCH  21  22
ENDBRANCH   2  21
TORSDOF 8
