REMARK  Name = ZINC40291998
REMARK  8 active torsions:
REMARK  status: ('A' for Active; 'I' for Inactive)
REMARK    1  A    between atoms: C_1  and  C_2
REMARK    2  A    between atoms: C_3  and  C_21
REMARK    3  A    between atoms: C_6  and  S_12
REMARK    4  A    between atoms: C_7  and  C_8
REMARK    5  A    between atoms: N_9  and  O_10
REMARK    6  A    between atoms: S_12  and  C_13
REMARK    7  A    between atoms: C_17  and  O_19
REMARK    8  A    between atoms: O_19  and  C_20
REMARK                            x       y       z     vdW  Elec       q    Type
REMARK                         _______ _______ _______ _____ _____    ______ ____
ROOT
ATOM      1  C   UNL     1      -0.012   1.502   0.008  0.00  0.00    +0.046 C 
ATOM      2  C   UNL     1       0.014  -0.005   0.001  0.00  0.00    -0.015 A 
ATOM      3  C   UNL     1       0.031  -0.714  -1.190  0.00  0.00    +0.064 A 
ATOM      4  N   UNL     1       0.053  -2.032  -1.176  0.00  0.00    -0.153 NA
ATOM      5  N   UNL     1       0.060  -2.713  -0.089  0.00  0.00    -0.142 NA
ATOM      6  C   UNL     1       0.045  -2.137   1.105  0.00  0.00    +0.135 A 
ATOM      7  C   UNL     1       0.027  -0.733   1.195  0.00  0.00    +0.056 A 
ATOM      8  C   UNL     1       0.024   0.025  -2.504  0.00  0.00    +0.068 C 
ENDROOT
BRANCH   7   9
ATOM      9  C   UNL     1       0.017  -0.050   2.508  0.00  0.00    +0.165 C 
ATOM     10  N   UNL     1      -1.114   0.231   3.086  0.00  0.00    -0.071 NA
ATOM     11  N   UNL     1       1.212   0.289   3.121  0.00  0.00    -0.340 N 
ATOM     12  H   UNL     1       2.055   0.080   2.690  0.00  0.00    +0.144 HD
ATOM     13  H   UNL     1       1.205   0.737   3.981  0.00  0.00    +0.144 HD
BRANCH  10  14
ATOM     14  O   UNL     1      -1.124   0.885   4.342  0.00  0.00    -0.408 OA
ATOM     15  H   UNL     1      -2.010   1.052   4.692  0.00  0.00    +0.328 HD
ENDBRANCH  10  14
ENDBRANCH   7   9
BRANCH   6  16
ATOM     16  S   UNL     1       0.055  -3.121   2.566  0.00  0.00    -0.067 S 
BRANCH  16  17
ATOM     17  C   UNL     1      -0.075  -4.773   1.968  0.00  0.00    +0.018 A 
ATOM     18  C   UNL     1       1.071  -5.535   1.772  0.00  0.00    +0.015 A 
ATOM     19  C   UNL     1       0.968  -6.830   1.302  0.00  0.00    +0.005 A 
ATOM     20  C   UNL     1      -0.273  -7.372   1.027  0.00  0.00    +0.046 A 
ATOM     21  C   UNL     1      -1.421  -6.616   1.221  0.00  0.00    +0.121 A 
ATOM     22  C   UNL     1      -1.323  -5.318   1.697  0.00  0.00    +0.060 A 
BRANCH  21  23
ATOM     23  O   UNL     1      -2.641  -7.151   0.950  0.00  0.00    -0.495 OA
ATOM     24  C   UNL     1      -2.667  -8.496   0.468  0.00  0.00    +0.277 C 
ENDBRANCH  21  23
ENDBRANCH  16  17
ENDBRANCH   6  16
TORSDOF 5
