REMARK  Name = ZINC65684068
REMARK  7 active torsions:
REMARK  status: ('A' for Active; 'I' for Inactive)
REMARK    1  A    between atoms: C_5  and  C_6
REMARK    2  A    between atoms: C_6  and  N_7
REMARK    3  A    between atoms: N_7  and  C_8
REMARK    4  A    between atoms: N_7  and  C_20
REMARK    5  A    between atoms: C_8  and  C_9
REMARK    6  A    between atoms: N_11  and  C_12
REMARK    7  A    between atoms: C_13  and  C_17
REMARK                            x       y       z     vdW  Elec       q    Type
REMARK                         _______ _______ _______ _____ _____    ______ ____
ROOT
ATOM      1  C   UNL     1      -4.058  -0.833  -0.690  0.00  0.00    +0.201 C 
ATOM      2  O   UNL     1      -3.743   0.282  -0.329  0.00  0.00    -0.278 OA
ATOM      3  N   UNL     1      -5.311  -1.281  -0.478  0.00  0.00    -0.281 N 
ATOM      4  H   UNL     1      -5.563  -2.172  -0.767  0.00  0.00    +0.155 HD
ENDROOT
BRANCH   3   5
ATOM      5  C   UNL     1      -6.241  -0.468   0.151  0.00  0.00    +0.084 A 
ATOM      6  C   UNL     1      -7.563  -0.760   0.455  0.00  0.00    +0.065 A 
ATOM      7  C   UNL     1      -8.318   0.277   1.120  0.00  0.00    +0.022 A 
ATOM      8  C   UNL     1      -7.650   1.418   1.373  0.00  0.00    +0.048 A 
ATOM      9  S   UNL     1      -6.024   1.093   0.728  0.00  0.00    -0.081 S 
BRANCH   6  10
ATOM     10  C   UNL     1      -8.163  -2.054   0.118  0.00  0.00    +0.244 C 
ATOM     11  O   UNL     1      -7.498  -2.906  -0.443  0.00  0.00    -0.270 OA
ATOM     12  N   UNL     1      -9.451  -2.302   0.429  0.00  0.00    -0.325 N 
ATOM     13  H   UNL     1      -9.981  -1.623   0.876  0.00  0.00    +0.145 HD
ATOM     14  H   UNL     1      -9.848  -3.158   0.206  0.00  0.00    +0.145 HD
ENDBRANCH   6  10
ENDBRANCH   3   5
BRANCH   1  15
ATOM     15  C   UNL     1      -3.047  -1.716  -1.374  0.00  0.00    +0.020 C 
BRANCH  15  16
ATOM     16  N   UNL     1      -1.732  -1.062  -1.354  0.00  0.00    +0.390 N 
ATOM     17  H   UNL     1      -1.812  -0.133  -1.739  0.00  0.00    -0.080 HD
BRANCH  16  18
ATOM     18  C   UNL     1      -0.784  -1.845  -2.159  0.00  0.00    -0.068 C 
ATOM     19  C   UNL     1       0.103  -1.083  -3.145  0.00  0.00    -0.017 C 
ATOM     20  C   UNL     1      -1.049  -1.948  -3.662  0.00  0.00    -0.017 C 
ENDBRANCH  16  18
BRANCH  16  21
ATOM     21  C   UNL     1      -1.247  -0.979   0.030  0.00  0.00    -0.041 C 
BRANCH  21  26
ATOM     22  C   UNL     1       0.029   1.172   0.234  0.00  0.00    +0.009 A 
ATOM     23  C   UNL     1       1.207   1.842   0.261  0.00  0.00    +0.045 A 
ATOM     24  S   UNL     1       2.389   0.521   0.042  0.00  0.00    -0.105 S 
ATOM     25  C   UNL     1       1.233  -0.834  -0.070  0.00  0.00    +0.047 A 
ATOM     26  C   UNL     1       0.042  -0.200   0.064  0.00  0.00    -0.057 A 
ENDBRANCH  21  26
ENDBRANCH  16  21
ENDBRANCH  15  16
ENDBRANCH   1  15
TORSDOF 7
