REMARK  Name = ZINC52831261
REMARK  9 active torsions:
REMARK  status: ('A' for Active; 'I' for Inactive)
REMARK    1  A    between atoms: C_1  and  C_2
REMARK    2  A    between atoms: C_2  and  C_3
REMARK    3  A    between atoms: C_2  and  N_20
REMARK    4  A    between atoms: N_5  and  C_6
REMARK    5  A    between atoms: C_11  and  S_12
REMARK    6  A    between atoms: S_12  and  C_13
REMARK    7  A    between atoms: N_20  and  C_21
REMARK    8  A    between atoms: N_20  and  C_22
REMARK    9  A    between atoms: C_22  and  C_23
REMARK                            x       y       z     vdW  Elec       q    Type
REMARK                         _______ _______ _______ _____ _____    ______ ____
ROOT
ATOM      1  C   UNL     1       0.434  -1.330  -0.895  0.00  0.00    +0.203 C 
ATOM      2  O   UNL     1       1.088  -2.254  -0.460  0.00  0.00    -0.277 OA
ATOM      3  N   UNL     1       0.453  -1.054  -2.215  0.00  0.00    -0.286 N 
ATOM      4  H   UNL     1      -0.047  -0.297  -2.559  0.00  0.00    +0.155 HD
ENDROOT
BRANCH   3   5
ATOM      5  C   UNL     1       1.193  -1.860  -3.089  0.00  0.00    +0.047 A 
ATOM      6  C   UNL     1       2.274  -2.589  -2.616  0.00  0.00    +0.024 A 
ATOM      7  C   UNL     1       3.003  -3.385  -3.480  0.00  0.00    +0.002 A 
ATOM      8  C   UNL     1       2.659  -3.457  -4.817  0.00  0.00    +0.001 A 
ATOM      9  C   UNL     1       1.583  -2.734  -5.298  0.00  0.00    +0.017 A 
ATOM     10  C   UNL     1       0.842  -1.937  -4.437  0.00  0.00    +0.034 A 
BRANCH  10  11
ATOM     11  S   UNL     1      -0.534  -1.020  -5.045  0.00  0.00    -0.088 S 
BRANCH  11  12
ATOM     12  C   UNL     1      -0.668  -1.519  -6.730  0.00  0.00    +0.013 A 
ATOM     13  C   UNL     1      -1.427  -2.634  -7.067  0.00  0.00    +0.016 A 
ATOM     14  C   UNL     1      -1.530  -3.023  -8.388  0.00  0.00    +0.021 A 
ATOM     15  C   UNL     1      -0.878  -2.305  -9.375  0.00  0.00    +0.041 A 
ATOM     16  C   UNL     1      -0.121  -1.195  -9.042  0.00  0.00    +0.021 A 
ATOM     17  C   UNL     1      -0.020  -0.797  -7.724  0.00  0.00    +0.016 A 
ATOM     18 CL   UNL     1      -1.010  -2.797 -11.035  0.00  0.00    -0.084 Cl
ENDBRANCH  11  12
ENDBRANCH  10  11
ENDBRANCH   3   5
BRANCH   1  20
ATOM     19  C   UNL     1       0.407   0.733   0.480  0.00  0.00    -0.004 C 
ATOM     20  C   UNL     1      -0.399  -0.490   0.038  0.00  0.00    +0.017 C 
BRANCH  20  21
ATOM     21  N   UNL     1      -0.766  -1.287   1.217  0.00  0.00    +0.391 N 
ATOM     22  C   UNL     1      -1.590  -2.428   0.799  0.00  0.00    -0.094 C 
ATOM     23  H   UNL     1       0.071  -1.624   1.669  0.00  0.00    -0.080 HD
BRANCH  21  24
ATOM     24  C   UNL     1      -1.527  -0.451   2.155  0.00  0.00    +0.019 C 
BRANCH  24  25
ATOM     25  C   UNL     1      -1.798  -1.230   3.416  0.00  0.00    +0.194 C 
ATOM     26  O   UNL     1      -1.396  -2.369   3.523  0.00  0.00    -0.278 OA
ATOM     27  N   UNL     1      -2.486  -0.660   4.426  0.00  0.00    -0.331 N 
ATOM     28  H   UNL     1      -2.807   0.251   4.340  0.00  0.00    +0.145 HD
ATOM     29  H   UNL     1      -2.660  -1.162   5.237  0.00  0.00    +0.145 HD
ENDBRANCH  24  25
ENDBRANCH  21  24
ENDBRANCH  20  21
ENDBRANCH   1  20
TORSDOF 7
