REMARK  Name = ZINC66216643
REMARK  7 active torsions:
REMARK  status: ('A' for Active; 'I' for Inactive)
REMARK    1  A    between atoms: C_3  and  N_15
REMARK    2  A    between atoms: C_5  and  N_7
REMARK    3  A    between atoms: C_8  and  C_10
REMARK    4  A    between atoms: C_16  and  C_18
REMARK    5  A    between atoms: C_18  and  N_19
REMARK    6  A    between atoms: N_19  and  C_20
REMARK    7  A    between atoms: C_20  and  C_21
REMARK                            x       y       z     vdW  Elec       q    Type
REMARK                         _______ _______ _______ _____ _____    ______ ____
ROOT
ATOM      1  C   UNL     1       0.032   1.278  -0.238  0.00  0.00    +0.004 A 
ATOM      2  C   UNL     1       1.195   2.021  -0.179  0.00  0.00    +0.023 A 
ATOM      3  C   UNL     1       2.408   1.396   0.084  0.00  0.00    +0.035 A 
ATOM      4  C   UNL     1       2.449   0.025   0.289  0.00  0.00    +0.046 A 
ATOM      5  C   UNL     1       1.279  -0.719   0.230  0.00  0.00    +0.036 A 
ATOM      6  C   UNL     1       0.070  -0.087  -0.034  0.00  0.00    +0.023 A 
ENDROOT
BRANCH   5   7
ATOM      7  N   UNL     1       1.317  -2.101   0.435  0.00  0.00    -0.279 N 
ATOM      8  C   UNL     1       2.213  -2.631   1.292  0.00  0.00    +0.284 C 
ATOM      9  O   UNL     1       2.925  -1.901   1.956  0.00  0.00    -0.266 OA
ATOM     10  H   UNL     1       0.698  -2.679  -0.038  0.00  0.00    +0.155 HD
BRANCH   8  11
ATOM     11  C   UNL     1       2.330  -4.087   1.422  0.00  0.00    +0.189 A 
ATOM     12  C   UNL     1       3.188  -4.752   2.251  0.00  0.00    +0.054 A 
ATOM     13  C   UNL     1       2.960  -6.122   2.052  0.00  0.00    +0.042 A 
ATOM     14  C   UNL     1       1.986  -6.233   1.122  0.00  0.00    +0.196 A 
ATOM     15  O   UNL     1       1.605  -5.004   0.749  0.00  0.00    -0.458 OA
ENDBRANCH   8  11
ENDBRANCH   5   7
BRANCH   3  16
ATOM     16  N   UNL     1       3.586   2.149   0.142  0.00  0.00    -0.287 N 
ATOM     17  C   UNL     1       3.566   3.393   0.660  0.00  0.00    +0.200 C 
ATOM     18  O   UNL     1       2.513   3.892   0.999  0.00  0.00    -0.278 OA
ATOM     19  H   UNL     1       4.417   1.776  -0.191  0.00  0.00    +0.155 HD
BRANCH  17  20
ATOM     20  C   UNL     1       4.851   4.164   0.819  0.00  0.00    +0.016 C 
BRANCH  20  21
ATOM     21  N   UNL     1       4.563   5.481   1.401  0.00  0.00    +0.389 N 
ATOM     22  H   UNL     1       3.939   5.989   0.793  0.00  0.00    -0.085 HD
ATOM     23  H   UNL     1       4.128   5.362   2.304  0.00  0.00    -0.085 HD
BRANCH  21  24
ATOM     24  C   UNL     1       5.815   6.233   1.556  0.00  0.00    -0.006 C 
BRANCH  24  25
ATOM     25  C   UNL     1       5.520   7.585   2.154  0.00  0.00    +0.088 A 
ATOM     26  C   UNL     1       5.496   7.876   3.467  0.00  0.00    +0.042 A 
ATOM     27  C   UNL     1       5.179   9.249   3.576  0.00  0.00    +0.041 A 
ATOM     28  C   UNL     1       5.027   9.715   2.323  0.00  0.00    +0.195 A 
ATOM     29  O   UNL     1       5.241   8.704   1.466  0.00  0.00    -0.470 OA
ENDBRANCH  24  25
ENDBRANCH  21  24
ENDBRANCH  20  21
ENDBRANCH  17  20
ENDBRANCH   3  16
TORSDOF 7
