REMARK  Name = ZINC39856839
REMARK  9 active torsions:
REMARK  status: ('A' for Active; 'I' for Inactive)
REMARK    1  A    between atoms: C_1  and  C_2
REMARK    2  A    between atoms: C_2  and  O_3
REMARK    3  A    between atoms: O_3  and  C_4
REMARK    4  A    between atoms: C_7  and  N_10
REMARK    5  A    between atoms: C_11  and  C_13
REMARK    6  A    between atoms: C_13  and  C_14
REMARK    7  A    between atoms: N_20  and  N_21
REMARK    8  A    between atoms: C_22  and  C_23
REMARK    9  A    between atoms: C_26  and  C_28
REMARK                            x       y       z     vdW  Elec       q    Type
REMARK                         _______ _______ _______ _____ _____    ______ ____
ROOT
ATOM      1  C   UNL     1       2.307  -8.231  -4.544  0.00  0.00    +0.149 C 
ATOM      2  C   UNL     1       2.370  -9.728  -4.803  0.00  0.00    +0.233 C 
ATOM      3  O   UNL     1       2.997 -10.480  -4.088  0.00  0.00    -0.274 OA
ATOM      4  N   UNL     1       1.697 -10.158  -5.857  0.00  0.00    -0.263 N 
ATOM      5  C   UNL     1       0.981  -9.309  -6.675  0.00  0.00    +0.183 C 
ATOM      6  N   UNL     1       0.277  -9.613  -7.745  0.00  0.00    -0.127 NA
ATOM      7  S   UNL     1       1.234  -7.698  -5.941  0.00  0.00    -0.075 S 
ATOM      8  H   UNL     1       1.708 -11.106  -6.063  0.00  0.00    +0.157 HD
ENDROOT
BRANCH   6   9
ATOM      9  N   UNL     1      -0.337  -8.686  -8.399  0.00  0.00    -0.152 NA
ATOM     10  C   UNL     1      -1.037  -8.988  -9.463  0.00  0.00    +0.181 C 
BRANCH  10  11
ATOM     11  C   UNL     1      -1.711  -7.969 -10.181  0.00  0.00    +0.148 A 
ATOM     12  C   UNL     1      -2.485  -8.149 -11.310  0.00  0.00    +0.051 A 
ATOM     13  C   UNL     1      -2.954  -6.883 -11.684  0.00  0.00    +0.050 A 
ATOM     14  C   UNL     1      -2.457  -5.989 -10.782  0.00  0.00    +0.136 A 
ATOM     15  O   UNL     1      -1.714  -6.655  -9.877  0.00  0.00    -0.454 OA
BRANCH  14  16
ATOM     16  C   UNL     1      -2.698  -4.533 -10.793  0.00  0.00    +0.017 A 
ATOM     17  C   UNL     1      -3.500  -3.962 -11.784  0.00  0.00    +0.013 A 
ATOM     18  C   UNL     1      -3.721  -2.600 -11.788  0.00  0.00    +0.021 A 
ATOM     19  C   UNL     1      -3.150  -1.800 -10.813  0.00  0.00    +0.041 A 
ATOM     20  C   UNL     1      -2.354  -2.360  -9.828  0.00  0.00    +0.021 A 
ATOM     21  C   UNL     1      -2.129  -3.720  -9.809  0.00  0.00    +0.013 A 
ATOM     22 CL   UNL     1      -3.433  -0.087 -10.826  0.00  0.00    -0.084 Cl
ENDBRANCH  14  16
ENDBRANCH  10  11
ENDBRANCH   6   9
BRANCH   1  23
ATOM     23  C   UNL     1       1.651  -7.929  -3.195  0.00  0.00    +0.120 C 
BRANCH  23  25
ATOM     24  N   UNL     1       1.102  -5.938  -1.834  0.00  0.00    -0.285 N 
ATOM     25  C   UNL     1       1.635  -6.440  -2.966  0.00  0.00    +0.219 C 
ATOM     26  O   UNL     1       2.103  -5.694  -3.799  0.00  0.00    -0.275 OA
ATOM     27  H   UNL     1       0.797  -6.536  -1.135  0.00  0.00    +0.155 HD
BRANCH  24  31
ATOM     28  C   UNL     1       0.759  -1.811  -1.344  0.00  0.00    +0.121 A 
ATOM     29  C   UNL     1       0.629  -2.373  -2.606  0.00  0.00    +0.047 A 
ATOM     30  C   UNL     1       0.743  -3.739  -2.769  0.00  0.00    +0.027 A 
ATOM     31  C   UNL     1       0.987  -4.551  -1.670  0.00  0.00    +0.034 A 
ATOM     32  C   UNL     1       1.117  -3.989  -0.407  0.00  0.00    +0.027 A 
ATOM     33  C   UNL     1       1.009  -2.622  -0.246  0.00  0.00    +0.047 A 
BRANCH  28  34
ATOM     34  O   UNL     1       0.648  -0.466  -1.184  0.00  0.00    -0.492 OA
BRANCH  34  36
ATOM     35  C   UNL     1       0.297   1.788  -1.982  0.00  0.00    +0.048 C 
ATOM     36  C   UNL     1       0.390   0.308  -2.357  0.00  0.00    +0.225 C 
ENDBRANCH  34  36
ENDBRANCH  28  34
ENDBRANCH  24  31
ENDBRANCH  23  25
ENDBRANCH   1  23
TORSDOF 8
