REMARK  Name = ZINC39948917
REMARK  7 active torsions:
REMARK  status: ('A' for Active; 'I' for Inactive)
REMARK    1  A    between atoms: C_1  and  C_2
REMARK    2  A    between atoms: C_2  and  O_3
REMARK    3  A    between atoms: O_3  and  C_4
REMARK    4  A    between atoms: C_7  and  C_10
REMARK    5  A    between atoms: N_15  and  N_16
REMARK    6  A    between atoms: N_16  and  N_17
REMARK    7  A    between atoms: C_18  and  C_19
REMARK                            x       y       z     vdW  Elec       q    Type
REMARK                         _______ _______ _______ _____ _____    ______ ____
ROOT
ATOM      1  C   UNL     1       1.094  -6.179   1.821  0.00  0.00    +0.211 C 
ATOM      2  N   UNL     1       1.117  -6.787   0.476  0.00  0.00    -0.215 NA
ATOM      3  N   UNL     1       2.375  -7.292   0.308  0.00  0.00    -0.259 N 
ATOM      4  C   UNL     1       3.131  -7.069   1.391  0.00  0.00    +0.166 C 
ATOM      5  N   UNL     1       2.449  -6.410   2.349  0.00  0.00    -0.194 N 
ATOM      6  S   UNL     1       4.764  -7.561   1.541  0.00  0.00    -0.016 S 
ATOM      7  H   UNL     1       0.422  -7.514   0.395  0.00  0.00    +0.147 HD
ATOM      8  H   UNL     1       2.680  -7.752  -0.489  0.00  0.00    +0.168 HD
ENDROOT
BRANCH   1  12
ATOM      9  C   UNL     1       0.285  -1.992   1.557  0.00  0.00    +0.121 A 
ATOM     10  C   UNL     1       1.305  -2.551   0.801  0.00  0.00    +0.046 A 
ATOM     11  C   UNL     1       1.565  -3.905   0.888  0.00  0.00    +0.010 A 
ATOM     12  C   UNL     1       0.809  -4.703   1.728  0.00  0.00    -0.010 A 
ATOM     13  C   UNL     1      -0.208  -4.147   2.482  0.00  0.00    +0.010 A 
ATOM     14  C   UNL     1      -0.468  -2.793   2.403  0.00  0.00    +0.046 A 
BRANCH   9  15
ATOM     15  O   UNL     1       0.028  -0.660   1.473  0.00  0.00    -0.492 OA
BRANCH  15  17
ATOM     16  C   UNL     1       0.408   1.570   0.622  0.00  0.00    +0.048 C 
ATOM     17  C   UNL     1       0.843   0.103   0.581  0.00  0.00    +0.225 C 
ENDBRANCH  15  17
ENDBRANCH   9  15
ENDBRANCH   1  12
BRANCH   5  18
ATOM     18  N   UNL     1       2.933  -6.018   3.604  0.00  0.00    -0.182 N 
ATOM     19  H   UNL     1       3.377  -5.162   3.707  0.00  0.00    +0.193 HD
BRANCH  18  20
ATOM     20  N   UNL     1       2.789  -6.797   4.623  0.00  0.00    -0.177 NA
ATOM     21  C   UNL     1       3.243  -6.430   5.798  0.00  0.00    +0.137 C 
BRANCH  21  22
ATOM     22  C   UNL     1       3.086  -7.273   6.901  0.00  0.00    +0.000 C 
ATOM     23  C   UNL     1       3.503  -7.034   8.212  0.00  0.00    +0.004 A 
ATOM     24  C   UNL     1       4.169  -5.947   8.818  0.00  0.00    +0.010 A 
ATOM     25  C   UNL     1       4.454  -5.987  10.145  0.00  0.00    +0.001 A 
ATOM     26  C   UNL     1       4.104  -7.083  10.936  0.00  0.00    +0.002 A 
ATOM     27  C   UNL     1       3.463  -8.161  10.421  0.00  0.00    +0.026 A 
ATOM     28  C   UNL     1       3.131  -8.192   9.041  0.00  0.00    +0.043 A 
ATOM     29  N   UNL     1       2.521  -9.105   8.312  0.00  0.00    -0.380 N 
ATOM     30  C   UNL     1       2.425  -8.634   6.927  0.00  0.00    +0.150 C 
ATOM     31  H   UNL     1       2.185  -9.954   8.640  0.00  0.00    +0.160 HD
ENDBRANCH  21  22
ENDBRANCH  18  20
ENDBRANCH   5  18
TORSDOF 6
