REMARK  Name = ZINC13726987
REMARK  11 active torsions:
REMARK  status: ('A' for Active; 'I' for Inactive)
REMARK    1  A    between atoms: C_5  and  C_7
REMARK    2  A    between atoms: C_7  and  O_8
REMARK    3  A    between atoms: O_8  and  C_9
REMARK    4  A    between atoms: C_14  and  C_15
REMARK    5  A    between atoms: C_15  and  N_46
REMARK    6  A    between atoms: C_16  and  C_17
REMARK    7  A    between atoms: C_16  and  N_46
REMARK    8  A    between atoms: C_17  and  C_18
REMARK    9  A    between atoms: C_18  and  C_19
REMARK   10  A    between atoms: C_19  and  C_20
REMARK   11  A    between atoms: C_20  and  O_21
REMARK                            x       y       z     vdW  Elec       q    Type
REMARK                         _______ _______ _______ _____ _____    ______ ____
ROOT
ATOM      1  C   UNL     1      -0.450  -2.723  -1.551  0.00  0.00    +0.122 A 
ATOM      2  C   UNL     1      -0.444  -4.110  -1.532  0.00  0.00    +0.047 A 
ATOM      3  C   UNL     1       0.685  -4.790  -1.119  0.00  0.00    +0.019 A 
ATOM      4  C   UNL     1       1.813  -4.088  -0.732  0.00  0.00    +0.018 A 
ATOM      5  C   UNL     1       1.812  -2.705  -0.757  0.00  0.00    +0.020 A 
ATOM      6  C   UNL     1       0.684  -2.022  -1.168  0.00  0.00    -0.022 A 
ATOM      7 BR   UNL     1       3.359  -5.021  -0.169  0.00  0.00    -0.050 Br
ENDROOT
BRANCH   1   8
ATOM      8  O   UNL     1      -1.562  -2.052  -1.950  0.00  0.00    -0.487 OA
BRANCH   8   9
ATOM      9  C   UNL     1      -2.693  -2.839  -2.329  0.00  0.00    +0.267 C 
BRANCH   9  14
ATOM     10  C   UNL     1      -4.691   0.275  -3.080  0.00  0.00    +0.001 A 
ATOM     11  C   UNL     1      -5.897  -0.261  -3.490  0.00  0.00    +0.003 A 
ATOM     12  C   UNL     1      -6.068  -1.632  -3.526  0.00  0.00    +0.039 A 
ATOM     13  C   UNL     1      -5.031  -2.469  -3.150  0.00  0.00    +0.130 A 
ATOM     14  C   UNL     1      -3.823  -1.930  -2.739  0.00  0.00    +0.025 A 
ATOM     15  C   UNL     1      -3.657  -0.559  -2.699  0.00  0.00    +0.010 A 
ATOM     16  F   UNL     1      -5.197  -3.809  -3.183  0.00  0.00    -0.205 F 
ENDBRANCH   9  14
ENDBRANCH   8   9
ENDBRANCH   1   8
BRANCH   6  17
ATOM     17  C   UNL     1       0.683  -0.515  -1.195  0.00  0.00    -0.043 C 
BRANCH  17  18
ATOM     18  N   UNL     1      -0.002  -0.010   0.010  0.00  0.00    +0.382 N 
ATOM     19  H   UNL     1       0.492  -0.344   0.845  0.00  0.00    -0.085 HD
ATOM     20  H   UNL     1      -0.968  -0.359   0.021  0.00  0.00    -0.085 HD
BRANCH  18  21
ATOM     21  C   UNL     1      -0.018   1.465   0.010  0.00  0.00    -0.082 C 
BRANCH  21  22
ATOM     22  C   UNL     1      -0.734   1.958   1.269  0.00  0.00    -0.019 C 
BRANCH  22  23
ATOM     23  C   UNL     1      -0.755   3.488   1.277  0.00  0.00    +0.000 C 
BRANCH  23  24
ATOM     24  C   UNL     1      -1.471   3.981   2.536  0.00  0.00    +0.028 C 
BRANCH  24  25
ATOM     25  C   UNL     1      -1.492   5.511   2.545  0.00  0.00    +0.156 C 
BRANCH  25  26
ATOM     26  O   UNL     1      -2.160   5.972   3.720  0.00  0.00    -0.395 OA
ATOM     27  H   UNL     1      -2.211   6.935   3.792  0.00  0.00    +0.209 HD
ENDBRANCH  25  26
ENDBRANCH  24  25
ENDBRANCH  23  24
ENDBRANCH  22  23
ENDBRANCH  21  22
ENDBRANCH  18  21
ENDBRANCH  17  18
ENDBRANCH   6  17
TORSDOF 11
