REMARK  Name = ZINC66939483
REMARK  9 active torsions:
REMARK  status: ('A' for Active; 'I' for Inactive)
REMARK    1  A    between atoms: C_4  and  C_7
REMARK    2  A    between atoms: C_7  and  O_8
REMARK    3  A    between atoms: O_8  and  C_9
REMARK    4  A    between atoms: C_9  and  C_10
REMARK    5  A    between atoms: C_14  and  C_16
REMARK    6  A    between atoms: C_16  and  N_17
REMARK    7  A    between atoms: N_17  and  C_18
REMARK    8  A    between atoms: C_18  and  C_20
REMARK    9  A    between atoms: C_18  and  C_27
REMARK                            x       y       z     vdW  Elec       q    Type
REMARK                         _______ _______ _______ _____ _____    ______ ____
ROOT
ATOM      1  C   UNL     1       5.192  -4.397   5.574  0.00  0.00    -0.045 C 
ENDROOT
BRANCH   1   6
ATOM      2  C   UNL     1       5.740  -1.839   2.852  0.00  0.00    -0.022 A 
ATOM      3  C   UNL     1       6.482  -0.882   3.518  0.00  0.00    +0.006 A 
ATOM      4  C   UNL     1       6.807  -1.063   4.849  0.00  0.00    +0.001 A 
ATOM      5  C   UNL     1       6.389  -2.200   5.515  0.00  0.00    +0.002 A 
ATOM      6  C   UNL     1       5.647  -3.157   4.849  0.00  0.00    -0.064 A 
ATOM      7  C   UNL     1       5.318  -2.974   3.518  0.00  0.00    +0.007 A 
BRANCH   2   8
ATOM      8  C   UNL     1       5.385  -1.642   1.400  0.00  0.00    +0.195 C 
BRANCH   8   9
ATOM      9  O   UNL     1       4.141  -0.946   1.304  0.00  0.00    -0.371 OA
BRANCH   9  10
ATOM     10  C   UNL     1       3.711  -0.707  -0.038  0.00  0.00    +0.195 C 
BRANCH  10  14
ATOM     11  C   UNL     1      -0.017   1.378   0.010  0.00  0.00    +0.000 A 
ATOM     12  C   UNL     1       1.171   2.086   0.002  0.00  0.00    +0.000 A 
ATOM     13  C   UNL     1       2.377   1.411  -0.013  0.00  0.00    +0.006 A 
ATOM     14  C   UNL     1       2.396   0.029  -0.020  0.00  0.00    -0.022 A 
ATOM     15  C   UNL     1       1.208  -0.679  -0.012  0.00  0.00    +0.006 A 
ATOM     16  C   UNL     1       0.002  -0.004   0.002  0.00  0.00    +0.000 A 
ENDBRANCH  10  14
ENDBRANCH   9  10
ENDBRANCH   8   9
ENDBRANCH   2   8
ENDBRANCH   1   6
BRANCH   1  17
ATOM     17  N   UNL     1       3.877  -4.154   6.183  0.00  0.00    +0.392 N 
ATOM     18  H   UNL     1       3.946  -3.389   6.837  0.00  0.00    -0.084 HD
ATOM     19  H   UNL     1       3.210  -3.923   5.462  0.00  0.00    -0.084 HD
BRANCH  17  20
ATOM     20  C   UNL     1       3.434  -5.364   6.890  0.00  0.00    +0.047 C 
BRANCH  20  21
ATOM     21  C   UNL     1       2.035  -5.157   7.410  0.00  0.00    -0.053 A 
ATOM     22  C   UNL     1       1.670  -3.935   7.944  0.00  0.00    +0.005 A 
ATOM     23  C   UNL     1       0.387  -3.744   8.421  0.00  0.00    +0.038 A 
ATOM     24  C   UNL     1      -0.533  -4.777   8.363  0.00  0.00    +0.123 A 
ATOM     25  C   UNL     1      -0.167  -6.000   7.827  0.00  0.00    +0.038 A 
ATOM     26  C   UNL     1       1.115  -6.187   7.346  0.00  0.00    +0.005 A 
ATOM     27  F   UNL     1      -1.788  -4.592   8.829  0.00  0.00    -0.205 F 
ENDBRANCH  20  21
BRANCH  20  28
ATOM     28  C   UNL     1       4.363  -5.640   8.044  0.00  0.00    +0.201 C 
ATOM     29  O   UNL     1       5.302  -4.902   8.256  0.00  0.00    -0.277 OA
ATOM     30  N   UNL     1       4.151  -6.707   8.839  0.00  0.00    -0.330 N 
ATOM     31  H   UNL     1       3.400  -7.297   8.669  0.00  0.00    +0.145 HD
ATOM     32  H   UNL     1       4.749  -6.885   9.582  0.00  0.00    +0.145 HD
ENDBRANCH  20  28
ENDBRANCH  17  20
ENDBRANCH   1  17
TORSDOF 9
