REMARK  Name = ZINC09915742
REMARK  14 active torsions:
REMARK  status: ('A' for Active; 'I' for Inactive)
REMARK    1  A    between atoms: C_1  and  C_2
REMARK    2  A    between atoms: C_2  and  C_24
REMARK    3  A    between atoms: C_3  and  C_22
REMARK    4  A    between atoms: C_3  and  O_23
REMARK    5  A    between atoms: C_4  and  C_20
REMARK    6  A    between atoms: C_4  and  O_21
REMARK    7  A    between atoms: C_5  and  C_18
REMARK    8  A    between atoms: C_5  and  O_19
REMARK    9  A    between atoms: C_6  and  C_8
REMARK   10  A    between atoms: C_6  and  O_9
REMARK   11  A    between atoms: O_9  and  C_10
REMARK   12  A    between atoms: C_10  and  C_11
REMARK   13  A    between atoms: C_11  and  C_12
REMARK   14  A    between atoms: C_24  and  O_25
REMARK                            x       y       z     vdW  Elec       q    Type
REMARK                         _______ _______ _______ _____ _____    ______ ____
ROOT
ATOM      1  C   UNL     1      -1.115   3.761   3.653  0.00  0.00    +0.047 C 
ATOM      2  C   UNL     1      -1.713   3.694   2.241  0.00  0.00    +0.124 C 
ATOM      3  C   UNL     1      -0.696   3.084   1.285  0.00  0.00    +0.125 C 
ATOM      4  C   UNL     1      -0.710   1.566   1.272  0.00  0.00    +0.128 C 
ATOM      5  C   UNL     1      -2.094   0.942   1.276  0.00  0.00    +0.147 C 
ATOM      6  C   UNL     1      -3.068   1.627   2.227  0.00  0.00    +0.199 C 
ATOM      7  O   UNL     1      -2.950   3.026   2.241  0.00  0.00    -0.335 OA
ATOM      8  C   UNL     1      -2.917   1.035   3.634  0.00  0.00    +0.077 C 
ATOM      9  C   UNL     1      -2.687   0.916  -0.138  0.00  0.00    +0.050 C 
ATOM     10  C   UNL     1       0.033   1.086   0.007  0.00  0.00    +0.047 C 
ATOM     11  C   UNL     1      -0.916   3.646  -0.125  0.00  0.00    +0.047 C 
ENDROOT
BRANCH   5  12
ATOM     12  O   UNL     1      -1.960  -0.432   1.704  0.00  0.00    -0.381 OA
ATOM     13  H   UNL     1      -2.795  -0.917   1.739  0.00  0.00    +0.211 HD
ENDBRANCH   5  12
BRANCH   4  14
ATOM     14  O   UNL     1       0.030   1.078   2.405  0.00  0.00    -0.383 OA
ATOM     15  H   UNL     1       0.106   0.115   2.440  0.00  0.00    +0.210 HD
ENDBRANCH   4  14
BRANCH   3  16
ATOM     16  O   UNL     1       0.616   3.513   1.712  0.00  0.00    -0.383 OA
ATOM     17  H   UNL     1       0.723   4.473   1.752  0.00  0.00    +0.210 HD
ENDBRANCH   3  16
BRANCH   6  18
ATOM     18  O   UNL     1      -4.405   1.300   1.779  0.00  0.00    -0.346 OA
BRANCH  18  19
ATOM     19  C   UNL     1      -5.440   1.965   2.507  0.00  0.00    +0.168 C 
BRANCH  19  20
ATOM     20  C   UNL     1      -6.803   1.547   1.952  0.00  0.00    +0.063 C 
BRANCH  20  21
ATOM     21  C   UNL     1      -7.894   2.248   2.720  0.00  0.00    -0.045 A 
ATOM     22  C   UNL     1      -8.436   1.657   3.846  0.00  0.00    +0.004 A 
ATOM     23  C   UNL     1      -9.434   2.301   4.553  0.00  0.00    +0.000 A 
ATOM     24  C   UNL     1      -9.896   3.533   4.129  0.00  0.00    +0.000 A 
ATOM     25  C   UNL     1      -9.358   4.122   3.000  0.00  0.00    +0.000 A 
ATOM     26  C   UNL     1      -8.357   3.479   2.296  0.00  0.00    +0.004 A 
ENDBRANCH  20  21
ENDBRANCH  19  20
ENDBRANCH  18  19
ENDBRANCH   6  18
BRANCH   2  27
ATOM     27  C   UNL     1      -1.960   5.153   1.788  0.00  0.00    +0.193 C 
BRANCH  27  28
ATOM     28  O   UNL     1      -2.770   5.822   2.756  0.00  0.00    -0.392 OA
ATOM     29  H   UNL     1      -2.965   6.743   2.537  0.00  0.00    +0.210 HD
ENDBRANCH  27  28
ENDBRANCH   2  27
TORSDOF 9
