REMARK  Name = ZINC12985681
REMARK  5 active torsions:
REMARK  status: ('A' for Active; 'I' for Inactive)
REMARK    1  A    between atoms: C_6  and  C_7
REMARK    2  A    between atoms: C_12  and  C_13
REMARK    3  A    between atoms: C_12  and  N_55
REMARK    4  A    between atoms: N_15  and  C_16
REMARK    5  A    between atoms: C_17  and  C_24
REMARK                            x       y       z     vdW  Elec       q    Type
REMARK                         _______ _______ _______ _____ _____    ______ ____
ROOT
ATOM      1  C   UNL     1       3.283   3.597   2.264  0.00  0.00    +0.020 C 
ENDROOT
BRANCH   1   6
ATOM      2  C   UNL     1       2.458   3.931  -0.002  0.00  0.00    -0.037 C 
ATOM      3  C   UNL     1       3.073   3.930  -1.418  0.00  0.00    -0.013 C 
ATOM      4  C   UNL     1       4.595   3.814  -1.193  0.00  0.00    -0.020 C 
ATOM      5  C   UNL     1       4.771   3.754   0.340  0.00  0.00    -0.077 C 
ATOM      6  N   UNL     1       3.478   3.266   0.816  0.00  0.00    +0.390 N 
ATOM      7  H   UNL     1       3.419   2.249   0.692  0.00  0.00    -0.080 HD
BRANCH   2  13
ATOM      8  C   UNL     1       1.175   1.783   0.000  0.00  0.00    +0.006 A 
ATOM      9  C   UNL     1      -0.013   1.076   0.008  0.00  0.00    +0.049 A 
ATOM     10  C   UNL     1      -1.223   1.752   0.017  0.00  0.00    +0.162 A 
ATOM     11  C   UNL     1      -1.238   3.142   0.032  0.00  0.00    +0.162 A 
ATOM     12  C   UNL     1      -0.043   3.845   0.023  0.00  0.00    +0.051 A 
ATOM     13  C   UNL     1       1.160   3.165   0.007  0.00  0.00    -0.057 A 
ATOM     14  O   UNL     1      -2.415   3.825   0.056  0.00  0.00    -0.485 OA
ATOM     15  C   UNL     1      -3.589   3.095  -0.328  0.00  0.00    +0.270 C 
ATOM     16  C   UNL     1      -3.569   1.746   0.404  0.00  0.00    +0.270 C 
ATOM     17  O   UNL     1      -2.385   1.043   0.014  0.00  0.00    -0.485 OA
ENDBRANCH   2  13
ENDBRANCH   1   6
BRANCH   1  18
ATOM     18  C   UNL     1       4.154   2.710   3.116  0.00  0.00    +0.201 C 
ATOM     19  O   UNL     1       4.859   1.872   2.595  0.00  0.00    -0.278 OA
ATOM     20  N   UNL     1       4.149   2.849   4.457  0.00  0.00    -0.281 N 
ATOM     21  H   UNL     1       3.586   3.519   4.873  0.00  0.00    +0.155 HD
BRANCH  20  22
ATOM     22  C   UNL     1       4.951   2.033   5.241  0.00  0.00    +0.084 A 
ATOM     23  C   UNL     1       5.082   2.023   6.619  0.00  0.00    +0.068 A 
ATOM     24  C   UNL     1       6.004   1.051   7.205  0.00  0.00    -0.023 A 
ATOM     25  C   UNL     1       6.636   0.259   6.321  0.00  0.00    -0.004 A 
ATOM     26  S   UNL     1       6.025   0.773   4.734  0.00  0.00    -0.077 S 
ATOM     27  C   UNL     1       7.568  -0.710   6.997  0.00  0.00    +0.043 C 
ATOM     28  C   UNL     1       7.764  -0.135   8.417  0.00  0.00    +0.010 C 
ATOM     29  C   UNL     1       6.464   0.670   8.612  0.00  0.00    +0.037 C 
BRANCH  23  30
ATOM     30  C   UNL     1       4.324   2.955   7.460  0.00  0.00    +0.244 C 
ATOM     31  O   UNL     1       3.226   2.640   7.880  0.00  0.00    -0.270 OA
ATOM     32  N   UNL     1       4.844   4.159   7.769  0.00  0.00    -0.325 N 
ATOM     33  H   UNL     1       5.720   4.410   7.435  0.00  0.00    +0.145 HD
ATOM     34  H   UNL     1       4.343   4.776   8.326  0.00  0.00    +0.145 HD
ENDBRANCH  23  30
ENDBRANCH  20  22
ENDBRANCH   1  18
TORSDOF 5
