REMARK  Name = ZINC20918700
REMARK  10 active torsions:
REMARK  status: ('A' for Active; 'I' for Inactive)
REMARK    1  A    between atoms: C_4  and  C_7
REMARK    2  A    between atoms: C_7  and  C_8
REMARK    3  A    between atoms: C_8  and  C_30
REMARK    4  A    between atoms: N_9  and  N_10
REMARK    5  A    between atoms: C_14  and  S_17
REMARK    6  A    between atoms: N_15  and  N_16
REMARK    7  A    between atoms: S_17  and  C_18
REMARK    8  A    between atoms: C_18  and  C_19
REMARK    9  A    between atoms: N_21  and  C_22
REMARK   10  A    between atoms: C_30  and  C_31
REMARK                            x       y       z     vdW  Elec       q    Type
REMARK                         _______ _______ _______ _____ _____    ______ ____
ROOT
ATOM      1  N   UNL     1       1.066   1.693  -2.692  0.00  0.00    -0.204 N 
ATOM      2  C   UNL     1      -0.253   1.818  -2.276  0.00  0.00    +0.254 A 
ATOM      3  N   UNL     1      -1.252   2.257  -3.003  0.00  0.00    -0.109 NA
ATOM      4  N   UNL     1      -2.407   2.231  -2.211  0.00  0.00    -0.119 NA
ATOM      5  C   UNL     1      -2.077   1.772  -1.028  0.00  0.00    +0.210 A 
ATOM      6  N   UNL     1      -0.738   1.503  -1.037  0.00  0.00    -0.211 N 
ATOM      7  H   UNL     1       1.828   1.310  -1.997  0.00  0.00    +0.177 HD
ENDROOT
BRANCH   6   8
ATOM      8  N   UNL     1      -0.011   1.010   0.008  0.00  0.00    -0.294 N 
ATOM      9  H   UNL     1      -0.504   0.789   0.966  0.00  0.00    +0.163 HD
ATOM     10  H   UNL     1       1.069   0.833  -0.107  0.00  0.00    +0.163 HD
ENDBRANCH   6   8
BRANCH   1  12
ATOM     11  C   UNL     1       2.643   1.941  -4.379  0.00  0.00    +0.045 C 
ATOM     12  N   UNL     1       1.427   2.056  -3.996  0.00  0.00    -0.188 NA
BRANCH  11  13
ATOM     13  C   UNL     1       3.686   1.415  -3.428  0.00  0.00    +0.088 C 
BRANCH  13  17
ATOM     14  C   UNL     1       3.922  -2.836  -3.779  0.00  0.00    +0.000 A 
ATOM     15  C   UNL     1       4.719  -2.031  -4.572  0.00  0.00    +0.000 A 
ATOM     16  C   UNL     1       4.642  -0.655  -4.459  0.00  0.00    +0.004 A 
ATOM     17  C   UNL     1       3.769  -0.084  -3.551  0.00  0.00    -0.042 A 
ATOM     18  C   UNL     1       2.977  -0.889  -2.754  0.00  0.00    +0.004 A 
ATOM     19  C   UNL     1       3.050  -2.264  -2.871  0.00  0.00    +0.000 A 
ENDBRANCH  13  17
ENDBRANCH  11  13
BRANCH  11  20
ATOM     20  C   UNL     1       3.031   2.331  -5.782  0.00  0.00    +0.088 C 
BRANCH  20  21
ATOM     21  C   UNL     1       3.969   3.509  -5.735  0.00  0.00    -0.042 A 
ATOM     22  C   UNL     1       3.465   4.796  -5.770  0.00  0.00    +0.004 A 
ATOM     23  C   UNL     1       4.326   5.877  -5.721  0.00  0.00    +0.000 A 
ATOM     24  C   UNL     1       5.691   5.670  -5.648  0.00  0.00    +0.000 A 
ATOM     25  C   UNL     1       6.195   4.384  -5.619  0.00  0.00    +0.000 A 
ATOM     26  C   UNL     1       5.334   3.303  -5.662  0.00  0.00    +0.004 A 
ENDBRANCH  20  21
ENDBRANCH  11  20
ENDBRANCH   1  12
BRANCH   5  27
ATOM     27  S   UNL     1      -3.170   1.545   0.336  0.00  0.00    -0.075 S 
BRANCH  27  28
ATOM     28  C   UNL     1      -4.782   2.083  -0.298  0.00  0.00    +0.173 C 
BRANCH  28  29
ATOM     29  C   UNL     1      -5.821   1.938   0.783  0.00  0.00    +0.227 C 
ATOM     30  O   UNL     1      -5.505   1.513   1.875  0.00  0.00    -0.275 OA
ATOM     31  N   UNL     1      -7.101   2.280   0.538  0.00  0.00    -0.285 N 
ATOM     32  H   UNL     1      -7.374   2.736  -0.425  0.00  0.00    +0.155 HD
BRANCH  31  33
ATOM     33  C   UNL     1      -8.085   2.054   1.509  0.00  0.00    +0.036 A 
ATOM     34  C   UNL     1      -9.372   1.700   1.126  0.00  0.00    +0.026 A 
ATOM     35  C   UNL     1     -10.339   1.472   2.085  0.00  0.00    +0.043 A 
ATOM     36  C   UNL     1     -10.031   1.608   3.428  0.00  0.00    +0.159 A 
ATOM     37  C   UNL     1      -8.748   1.968   3.813  0.00  0.00    +0.160 A 
ATOM     38  C   UNL     1      -7.776   2.191   2.856  0.00  0.00    +0.064 A 
ATOM     39  F   UNL     1      -8.449   2.099   5.124  0.00  0.00    -0.202 F 
ATOM     40  F   UNL     1     -10.981   1.390   4.364  0.00  0.00    -0.202 F 
ENDBRANCH  31  33
ENDBRANCH  28  29
ENDBRANCH  27  28
ENDBRANCH   5  27
TORSDOF 10
