REMARK  Name = ZINC32528974
REMARK  9 active torsions:
REMARK  status: ('A' for Active; 'I' for Inactive)
REMARK    1  A    between atoms: C_1  and  C_2
REMARK    2  A    between atoms: C_2  and  C_3
REMARK    3  A    between atoms: C_3  and  C_5
REMARK    4  A    between atoms: C_3  and  S_21
REMARK    5  A    between atoms: C_13  and  S_17
REMARK    6  A    between atoms: S_17  and  N_20
REMARK    7  A    between atoms: S_21  and  C_22
REMARK    8  A    between atoms: C_24  and  C_33
REMARK    9  A    between atoms: C_29  and  C_32
REMARK                            x       y       z     vdW  Elec       q    Type
REMARK                         _______ _______ _______ _____ _____    ______ ____
ROOT
ATOM      1  C   UNL     1       1.837   3.606   0.013  0.00  0.00    +0.232 C 
ATOM      2  O   UNL     1       0.879   4.343  -0.091  0.00  0.00    -0.274 OA
ATOM      3  N   UNL     1       3.056   4.119   0.274  0.00  0.00    -0.264 N 
ATOM      4  C   UNL     1       3.215   5.487   0.422  0.00  0.00    +0.165 A 
ATOM      5  N   UNL     1       2.309   6.434   0.347  0.00  0.00    -0.225 NA
ATOM      6  C   UNL     1       2.608   7.740   0.515  0.00  0.00    +0.080 A 
ATOM      7  C   UNL     1       1.734   8.851   0.460  0.00  0.00    +0.031 A 
ATOM      8  C   UNL     1       2.205  10.122   0.657  0.00  0.00    +0.030 A 
ATOM      9  C   UNL     1       3.546  10.367   0.915  0.00  0.00    +0.106 A 
ATOM     10  C   UNL     1       4.429   9.305   0.976  0.00  0.00    +0.045 A 
ATOM     11  C   UNL     1       3.967   8.028   0.781  0.00  0.00    +0.043 A 
ATOM     12  S   UNL     1       4.704   6.411   0.774  0.00  0.00    -0.052 S 
ATOM     13  H   UNL     1       3.925   3.451   0.368  0.00  0.00    +0.157 HD
ENDROOT
BRANCH   9  14
ATOM     14  S   UNL     1       4.118  12.016   1.164  0.00  0.00    +0.056 S 
ATOM     15  O   UNL     1       2.996  12.774   1.595  0.00  0.00    -0.153 OA
ATOM     16  O   UNL     1       5.312  11.920   1.928  0.00  0.00    -0.153 OA
BRANCH  14  17
ATOM     17  N   UNL     1       4.551  12.612  -0.319  0.00  0.00    -0.204 NA
ATOM     18  H   UNL     1       4.915  13.644  -0.207  0.00  0.00    +0.144 HD
ATOM     19  H   UNL     1       3.677  12.602  -0.988  0.00  0.00    +0.144 HD
ENDBRANCH  14  17
ENDBRANCH   9  14
BRANCH   1  20
ATOM     20  C   UNL     1       1.665   2.118  -0.149  0.00  0.00    +0.139 C 
BRANCH  20  22
ATOM     21  C   UNL     1       2.062   0.179  -1.674  0.00  0.00    +0.005 C 
ATOM     22  C   UNL     1       2.097   1.705  -1.557  0.00  0.00    +0.020 C 
ENDBRANCH  20  22
BRANCH  20  23
ATOM     23  S   UNL     1      -0.074   1.681   0.101  0.00  0.00    -0.093 S 
BRANCH  23  24
ATOM     24  C   UNL     1      -0.232   2.026   1.821  0.00  0.00    +0.099 A 
ATOM     25  C   UNL     1      -1.498   1.954   2.421  0.00  0.00    +0.038 A 
ATOM     26  C   UNL     1      -1.634   2.212   3.752  0.00  0.00    -0.039 A 
ATOM     27  C   UNL     1      -0.482   2.558   4.487  0.00  0.00    +0.004 A 
ATOM     28  C   UNL     1      -0.552   2.842   5.859  0.00  0.00    +0.010 A 
ATOM     29  C   UNL     1       0.582   3.173   6.538  0.00  0.00    +0.001 A 
ATOM     30  C   UNL     1       1.812   3.235   5.886  0.00  0.00    +0.005 A 
ATOM     31  C   UNL     1       1.915   2.965   4.556  0.00  0.00    -0.024 A 
ATOM     32  C   UNL     1       0.767   2.619   3.823  0.00  0.00    +0.075 A 
ATOM     33  N   UNL     1       0.841   2.350   2.514  0.00  0.00    -0.240 NA
ATOM     34  C   UNL     1       3.256   3.037   3.872  0.00  0.00    +0.046 C 
ATOM     35  C   UNL     1      -2.983   2.134   4.420  0.00  0.00    +0.044 C 
ENDBRANCH  23  24
ENDBRANCH  20  23
ENDBRANCH   1  20
TORSDOF 6
