REMARK  Name = ZINC63648886
REMARK  4 active torsions:
REMARK  status: ('A' for Active; 'I' for Inactive)
REMARK    1  A    between atoms: C_6  and  C_10
REMARK    2  A    between atoms: C_13  and  N_16
REMARK    3  A    between atoms: C_17  and  C_19
REMARK    4  A    between atoms: C_19  and  N_20
REMARK                            x       y       z     vdW  Elec       q    Type
REMARK                         _______ _______ _______ _____ _____    ______ ____
ROOT
ATOM      1  N   UNL     1       4.814  -4.750  -4.721  0.00  0.00    -0.284 N 
ATOM      2  C   UNL     1       4.111  -5.795  -5.199  0.00  0.00    +0.235 C 
ATOM      3  O   UNL     1       3.058  -6.105  -4.682  0.00  0.00    -0.274 OA
ATOM      4  H   UNL     1       5.621  -4.460  -5.175  0.00  0.00    +0.155 HD
ENDROOT
BRANCH   1   8
ATOM      5  C   UNL     1       3.522  -2.763  -1.295  0.00  0.00    -0.005 A 
ATOM      6  C   UNL     1       2.597  -3.271  -2.188  0.00  0.00    +0.009 A 
ATOM      7  C   UNL     1       3.022  -3.930  -3.325  0.00  0.00    +0.024 A 
ATOM      8  C   UNL     1       4.380  -4.082  -3.570  0.00  0.00    +0.033 A 
ATOM      9  C   UNL     1       5.307  -3.570  -2.672  0.00  0.00    +0.024 A 
ATOM     10  C   UNL     1       4.875  -2.908  -1.539  0.00  0.00    +0.009 A 
BRANCH   5  16
ATOM     11  C   UNL     1       2.814  -3.949   4.122  0.00  0.00    +0.002 A 
ATOM     12  C   UNL     1       1.477  -4.132   3.724  0.00  0.00    +0.002 A 
ATOM     13  C   UNL     1       1.014  -3.728   2.525  0.00  0.00    +0.027 A 
ATOM     14  C   UNL     1       1.926  -3.067   1.580  0.00  0.00    +0.060 A 
ATOM     15  N   UNL     1       1.762  -2.584   0.383  0.00  0.00    -0.360 N 
ATOM     16  C   UNL     1       3.055  -2.044  -0.055  0.00  0.00    +0.206 C 
ATOM     17  N   UNL     1       3.996  -2.277   1.048  0.00  0.00    -0.360 N 
ATOM     18  C   UNL     1       3.340  -2.873   2.001  0.00  0.00    +0.060 A 
ATOM     19  C   UNL     1       3.732  -3.355   3.333  0.00  0.00    +0.027 A 
ATOM     20  H   UNL     1       0.936  -2.582  -0.127  0.00  0.00    +0.162 HD
ATOM     21  H   UNL     1       4.934  -2.033   1.063  0.00  0.00    +0.162 HD
ENDBRANCH   5  16
ENDBRANCH   1   8
BRANCH   2  22
ATOM     22  C   UNL     1       4.633  -6.579  -6.376  0.00  0.00    +0.207 C 
BRANCH  22  23
ATOM     23  N   UNL     1       3.693  -7.656  -6.700  0.00  0.00    -0.288 N 
ATOM     24  C   UNL     1       3.893  -8.870  -6.061  0.00  0.00    +0.060 A 
ATOM     25  C   UNL     1       4.614  -8.898  -4.868  0.00  0.00    +0.025 A 
ATOM     26  C   UNL     1       4.835 -10.092  -4.216  0.00  0.00    +0.002 A 
ATOM     27  C   UNL     1       4.345 -11.274  -4.741  0.00  0.00    +0.002 A 
ATOM     28  C   UNL     1       3.626 -11.256  -5.923  0.00  0.00    +0.029 A 
ATOM     29  C   UNL     1       3.400 -10.063  -6.575  0.00  0.00    +0.115 A 
ATOM     30  S   UNL     1       2.468 -10.036  -8.074  0.00  0.00    +0.029 S 
ATOM     31  O   UNL     1       3.360 -10.398  -9.119  0.00  0.00    -0.164 OA
ATOM     32  O   UNL     1       1.259 -10.737  -7.820  0.00  0.00    -0.164 OA
ATOM     33  C   UNL     1       2.035  -8.345  -8.334  0.00  0.00    +0.115 A 
ATOM     34  C   UNL     1       2.692  -7.356  -7.610  0.00  0.00    +0.060 A 
ATOM     35  C   UNL     1       2.337  -6.022  -7.811  0.00  0.00    +0.025 A 
ATOM     36  C   UNL     1       1.349  -5.694  -8.716  0.00  0.00    +0.002 A 
ATOM     37  C   UNL     1       0.702  -6.685  -9.431  0.00  0.00    +0.002 A 
ATOM     38  C   UNL     1       1.052  -8.015  -9.243  0.00  0.00    +0.029 A 
ENDBRANCH  22  23
ENDBRANCH   2  22
TORSDOF 4
