REMARK  Name = ZINC67620680
REMARK  12 active torsions:
REMARK  status: ('A' for Active; 'I' for Inactive)
REMARK    1  A    between atoms: C_1  and  C_2
REMARK    2  A    between atoms: C_2  and  C_3
REMARK    3  A    between atoms: N_5  and  C_6
REMARK    4  A    between atoms: C_9  and  C_12
REMARK    5  A    between atoms: C_12  and  C_14
REMARK    6  A    between atoms: C_12  and  N_15
REMARK    7  A    between atoms: N_18  and  C_19
REMARK    8  A    between atoms: C_19  and  C_20
REMARK    9  A    between atoms: C_20  and  C_22
REMARK   10  A    between atoms: C_20  and  O_30
REMARK   11  A    between atoms: C_22  and  N_23
REMARK   12  A    between atoms: C_26  and  C_29
REMARK                            x       y       z     vdW  Elec       q    Type
REMARK                         _______ _______ _______ _____ _____    ______ ____
ROOT
ATOM      1  N   UNL     1      -6.832  -4.380  -1.917  0.00  0.00    -0.293 N 
ATOM      2  C   UNL     1      -8.027  -4.728  -2.433  0.00  0.00    +0.300 C 
ATOM      3  O   UNL     1      -8.976  -3.975  -2.330  0.00  0.00    -0.253 OA
ATOM      4  N   UNL     1      -8.170  -5.910  -3.064  0.00  0.00    -0.297 N 
ATOM      5  H   UNL     1      -6.074  -4.981  -1.999  0.00  0.00    +0.151 HD
ATOM      6  H   UNL     1      -7.413  -6.511  -3.147  0.00  0.00    +0.150 HD
ENDROOT
BRANCH   1   7
ATOM      7  C   UNL     1      -6.676  -3.095  -1.231  0.00  0.00    +0.102 C 
ATOM      8  C   UNL     1      -7.100  -3.242   0.231  0.00  0.00    +0.033 C 
BRANCH   7  12
ATOM      9  C   UNL     1      -2.585  -1.871  -1.411  0.00  0.00    +0.033 A 
ATOM     10  C   UNL     1      -3.599  -0.936  -1.575  0.00  0.00    +0.023 A 
ATOM     11  C   UNL     1      -4.920  -1.335  -1.516  0.00  0.00    +0.007 A 
ATOM     12  C   UNL     1      -5.234  -2.663  -1.295  0.00  0.00    -0.027 A 
ATOM     13  C   UNL     1      -4.226  -3.596  -1.132  0.00  0.00    +0.007 A 
ATOM     14  C   UNL     1      -2.903  -3.205  -1.196  0.00  0.00    +0.023 A 
BRANCH   9  17
ATOM     15  C   UNL     1      -0.322  -2.285  -2.015  0.00  0.00    +0.217 C 
ATOM     16  O   UNL     1      -0.634  -3.400  -2.378  0.00  0.00    -0.275 OA
ATOM     17  N   UNL     1      -1.246  -1.470  -1.470  0.00  0.00    -0.286 N 
ATOM     18  H   UNL     1      -0.983  -0.605  -1.119  0.00  0.00    +0.155 HD
BRANCH  15  20
ATOM     19  C   UNL     1       1.938  -2.922  -2.814  0.00  0.00    +0.013 C 
ATOM     20  C   UNL     1       1.101  -1.813  -2.174  0.00  0.00    +0.093 C 
ENDBRANCH  15  20
ENDBRANCH   9  17
ENDBRANCH   7  12
ENDBRANCH   1   7
BRANCH   4  21
ATOM     21  C   UNL     1      -9.470  -6.288  -3.626  0.00  0.00    +0.135 C 
BRANCH  21  22
ATOM     22  C   UNL     1      -9.360  -7.666  -4.282  0.00  0.00    +0.115 C 
BRANCH  22  23
ATOM     23  O   UNL     1      -8.385  -7.621  -5.325  0.00  0.00    -0.392 OA
ATOM     24  H   UNL     1      -8.589  -6.987  -6.026  0.00  0.00    +0.210 HD
ENDBRANCH  22  23
BRANCH  22  25
ATOM     25  C   UNL     1     -10.717  -8.061  -4.868  0.00  0.00    -0.046 C 
BRANCH  25  26
ATOM     26  N   UNL     1     -10.618  -9.393  -5.479  0.00  0.00    +0.381 N 
ATOM     27  C   UNL     1     -11.872  -9.706  -6.174  0.00  0.00    -0.078 C 
ATOM     28  C   UNL     1     -11.745 -11.058  -6.880  0.00  0.00    -0.016 C 
ATOM     29  C   UNL     1     -11.450 -12.144  -5.842  0.00  0.00    -0.018 C 
ATOM     30  C   UNL     1     -10.181 -11.770  -5.072  0.00  0.00    -0.016 C 
ATOM     31  C   UNL     1     -10.366 -10.392  -4.433  0.00  0.00    -0.078 C 
ATOM     32  C   UNL     1     -11.243 -13.485  -6.549  0.00  0.00    +0.007 C 
ATOM     33  H   UNL     1      -9.857  -9.403  -6.141  0.00  0.00    -0.082 HD
ENDBRANCH  25  26
ENDBRANCH  22  25
ENDBRANCH  21  22
ENDBRANCH   4  21
TORSDOF 9
