REMARK  Name = ZINC64026150
REMARK  10 active torsions:
REMARK  status: ('A' for Active; 'I' for Inactive)
REMARK    1  A    between atoms: C_1  and  C_2
REMARK    2  A    between atoms: C_5  and  C_38
REMARK    3  A    between atoms: N_13  and  C_14
REMARK    4  A    between atoms: C_14  and  C_15
REMARK    5  A    between atoms: N_17  and  C_18
REMARK    6  A    between atoms: C_18  and  C_19
REMARK    7  A    between atoms: C_19  and  C_21
REMARK    8  A    between atoms: C_19  and  C_29
REMARK    9  A    between atoms: C_24  and  O_27
REMARK   10  A    between atoms: O_27  and  C_28
REMARK                            x       y       z     vdW  Elec       q    Type
REMARK                         _______ _______ _______ _____ _____    ______ ____
ROOT
ATOM      1  C   UNL     1       3.035  -0.006   0.839  0.00  0.00    +0.230 C 
ATOM      2  O   UNL     1       2.703   1.081   1.262  0.00  0.00    -0.274 OA
ATOM      3  N   UNL     1       4.339  -0.277   0.628  0.00  0.00    -0.313 N 
ATOM      4  H   UNL     1       4.605  -1.147   0.290  0.00  0.00    +0.149 HD
ENDROOT
BRANCH   1   5
ATOM      5  C   UNL     1       1.992  -1.054   0.548  0.00  0.00    +0.201 C 
BRANCH   5  16
ATOM      6  C   UNL     1      -0.092   1.691   0.100  0.00  0.00    +0.028 C 
ATOM      7  C   UNL     1      -0.115   0.185  -0.172  0.00  0.00    +0.072 C 
ATOM      8  C   UNL     1      -1.558  -0.333  -0.105  0.00  0.00    +0.039 C 
ATOM      9  C   UNL     1      -2.149   0.027   1.258  0.00  0.00    +0.108 C 
ATOM     10  C   UNL     1      -1.232  -0.421   2.365  0.00  0.00    -0.014 A 
ATOM     11  C   UNL     1      -1.750  -0.587   3.639  0.00  0.00    +0.006 A 
ATOM     12  C   UNL     1      -0.933  -0.994   4.676  0.00  0.00    +0.000 A 
ATOM     13  C   UNL     1       0.410  -1.237   4.448  0.00  0.00    +0.002 A 
ATOM     14  C   UNL     1       0.934  -1.075   3.182  0.00  0.00    +0.023 A 
ATOM     15  C   UNL     1       0.113  -0.668   2.136  0.00  0.00    +0.034 A 
ATOM     16  N   UNL     1       0.663  -0.518   0.857  0.00  0.00    -0.318 N 
BRANCH   9  17
ATOM     17  C   UNL     1      -3.484  -0.654   1.417  0.00  0.00    +0.218 C 
ATOM     18  O   UNL     1      -3.656  -1.766   0.963  0.00  0.00    -0.275 OA
ATOM     19  N   UNL     1      -4.487  -0.028   2.064  0.00  0.00    -0.329 N 
ATOM     20  H   UNL     1      -4.374   0.888   2.363  0.00  0.00    +0.145 HD
ATOM     21  H   UNL     1      -5.322  -0.493   2.230  0.00  0.00    +0.145 HD
ENDBRANCH   9  17
ENDBRANCH   5  16
ENDBRANCH   1   5
BRANCH   3  22
ATOM     22  C   UNL     1       5.354   0.741   0.911  0.00  0.00    +0.116 C 
BRANCH  22  23
ATOM     23  C   UNL     1       6.741   0.181   0.589  0.00  0.00    +0.064 C 
BRANCH  23  24
ATOM     24  C   UNL     1       7.051  -0.961   1.522  0.00  0.00    -0.033 C 
ATOM     25  C   UNL     1       7.321  -2.241   1.179  0.00  0.00    -0.000 A 
ATOM     26  C   UNL     1       7.402  -2.927  -0.115  0.00  0.00    +0.010 A 
ATOM     27  C   UNL     1       7.698  -4.247  -0.141  0.00  0.00    +0.001 A 
ATOM     28  C   UNL     1       7.928  -4.973   1.036  0.00  0.00    +0.002 A 
ATOM     29  C   UNL     1       7.872  -4.412   2.262  0.00  0.00    +0.026 A 
ATOM     30  C   UNL     1       7.569  -3.030   2.407  0.00  0.00    +0.043 A 
ATOM     31  N   UNL     1       7.456  -2.268   3.467  0.00  0.00    -0.380 N 
ATOM     32  C   UNL     1       7.130  -0.905   3.031  0.00  0.00    +0.145 C 
ATOM     33  H   UNL     1       7.573  -2.555   4.386  0.00  0.00    +0.160 HD
ENDBRANCH  23  24
BRANCH  23  34
ATOM     34  C   UNL     1       7.773   1.266   0.762  0.00  0.00    -0.038 A 
ATOM     35  C   UNL     1       7.939   1.871   1.994  0.00  0.00    +0.008 A 
ATOM     36  C   UNL     1       8.883   2.865   2.155  0.00  0.00    +0.046 A 
ATOM     37  C   UNL     1       9.666   3.258   1.079  0.00  0.00    +0.120 A 
ATOM     38  C   UNL     1       9.498   2.649  -0.157  0.00  0.00    +0.046 A 
ATOM     39  C   UNL     1       8.556   1.651  -0.311  0.00  0.00    +0.008 A 
BRANCH  37  40
ATOM     40  O   UNL     1      10.596   4.236   1.234  0.00  0.00    -0.495 OA
ATOM     41  C   UNL     1      11.366   4.589   0.083  0.00  0.00    +0.277 C 
ENDBRANCH  37  40
ENDBRANCH  23  34
ENDBRANCH  22  23
ENDBRANCH   3  22
TORSDOF 8
