REMARK  Name = ZINC42955699
REMARK  10 active torsions:
REMARK  status: ('A' for Active; 'I' for Inactive)
REMARK    1  A    between atoms: C_1  and  C_2
REMARK    2  A    between atoms: C_2  and  C_3
REMARK    3  A    between atoms: C_3  and  N_4
REMARK    4  A    between atoms: N_4  and  C_5
REMARK    5  A    between atoms: N_4  and  C_10
REMARK    6  A    between atoms: C_5  and  C_6
REMARK    7  A    between atoms: C_10  and  C_12
REMARK    8  A    between atoms: C_10  and  C_19
REMARK    9  A    between atoms: C_19  and  C_21
REMARK   10  A    between atoms: C_19  and  N_22
REMARK                            x       y       z     vdW  Elec       q    Type
REMARK                         _______ _______ _______ _____ _____    ______ ____
ROOT
ATOM      1  C   UNL     1      -2.639  -2.616   0.051  0.00  0.00    +0.072 C 
ENDROOT
BRANCH   1   2
ATOM      2  C   UNL     1      -2.795  -4.114   0.112  0.00  0.00    -0.032 A 
ATOM      3  C   UNL     1      -1.751  -4.933  -0.276  0.00  0.00    +0.006 A 
ATOM      4  C   UNL     1      -1.893  -6.307  -0.220  0.00  0.00    +0.015 A 
ATOM      5  C   UNL     1      -3.079  -6.862   0.224  0.00  0.00    +0.018 A 
ATOM      6  C   UNL     1      -4.123  -6.042   0.612  0.00  0.00    +0.015 A 
ATOM      7  C   UNL     1      -3.979  -4.668   0.561  0.00  0.00    +0.006 A 
ATOM      8 BR   UNL     1      -3.275  -8.741   0.301  0.00  0.00    -0.050 Br
ENDBRANCH   1   2
BRANCH   1   9
ATOM      9  C   UNL     1      -3.081  -2.113  -1.325  0.00  0.00    -0.056 C 
ATOM     10  C   UNL     1      -4.556  -2.458  -1.544  0.00  0.00    -0.012 C 
BRANCH   9  11
ATOM     11  N   UNL     1      -2.903  -0.657  -1.394  0.00  0.00    +0.381 N 
ATOM     12  H   UNL     1      -1.920  -0.435  -1.343  0.00  0.00    -0.090 HD
ATOM     13  H   UNL     1      -3.281  -0.312  -2.264  0.00  0.00    -0.090 HD
ATOM     14  H   UNL     1      -3.386  -0.222  -0.622  0.00  0.00    -0.090 HD
ENDBRANCH   9  11
ENDBRANCH   1   9
BRANCH   1  15
ATOM     15  N   UNL     1      -1.231  -2.261   0.273  0.00  0.00    -0.289 NA
BRANCH  15  16
ATOM     16  C   UNL     1      -0.466  -2.336  -0.978  0.00  0.00    +0.085 C 
BRANCH  16  18
ATOM     17  C   UNL     1       1.823  -2.532  -1.960  0.00  0.00    +0.005 C 
ATOM     18  C   UNL     1       1.026  -2.454  -0.657  0.00  0.00    +0.012 C 
ENDBRANCH  16  18
ENDBRANCH  15  16
BRANCH  15  19
ATOM     19  C   UNL     1      -1.115  -0.929   0.883  0.00  0.00    +0.198 C 
BRANCH  19  20
ATOM     20  C   UNL     1      -1.555  -0.998   2.347  0.00  0.00    +0.402 C 
ATOM     21  F   UNL     1      -0.819  -1.987   3.009  0.00  0.00    -0.169 F 
ATOM     22  F   UNL     1      -1.330   0.239   2.960  0.00  0.00    -0.169 F 
ATOM     23  F   UNL     1      -2.917  -1.309   2.410  0.00  0.00    -0.169 F 
ENDBRANCH  19  20
ENDBRANCH  15  19
ENDBRANCH   1  15
TORSDOF 8
