REMARK  Name = ZINC63557207
REMARK  9 active torsions:
REMARK  status: ('A' for Active; 'I' for Inactive)
REMARK    1  A    between atoms: C_1  and  C_2
REMARK    2  A    between atoms: C_2  and  C_3
REMARK    3  A    between atoms: C_2  and  C_4
REMARK    4  A    between atoms: C_4  and  C_5
REMARK    5  A    between atoms: C_9  and  N_12
REMARK    6  A    between atoms: C_13  and  C_15
REMARK    7  A    between atoms: N_20  and  C_22
REMARK    8  A    between atoms: C_22  and  C_23
REMARK    9  A    between atoms: C_23  and  C_24
REMARK                            x       y       z     vdW  Elec       q    Type
REMARK                         _______ _______ _______ _____ _____    ______ ____
ROOT
ATOM      1  C   UNL     1       7.484   3.000  -1.561  0.00  0.00    +0.101 C 
ATOM      2  C   UNL     1       7.162   4.426  -1.058  0.00  0.00    +0.110 C 
ATOM      3  C   UNL     1       8.442   5.198  -1.288  0.00  0.00    +0.216 C 
ATOM      4  O   UNL     1       8.709   6.268  -0.782  0.00  0.00    -0.276 OA
ATOM      5  N   UNL     1       9.242   4.526  -2.134  0.00  0.00    -0.300 N 
ATOM      6  C   UNL     1       8.621   3.270  -2.571  0.00  0.00    +0.121 C 
ENDROOT
BRANCH   1   8
ATOM      7  N   UNL     1       5.167   2.133  -1.542  0.00  0.00    -0.290 N 
ATOM      8  C   UNL     1       6.289   2.386  -2.244  0.00  0.00    +0.220 C 
ATOM      9  O   UNL     1       6.337   2.120  -3.427  0.00  0.00    -0.275 OA
ATOM     10  H   UNL     1       5.129   2.345  -0.596  0.00  0.00    +0.151 HD
BRANCH   7  14
ATOM     11  C   UNL     1       2.230  -0.292  -1.091  0.00  0.00    +0.130 C 
ATOM     12  N   UNL     1       2.958  -0.664  -2.345  0.00  0.00    -0.241 NA
ATOM     13  N   UNL     1       4.210   0.079  -2.434  0.00  0.00    -0.227 NA
ATOM     14  C   UNL     1       4.006   1.536  -2.206  0.00  0.00    +0.216 C 
ATOM     15  S   UNL     1       2.537   1.528  -1.091  0.00  0.00    -0.102 S 
ATOM     16  H   UNL     1       3.124  -1.658  -2.385  0.00  0.00    +0.142 HD
ATOM     17  H   UNL     1       4.897  -0.294  -1.796  0.00  0.00    +0.143 HD
BRANCH  11  18
ATOM     18  C   UNL     1       0.737  -0.607  -1.197  0.00  0.00    +0.034 C 
BRANCH  18  20
ATOM     19  C   UNL     1      -1.490  -0.293  -0.108  0.00  0.00    +0.007 C 
ATOM     20  C   UNL     1       0.020  -0.107   0.059  0.00  0.00    -0.015 C 
ATOM     21  C   UNL     1       0.501  -0.905   1.272  0.00  0.00    +0.007 C 
ENDBRANCH  18  20
ENDBRANCH  11  18
ENDBRANCH   7  14
ENDBRANCH   1   8
BRANCH   5  22
ATOM     22  C   UNL     1      10.564   4.988  -2.565  0.00  0.00    +0.112 C 
BRANCH  22  23
ATOM     23  C   UNL     1      11.627   4.461  -1.599  0.00  0.00    +0.052 C 
BRANCH  23  24
ATOM     24  C   UNL     1      12.987   4.935  -2.042  0.00  0.00    -0.040 C 
ATOM     25  C   UNL     1      13.651   6.027  -1.599  0.00  0.00    +0.002 A 
ATOM     26  C   UNL     1      13.319   7.060  -0.610  0.00  0.00    +0.048 A 
ATOM     27  C   UNL     1      14.207   8.054  -0.375  0.00  0.00    +0.124 A 
ATOM     28  C   UNL     1      15.435   8.121  -1.052  0.00  0.00    +0.040 A 
ATOM     29  C   UNL     1      15.809   7.209  -1.974  0.00  0.00    +0.029 A 
ATOM     30  C   UNL     1      14.953   6.121  -2.299  0.00  0.00    +0.043 A 
ATOM     31  N   UNL     1      15.088   5.126  -3.141  0.00  0.00    -0.380 N 
ATOM     32  C   UNL     1      13.889   4.284  -3.067  0.00  0.00    +0.144 C 
ATOM     33  F   UNL     1      13.903   9.007   0.533  0.00  0.00    -0.205 F 
ATOM     34  H   UNL     1      15.854   4.971  -3.716  0.00  0.00    +0.160 HD
ENDBRANCH  23  24
ENDBRANCH  22  23
ENDBRANCH   5  22
TORSDOF 7
