REMARK  Name = ZINC67560524
REMARK  5 active torsions:
REMARK  status: ('A' for Active; 'I' for Inactive)
REMARK    1  A    between atoms: C_4  and  C_7
REMARK    2  A    between atoms: C_11  and  N_13
REMARK    3  A    between atoms: N_13  and  C_14
REMARK    4  A    between atoms: C_14  and  C_15
REMARK    5  A    between atoms: C_15  and  C_16
REMARK                            x       y       z     vdW  Elec       q    Type
REMARK                         _______ _______ _______ _____ _____    ______ ____
ROOT
ATOM      1  C   UNL     1       3.698  -0.688  -0.037  0.00  0.00    +0.162 A 
ATOM      2  N   UNL     1       3.700  -2.013  -0.050  0.00  0.00    -0.234 NA
ATOM      3  C   UNL     1       4.838  -2.696  -0.066  0.00  0.00    +0.033 A 
ATOM      4  C   UNL     1       6.030  -2.008  -0.072  0.00  0.00    +0.010 A 
ATOM      5  C   UNL     1       6.001  -0.610  -0.056  0.00  0.00    +0.126 A 
ATOM      6  N   UNL     1       4.825   0.009  -0.045  0.00  0.00    -0.213 NA
ATOM      7  C   UNL     1       7.355  -2.721  -0.096  0.00  0.00    +0.021 C 
ATOM      8  C   UNL     1       7.157  -4.188   0.292  0.00  0.00    -0.077 C 
ATOM      9  N   UNL     1       6.074  -4.750  -0.529  0.00  0.00    +0.383 N 
ATOM     10  C   UNL     1       4.792  -4.200  -0.075  0.00  0.00    -0.026 C 
ATOM     11  H   UNL     1       6.222  -4.506  -1.496  0.00  0.00    -0.085 HD
ATOM     12  H   UNL     1       6.063  -5.754  -0.431  0.00  0.00    -0.085 HD
ENDROOT
BRANCH   1  16
ATOM     13  C   UNL     1      -0.017   1.379   0.010  0.00  0.00    +0.000 A 
ATOM     14  C   UNL     1       1.169   2.092   0.002  0.00  0.00    +0.001 A 
ATOM     15  C   UNL     1       2.377   1.426  -0.013  0.00  0.00    +0.011 A 
ATOM     16  C   UNL     1       2.402   0.033  -0.021  0.00  0.00    +0.019 A 
ATOM     17  C   UNL     1       1.205  -0.680  -0.013  0.00  0.00    +0.011 A 
ATOM     18  C   UNL     1       0.002  -0.004   0.002  0.00  0.00    +0.001 A 
ENDBRANCH   1  16
BRANCH   5  19
ATOM     19  N   UNL     1       7.179   0.118  -0.058  0.00  0.00    -0.328 N 
ATOM     20  H   UNL     1       8.033  -0.342  -0.070  0.00  0.00    +0.147 HD
BRANCH  19  21
ATOM     21  C   UNL     1       7.136   1.582  -0.042  0.00  0.00    +0.110 C 
BRANCH  21  22
ATOM     22  C   UNL     1       8.562   2.135  -0.048  0.00  0.00    +0.095 C 
BRANCH  22  23
ATOM     23  C   UNL     1       8.517   3.642  -0.032  0.00  0.00    +0.133 A 
ATOM     24  N   UNL     1       9.610   4.474  -0.037  0.00  0.00    -0.294 N 
ATOM     25  H   UNL     1      10.538   4.192  -0.052  0.00  0.00    +0.172 HD
ATOM     26  C   UNL     1       9.172   5.749  -0.019  0.00  0.00    +0.342 A 
ATOM     27  O   UNL     1       9.866   6.750  -0.018  0.00  0.00    -0.245 OA
ATOM     28  N   UNL     1       7.823   5.712  -0.002  0.00  0.00    -0.227 N 
ATOM     29  H   UNL     1       7.227   6.477   0.013  0.00  0.00    +0.194 HD
ATOM     30  N   UNL     1       7.443   4.363  -0.015  0.00  0.00    -0.157 NA
ENDBRANCH  22  23
ENDBRANCH  21  22
ENDBRANCH  19  21
ENDBRANCH   5  19
TORSDOF 5
