REMARK  Name = ZINC22014670
REMARK  7 active torsions:
REMARK  status: ('A' for Active; 'I' for Inactive)
REMARK    1  A    between atoms: C_1  and  C_2
REMARK    2  A    between atoms: N_10  and  N_14
REMARK    3  A    between atoms: C_15  and  C_17
REMARK    4  A    between atoms: C_17  and  N_18
REMARK    5  A    between atoms: C_22  and  C_24
REMARK    6  A    between atoms: N_26  and  C_27
REMARK    7  A    between atoms: N_26  and  C_28
REMARK                            x       y       z     vdW  Elec       q    Type
REMARK                         _______ _______ _______ _____ _____    ______ ____
ROOT
ATOM      1  N   UNL     1      -0.040   1.035   0.050  0.00  0.00    -0.225 N 
ATOM      2  C   UNL     1      -1.227   1.674   0.053  0.00  0.00    +0.213 C 
ATOM      3  O   UNL     1      -1.262   2.887   0.065  0.00  0.00    -0.276 OA
ATOM      4  H   UNL     1      -0.008  -0.065   0.044  0.00  0.00    +0.173 HD
ENDROOT
BRANCH   1  14
ATOM      5  C   UNL     1       5.043   2.714   4.531  0.00  0.00    +0.007 C 
ATOM      6  C   UNL     1       4.760   3.020   3.059  0.00  0.00    -0.014 C 
ATOM      7  C   UNL     1       3.425   3.759   2.940  0.00  0.00    +0.006 C 
ATOM      8  C   UNL     1       3.148   4.074   1.468  0.00  0.00    +0.035 C 
ATOM      9  C   UNL     1       3.102   2.776   0.669  0.00  0.00    +0.114 C 
ATOM     10  C   UNL     1       4.419   2.018   0.796  0.00  0.00    +0.035 C 
ATOM     11  C   UNL     1       4.692   1.710   2.270  0.00  0.00    +0.006 C 
ATOM     12  C   UNL     1       1.951   1.913   1.131  0.00  0.00    +0.263 C 
ATOM     13  O   UNL     1       1.782   1.447   2.238  0.00  0.00    -0.271 OA
ATOM     14  N   UNL     1       1.152   1.771   0.054  0.00  0.00    -0.137 N 
ATOM     15  C   UNL     1       1.642   2.415  -1.012  0.00  0.00    +0.326 C 
ATOM     16  O   UNL     1       1.102   2.429  -2.101  0.00  0.00    -0.251 OA
ATOM     17  N   UNL     1       2.799   3.050  -0.742  0.00  0.00    -0.284 N 
ATOM     18  H   UNL     1       3.481   3.672  -1.340  0.00  0.00    +0.151 HD
ENDBRANCH   1  14
BRANCH   2  19
ATOM     19  C   UNL     1      -2.509   0.883   0.042  0.00  0.00    +0.021 C 
BRANCH  19  20
ATOM     20  N   UNL     1      -3.653   1.804   0.048  0.00  0.00    +0.393 N 
ATOM     21  C   UNL     1      -3.834   2.416   1.382  0.00  0.00    -0.077 C 
ATOM     22  C   UNL     1      -5.365   2.596   1.531  0.00  0.00    -0.020 C 
ATOM     23  C   UNL     1      -5.900   1.317   0.835  0.00  0.00    -0.008 C 
ATOM     24  C   UNL     1      -4.898   1.104  -0.319  0.00  0.00    +0.020 C 
ATOM     25  H   UNL     1      -3.436   2.586  -0.695  0.00  0.00    -0.080 HD
BRANCH  24  26
ATOM     26  C   UNL     1      -4.624  -0.367  -0.501  0.00  0.00    +0.202 C 
ATOM     27  O   UNL     1      -4.261  -1.037   0.443  0.00  0.00    -0.277 OA
ATOM     28  N   UNL     1      -4.782  -0.937  -1.711  0.00  0.00    -0.309 N 
ATOM     29  C   UNL     1      -4.643  -2.388  -1.861  0.00  0.00    +0.131 C 
ATOM     30  C   UNL     1      -5.094  -0.107  -2.877  0.00  0.00    +0.131 C 
ENDBRANCH  24  26
ENDBRANCH  19  20
ENDBRANCH   2  19
TORSDOF 4
