REMARK  Name = ZINC39769769
REMARK  7 active torsions:
REMARK  status: ('A' for Active; 'I' for Inactive)
REMARK    1  A    between atoms: C_1  and  N_2
REMARK    2  A    between atoms: N_2  and  C_22
REMARK    3  A    between atoms: C_3  and  C_5
REMARK    4  A    between atoms: C_5  and  S_6
REMARK    5  A    between atoms: S_6  and  C_7
REMARK    6  A    between atoms: C_11  and  C_13
REMARK    7  A    between atoms: C_22  and  C_29
REMARK                            x       y       z     vdW  Elec       q    Type
REMARK                         _______ _______ _______ _____ _____    ______ ____
ROOT
ATOM      1  C   UNL     1      -0.134   1.454   0.024  0.00  0.00    +0.133 C 
ATOM      2  N   UNL     1       0.002  -0.004   0.002  0.00  0.00    -0.287 N 
ATOM      3  C   UNL     1       0.231  -0.677   1.147  0.00  0.00    +0.226 C 
ATOM      4  O   UNL     1       0.344  -1.884   1.129  0.00  0.00    -0.275 OA
ENDROOT
BRANCH   2   5
ATOM      5  C   UNL     1      -0.111  -0.731  -1.265  0.00  0.00    +0.122 C 
ATOM      6  C   UNL     1      -0.087   0.262  -2.432  0.00  0.00    +0.038 C 
ATOM      7  C   UNL     1       1.276   0.952  -2.485  0.00  0.00    +0.003 C 
ATOM      8  C   UNL     1       2.369  -0.079  -2.774  0.00  0.00    +0.008 C 
ATOM      9  C   UNL     1       2.438  -1.085  -1.620  0.00  0.00    +0.077 C 
ATOM     10  C   UNL     1       1.061  -1.676  -1.414  0.00  0.00    +0.161 C 
ATOM     11  O   UNL     1       0.901  -2.873  -1.370  0.00  0.00    -0.295 OA
BRANCH   5  12
ATOM     12  C   UNL     1      -1.398  -1.514  -1.286  0.00  0.00    +0.002 A 
ATOM     13  C   UNL     1      -2.259  -1.459  -0.206  0.00  0.00    +0.007 A 
ATOM     14  C   UNL     1      -3.440  -2.177  -0.225  0.00  0.00    +0.000 A 
ATOM     15  C   UNL     1      -3.761  -2.950  -1.326  0.00  0.00    +0.001 A 
ATOM     16  C   UNL     1      -2.902  -3.005  -2.406  0.00  0.00    +0.020 A 
ATOM     17  C   UNL     1      -1.722  -2.283  -2.390  0.00  0.00    +0.047 A 
ATOM     18 CL   UNL     1      -0.645  -2.346  -3.750  0.00  0.00    -0.083 Cl
ENDBRANCH   5  12
ENDBRANCH   2   5
BRANCH   3  19
ATOM     19  C   UNL     1       0.347   0.071   2.450  0.00  0.00    +0.170 C 
BRANCH  19  20
ATOM     20  S   UNL     1       0.654  -1.105   3.797  0.00  0.00    -0.087 S 
BRANCH  20  21
ATOM     21  C   UNL     1       0.766  -0.059   5.275  0.00  0.00    +0.339 C 
ATOM     22  N   UNL     1       1.840   0.937   5.120  0.00  0.00    -0.219 N 
ATOM     23  N   UNL     1       1.208   2.186   5.193  0.00  0.00    -0.145 NA
ATOM     24  C   UNL     1      -0.078   2.030   5.368  0.00  0.00    +0.238 C 
ATOM     25  O   UNL     1      -0.429   0.719   5.430  0.00  0.00    -0.443 OA
ATOM     26  H   UNL     1       2.786   0.764   4.994  0.00  0.00    +0.173 HD
BRANCH  24  27
ATOM     27  C   UNL     1      -0.988   3.090   5.480  0.00  0.00    +0.043 C 
ATOM     28  C   UNL     1      -0.705   4.455   5.422  0.00  0.00    +0.008 A 
ATOM     29  C   UNL     1       0.498   5.172   5.245  0.00  0.00    +0.010 A 
ATOM     30  C   UNL     1       0.476   6.530   5.229  0.00  0.00    +0.001 A 
ATOM     31  C   UNL     1      -0.714   7.244   5.385  0.00  0.00    +0.002 A 
ATOM     32  C   UNL     1      -1.905   6.620   5.559  0.00  0.00    +0.026 A 
ATOM     33  C   UNL     1      -1.962   5.203   5.586  0.00  0.00    +0.043 A 
ATOM     34  N   UNL     1      -2.975   4.374   5.738  0.00  0.00    -0.380 N 
ATOM     35  C   UNL     1      -2.484   2.993   5.684  0.00  0.00    +0.154 C 
ATOM     36  H   UNL     1      -3.901   4.635   5.863  0.00  0.00    +0.160 HD
ENDBRANCH  24  27
ENDBRANCH  20  21
ENDBRANCH  19  20
ENDBRANCH   3  19
TORSDOF 6
