REMARK  Name = ZINC36629323
REMARK  6 active torsions:
REMARK  status: ('A' for Active; 'I' for Inactive)
REMARK    1  A    between atoms: C_1  and  N_2
REMARK    2  A    between atoms: C_8  and  N_13
REMARK    3  A    between atoms: C_9  and  C_10
REMARK    4  A    between atoms: C_14  and  C_16
REMARK    5  A    between atoms: C_18  and  C_26
REMARK    6  A    between atoms: C_20  and  C_22
REMARK                            x       y       z     vdW  Elec       q    Type
REMARK                         _______ _______ _______ _____ _____    ______ ____
ROOT
ATOM      1  N   UNL     1       0.849  -5.857   2.215  0.00  0.00    -0.275 N 
ATOM      2  C   UNL     1       1.840  -6.106   3.093  0.00  0.00    +0.249 C 
ATOM      3  O   UNL     1       2.521  -5.192   3.515  0.00  0.00    -0.270 OA
ATOM      4  H   UNL     1       0.305  -6.587   1.877  0.00  0.00    +0.156 HD
ENDROOT
BRANCH   1  12
ATOM      5  C   UNL     1      -0.018   1.465   0.010  0.00  0.00    -0.096 C 
ATOM      6  N   UNL     1       0.002  -0.004   0.002  0.00  0.00    +0.381 N 
ATOM      7  C   UNL     1      -1.376  -0.512   0.008  0.00  0.00    -0.074 C 
ATOM      8  C   UNL     1      -1.389  -2.010  -0.313  0.00  0.00    +0.018 C 
ATOM      9  C   UNL     1      -0.409  -2.698   0.626  0.00  0.00    -0.027 A 
ATOM     10  C   UNL     1       0.522  -1.973   1.288  0.00  0.00    -0.021 A 
ATOM     11  S   UNL     1       1.417  -3.159   2.244  0.00  0.00    -0.079 S 
ATOM     12  C   UNL     1       0.606  -4.560   1.793  0.00  0.00    +0.085 A 
ATOM     13  C   UNL     1      -0.363  -4.120   0.902  0.00  0.00    +0.068 A 
ATOM     14  C   UNL     1       0.715  -0.492   1.197  0.00  0.00    -0.036 C 
ATOM     15  H   UNL     1       0.475  -0.329  -0.828  0.00  0.00    -0.082 HD
BRANCH  13  16
ATOM     16  C   UNL     1      -1.300  -5.053   0.269  0.00  0.00    +0.244 C 
ATOM     17  O   UNL     1      -1.014  -5.574  -0.794  0.00  0.00    -0.270 OA
ATOM     18  N   UNL     1      -2.476  -5.334   0.862  0.00  0.00    -0.325 N 
ATOM     19  H   UNL     1      -2.704  -4.919   1.709  0.00  0.00    +0.145 HD
ATOM     20  H   UNL     1      -3.096  -5.951   0.443  0.00  0.00    +0.145 HD
ENDBRANCH  13  16
ENDBRANCH   1  12
BRANCH   2  21
ATOM     21  C   UNL     1       2.099  -7.490   3.542  0.00  0.00    +0.038 A 
ATOM     22  C   UNL     1       1.323  -8.543   3.055  0.00  0.00    +0.025 A 
ATOM     23  C   UNL     1       1.570  -9.832   3.478  0.00  0.00    +0.056 A 
ATOM     24  C   UNL     1       2.585 -10.083   4.384  0.00  0.00    +0.024 A 
ATOM     25  C   UNL     1       3.358  -9.044   4.872  0.00  0.00    +0.056 A 
ATOM     26  C   UNL     1       3.126  -7.751   4.452  0.00  0.00    +0.025 A 
BRANCH  25  27
ATOM     27  C   UNL     1       4.461  -9.327   5.859  0.00  0.00    +0.417 C 
ATOM     28  F   UNL     1       5.652  -9.579   5.169  0.00  0.00    -0.166 F 
ATOM     29  F   UNL     1       4.633  -8.220   6.696  0.00  0.00    -0.166 F 
ATOM     30  F   UNL     1       4.122 -10.445   6.629  0.00  0.00    -0.166 F 
ENDBRANCH  25  27
BRANCH  23  31
ATOM     31  C   UNL     1       0.733 -10.970   2.953  0.00  0.00    +0.417 C 
ATOM     32  F   UNL     1      -0.221 -10.472   2.058  0.00  0.00    -0.166 F 
ATOM     33  F   UNL     1       1.556 -11.888   2.293  0.00  0.00    -0.166 F 
ATOM     34  F   UNL     1       0.087 -11.604   4.019  0.00  0.00    -0.166 F 
ENDBRANCH  23  31
ENDBRANCH   2  21
TORSDOF 5
