REMARK  Name = ZINC62505710
REMARK  8 active torsions:
REMARK  status: ('A' for Active; 'I' for Inactive)
REMARK    1  A    between atoms: C_1  and  C_2
REMARK    2  A    between atoms: C_2  and  C_3
REMARK    3  A    between atoms: C_2  and  C_21
REMARK    4  A    between atoms: C_2  and  O_28
REMARK    5  A    between atoms: C_3  and  N_4
REMARK    6  A    between atoms: C_5  and  C_7
REMARK    7  A    between atoms: N_12  and  C_13
REMARK    8  A    between atoms: C_13  and  C_14
REMARK                            x       y       z     vdW  Elec       q    Type
REMARK                         _______ _______ _______ _____ _____    ______ ____
ROOT
ATOM      1  N   UNL     1       2.077   0.091   1.294  0.00  0.00    -0.314 N 
ATOM      2  C   UNL     1       2.913  -0.212   2.306  0.00  0.00    +0.200 C 
ATOM      3  O   UNL     1       2.562  -0.983   3.174  0.00  0.00    -0.278 OA
ATOM      4  H   UNL     1       2.358   0.708   0.600  0.00  0.00    +0.149 HD
ENDROOT
BRANCH   2   5
ATOM      5  C   UNL     1       4.286   0.408   2.360  0.00  0.00    +0.020 C 
ATOM      6  C   UNL     1       5.137  -0.042   1.145  0.00  0.00    -0.008 C 
ATOM      7  C   UNL     1       6.586   0.129   1.656  0.00  0.00    -0.020 C 
ATOM      8  C   UNL     1       6.477   0.096   3.192  0.00  0.00    -0.077 C 
ATOM      9  N   UNL     1       5.049  -0.109   3.525  0.00  0.00    +0.390 N 
ATOM     10  H   UNL     1       4.862  -1.092   3.655  0.00  0.00    -0.080 HD
BRANCH   9  11
ATOM     11  C   UNL     1       4.694   0.641   4.736  0.00  0.00    -0.039 C 
BRANCH  11  12
ATOM     12  C   UNL     1       5.382   0.026   5.928  0.00  0.00    -0.029 A 
ATOM     13  C   UNL     1       4.687  -0.828   6.763  0.00  0.00    +0.004 A 
ATOM     14  C   UNL     1       5.318  -1.391   7.856  0.00  0.00    +0.000 A 
ATOM     15  C   UNL     1       6.645  -1.102   8.115  0.00  0.00    +0.003 A 
ATOM     16  C   UNL     1       7.342  -0.249   7.281  0.00  0.00    +0.038 A 
ATOM     17  C   UNL     1       6.713   0.312   6.183  0.00  0.00    +0.125 A 
ATOM     18  F   UNL     1       7.394   1.143   5.364  0.00  0.00    -0.205 F 
ENDBRANCH  11  12
ENDBRANCH   9  11
ENDBRANCH   2   5
BRANCH   1  19
ATOM     19  C   UNL     1       0.742  -0.511   1.242  0.00  0.00    +0.143 C 
BRANCH  19  21
ATOM     20  C   UNL     1      -0.019   1.526   0.010  0.00  0.00    +0.048 C 
ATOM     21  C   UNL     1       0.002  -0.004   0.002  0.00  0.00    +0.103 C 
BRANCH  21  22
ATOM     22  C   UNL     1      -1.412  -0.526   0.013  0.00  0.00    -0.015 A 
ATOM     23  C   UNL     1      -2.050  -0.766   1.215  0.00  0.00    +0.009 A 
ATOM     24  C   UNL     1      -3.347  -1.244   1.226  0.00  0.00    +0.039 A 
ATOM     25  C   UNL     1      -4.006  -1.482   0.032  0.00  0.00    +0.123 A 
ATOM     26  C   UNL     1      -3.366  -1.241  -1.171  0.00  0.00    +0.039 A 
ATOM     27  C   UNL     1      -2.071  -0.758  -1.180  0.00  0.00    +0.009 A 
ATOM     28  F   UNL     1      -5.274  -1.950   0.042  0.00  0.00    -0.205 F 
ENDBRANCH  21  22
BRANCH  21  29
ATOM     29  O   UNL     1       0.671  -0.465  -1.174  0.00  0.00    -0.383 OA
ATOM     30  H   UNL     1       0.722  -1.428  -1.246  0.00  0.00    +0.211 HD
ENDBRANCH  21  29
ENDBRANCH  19  21
ENDBRANCH   1  19
TORSDOF 7
