REMARK  Name = ZINC23359210
REMARK  13 active torsions:
REMARK  status: ('A' for Active; 'I' for Inactive)
REMARK    1  A    between atoms: C_1  and  O_2
REMARK    2  A    between atoms: O_2  and  C_3
REMARK    3  A    between atoms: C_6  and  C_23
REMARK    4  A    between atoms: C_7  and  O_9
REMARK    5  A    between atoms: O_9  and  C_10
REMARK    6  A    between atoms: C_10  and  C_11
REMARK    7  A    between atoms: C_11  and  C_13
REMARK    8  A    between atoms: C_11  and  O_22
REMARK    9  A    between atoms: C_13  and  N_14
REMARK   10  A    between atoms: C_23  and  N_24
REMARK   11  A    between atoms: N_24  and  C_25
REMARK   12  A    between atoms: C_25  and  C_26
REMARK   13  A    between atoms: C_26  and  N_27
REMARK                            x       y       z     vdW  Elec       q    Type
REMARK                         _______ _______ _______ _____ _____    ______ ____
ROOT
ATOM      1  C   UNL     1       0.606  -0.607  -1.056  0.00  0.00    +0.124 A 
ATOM      2  C   UNL     1       1.173   0.162  -2.062  0.00  0.00    +0.046 A 
ATOM      3  C   UNL     1       1.787  -0.451  -3.138  0.00  0.00    +0.009 A 
ATOM      4  C   UNL     1       1.837  -1.830  -3.215  0.00  0.00    -0.022 A 
ATOM      5  C   UNL     1       1.272  -2.603  -2.211  0.00  0.00    +0.125 A 
ATOM      6  C   UNL     1       0.660  -1.990  -1.127  0.00  0.00    +0.091 A 
ENDROOT
BRANCH   1   8
ATOM      7  C   UNL     1      -0.017   1.425   0.010  0.00  0.00    +0.277 C 
ATOM      8  O   UNL     1       0.002  -0.004   0.002  0.00  0.00    -0.495 OA
ENDBRANCH   1   8
BRANCH   5   9
ATOM      9  O   UNL     1       1.322  -3.959  -2.286  0.00  0.00    -0.489 OA
BRANCH   9  10
ATOM     10  C   UNL     1       0.719  -4.691  -1.217  0.00  0.00    +0.258 C 
BRANCH  10  11
ATOM     11  C   UNL     1       0.873  -6.191  -1.476  0.00  0.00    +0.135 C 
BRANCH  11  12
ATOM     12  O   UNL     1       2.259  -6.540  -1.440  0.00  0.00    -0.390 OA
ATOM     13  H   UNL     1       2.690  -6.350  -0.596  0.00  0.00    +0.210 HD
ENDBRANCH  11  12
BRANCH  11  14
ATOM     14  C   UNL     1       0.121  -6.974  -0.398  0.00  0.00    -0.044 C 
BRANCH  14  15
ATOM     15  N   UNL     1       0.270  -8.414  -0.646  0.00  0.00    +0.381 N 
ATOM     16  C   UNL     1       1.682  -8.792  -0.502  0.00  0.00    -0.079 C 
ATOM     17  C   UNL     1       1.817 -10.308  -0.378  0.00  0.00    -0.019 C 
ATOM     18  C   UNL     1       1.654 -10.950  -1.760  0.00  0.00    -0.002 C 
ATOM     19  C   UNL     1       0.173 -10.916  -2.143  0.00  0.00    -0.000 C 
ATOM     20  C   UNL     1      -0.667 -11.323  -0.931  0.00  0.00    -0.002 C 
ATOM     21  C   UNL     1      -1.474 -10.123  -0.441  0.00  0.00    -0.019 C 
ATOM     22  C   UNL     1      -0.550  -9.162   0.317  0.00  0.00    -0.079 C 
ATOM     23  H   UNL     1      -0.038  -8.626  -1.584  0.00  0.00    -0.082 HD
ENDBRANCH  14  15
ENDBRANCH  11  14
ENDBRANCH  10  11
ENDBRANCH   9  10
ENDBRANCH   5   9
BRANCH   4  24
ATOM     24  C   UNL     1       2.507  -2.495  -4.390  0.00  0.00    -0.043 C 
BRANCH  24  25
ATOM     25  N   UNL     1       1.486  -2.933  -5.351  0.00  0.00    +0.383 N 
ATOM     26  H   UNL     1       0.863  -3.588  -4.905  0.00  0.00    -0.085 HD
ATOM     27  H   UNL     1       0.961  -2.133  -5.672  0.00  0.00    -0.085 HD
BRANCH  25  28
ATOM     28  C   UNL     1       2.139  -3.581  -6.497  0.00  0.00    -0.067 C 
BRANCH  28  29
ATOM     29  C   UNL     1       1.076  -4.037  -7.498  0.00  0.00    +0.065 C 
BRANCH  29  30
ATOM     30  N   UNL     1       1.728  -4.685  -8.644  0.00  0.00    -0.304 NA
ATOM     31  C   UNL     1       2.257  -6.022  -8.269  0.00  0.00    +0.084 C 
ATOM     32  C   UNL     1       2.408  -6.739  -9.634  0.00  0.00    +0.017 C 
ATOM     33  C   UNL     1       1.176  -6.240 -10.425  0.00  0.00    +0.017 C 
ATOM     34  C   UNL     1       0.763  -4.925  -9.738  0.00  0.00    +0.084 C 
ENDBRANCH  29  30
ENDBRANCH  28  29
ENDBRANCH  25  28
ENDBRANCH  24  25
ENDBRANCH   4  24
TORSDOF 12
