REMARK  Name = ZINC19769105
REMARK  8 active torsions:
REMARK  status: ('A' for Active; 'I' for Inactive)
REMARK    1  A    between atoms: C_1  and  C_2
REMARK    2  A    between atoms: C_2  and  C_3
REMARK    3  A    between atoms: N_7  and  C_19
REMARK    4  A    between atoms: C_10  and  C_15
REMARK    5  A    between atoms: C_15  and  C_17
REMARK    6  A    between atoms: C_15  and  N_18
REMARK    7  A    between atoms: C_19  and  C_20
REMARK    8  A    between atoms: C_25  and  C_26
REMARK                            x       y       z     vdW  Elec       q    Type
REMARK                         _______ _______ _______ _____ _____    ______ ____
ROOT
ATOM      1  C   UNL     1      -0.695   1.616   1.251  0.00  0.00    +0.259 C 
ATOM      2  C   UNL     1      -0.052   1.001   2.468  0.00  0.00    +0.261 C 
ATOM      3  O   UNL     1      -0.480  -0.039   2.923  0.00  0.00    -0.271 OA
ATOM      4  N   UNL     1       1.001   1.612   3.050  0.00  0.00    -0.261 N 
ATOM      5  C   UNL     1       1.400   2.874   2.588  0.00  0.00    +0.079 A 
ATOM      6  C   UNL     1       2.609   3.420   2.987  0.00  0.00    +0.029 A 
ATOM      7  C   UNL     1       3.003   4.651   2.498  0.00  0.00    -0.060 A 
ATOM      8  C   UNL     1       2.194   5.339   1.612  0.00  0.00    +0.005 A 
ATOM      9  C   UNL     1       0.983   4.803   1.216  0.00  0.00    +0.048 A 
ATOM     10  C   UNL     1       0.579   3.572   1.706  0.00  0.00    +0.143 A 
ATOM     11  O   UNL     1      -0.616   3.041   1.333  0.00  0.00    -0.478 OA
ENDROOT
BRANCH   1  13
ATOM     12  C   UNL     1      -0.696   1.656  -1.248  0.00  0.00    +0.008 C 
ATOM     13  C   UNL     1       0.034   1.138  -0.007  0.00  0.00    +0.051 C 
ENDBRANCH   1  13
BRANCH   7  14
ATOM     14  C   UNL     1       4.319   5.246   2.931  0.00  0.00    -0.047 C 
ATOM     15  C   UNL     1       5.369   5.007   1.844  0.00  0.00    -0.009 C 
BRANCH  14  16
ATOM     16  N   UNL     1       4.156   6.690   3.146  0.00  0.00    +0.382 N 
ATOM     17  H   UNL     1       5.116   7.124   3.462  0.00  0.00    -0.089 HD
ATOM     18  H   UNL     1       3.401   6.862   3.927  0.00  0.00    -0.089 HD
ATOM     19  H   UNL     1       3.829   7.166   2.209  0.00  0.00    -0.089 HD
ENDBRANCH  14  16
ENDBRANCH   7  14
BRANCH   4  20
ATOM     20  C   UNL     1       1.719   0.964   4.150  0.00  0.00    +0.149 C 
BRANCH  20  21
ATOM     21  C   UNL     1       1.180   1.464   5.465  0.00  0.00    -0.027 A 
ATOM     22  C   UNL     1       0.087   2.311   5.487  0.00  0.00    +0.005 A 
ATOM     23  C   UNL     1      -0.407   2.770   6.694  0.00  0.00    +0.000 A 
ATOM     24  C   UNL     1       0.191   2.381   7.878  0.00  0.00    +0.000 A 
ATOM     25  C   UNL     1       1.283   1.534   7.856  0.00  0.00    +0.003 A 
ATOM     26  C   UNL     1       1.775   1.072   6.650  0.00  0.00    -0.046 A 
ATOM     27  C   UNL     1       2.962   0.144   6.626  0.00  0.00    +0.044 C 
ENDBRANCH  20  21
ENDBRANCH   4  20
TORSDOF 5
