REMARK  Name = ZINC39632150
REMARK  13 active torsions:
REMARK  status: ('A' for Active; 'I' for Inactive)
REMARK    1  A    between atoms: C_1  and  C_2
REMARK    2  A    between atoms: C_4  and  C_8
REMARK    3  A    between atoms: N_6  and  C_7
REMARK    4  A    between atoms: C_12  and  C_21
REMARK    5  A    between atoms: N_23  and  C_24
REMARK    6  A    between atoms: C_24  and  C_26
REMARK    7  A    between atoms: C_24  and  C_27
REMARK    8  A    between atoms: C_27  and  C_28
REMARK    9  A    between atoms: C_28  and  C_29
REMARK   10  A    between atoms: C_29  and  C_30
REMARK   11  A    between atoms: C_30  and  C_31
REMARK   12  A    between atoms: C_30  and  C_32
REMARK   13  A    between atoms: C_30  and  O_33
REMARK                            x       y       z     vdW  Elec       q    Type
REMARK                         _______ _______ _______ _____ _____    ______ ____
ROOT
ATOM      1  C   UNL     1       0.076  -3.470  -1.504  0.00  0.00    +0.267 C 
ATOM      2  O   UNL     1       0.019  -3.437  -2.718  0.00  0.00    -0.268 OA
ATOM      3  N   UNL     1       0.063  -4.654  -0.861  0.00  0.00    -0.295 N 
ATOM      4  C   UNL     1       0.118  -4.894   0.601  0.00  0.00    +0.121 C 
ATOM      5  C   UNL     1      -0.861  -6.065   0.841  0.00  0.00    +0.100 C 
ATOM      6  C   UNL     1      -0.938  -6.795  -0.511  0.00  0.00    -0.004 C 
ATOM      7  C   UNL     1      -0.015  -6.010  -1.455  0.00  0.00    +0.115 C 
ATOM      8  C   UNL     1      -0.448  -8.232  -0.365  0.00  0.00    -0.010 C 
ATOM      9  C   UNL     1      -0.589  -8.954  -1.708  0.00  0.00    -0.082 C 
ATOM     10  N   UNL     1      -1.995  -8.936  -2.129  0.00  0.00    +0.379 N 
ATOM     11  C   UNL     1      -2.432  -7.554  -2.357  0.00  0.00    -0.082 C 
ATOM     12  C   UNL     1      -2.369  -6.773  -1.042  0.00  0.00    -0.010 C 
ATOM     13  H   UNL     1      -2.095  -9.465  -2.983  0.00  0.00    -0.086 HD
ATOM     14  H   UNL     1      -2.566  -9.354  -1.410  0.00  0.00    -0.086 HD
ENDROOT
BRANCH   1  18
ATOM     15  C   UNL     1       0.319   1.428  -0.223  0.00  0.00    +0.065 C 
ATOM     16  C   UNL     1       0.264  -0.077  -0.193  0.00  0.00    +0.037 A 
ATOM     17  C   UNL     1       0.183  -0.900  -1.265  0.00  0.00    +0.057 A 
ATOM     18  C   UNL     1       0.160  -2.212  -0.735  0.00  0.00    +0.147 A 
ATOM     19  N   UNL     1       0.226  -2.097   0.577  0.00  0.00    -0.167 NA
ATOM     20  N   UNL     1       0.293  -0.858   0.909  0.00  0.00    -0.271 N 
ATOM     21  C   UNL     1       0.383  -0.363   2.284  0.00  0.00    +0.172 C 
ENDBRANCH   1  18
BRANCH   5  22
ATOM     22  C   UNL     1      -0.325  -6.986   1.907  0.00  0.00    +0.218 C 
ATOM     23  O   UNL     1       0.872  -7.122   2.045  0.00  0.00    -0.275 OA
ATOM     24  N   UNL     1      -1.177  -7.658   2.706  0.00  0.00    -0.312 N 
ATOM     25  H   UNL     1      -2.135  -7.549   2.596  0.00  0.00    +0.149 HD
BRANCH  24  26
ATOM     26  C   UNL     1      -0.657  -8.553   3.743  0.00  0.00    +0.070 C 
ATOM     27  C   UNL     1      -0.374  -9.928   3.134  0.00  0.00    +0.028 C 
BRANCH  26  28
ATOM     28  C   UNL     1      -1.691  -8.694   4.862  0.00  0.00    +0.022 C 
BRANCH  28  29
ATOM     29  C   UNL     1      -1.881  -7.342   5.553  0.00  0.00    +0.005 C 
BRANCH  29  30
ATOM     30  C   UNL     1      -2.915  -7.482   6.672  0.00  0.00    +0.034 C 
BRANCH  30  31
ATOM     31  C   UNL     1      -3.105  -6.130   7.363  0.00  0.00    +0.061 C 
ATOM     32  C   UNL     1      -4.043  -6.296   8.559  0.00  0.00    +0.041 C 
ATOM     33  C   UNL     1      -1.750  -5.609   7.846  0.00  0.00    +0.041 C 
BRANCH  31  34
ATOM     34  O   UNL     1      -3.671  -5.198   6.439  0.00  0.00    -0.389 OA
ATOM     35  H   UNL     1      -3.820  -4.318   6.810  0.00  0.00    +0.210 HD
ENDBRANCH  31  34
ENDBRANCH  30  31
ENDBRANCH  29  30
ENDBRANCH  28  29
ENDBRANCH  26  28
ENDBRANCH  24  26
ENDBRANCH   5  22
TORSDOF 8
