REMARK  Name = ZINC35907985
REMARK  4 active torsions:
REMARK  status: ('A' for Active; 'I' for Inactive)
REMARK    1  A    between atoms: C_6  and  C_7
REMARK    2  A    between atoms: C_12  and  C_27
REMARK    3  A    between atoms: N_19  and  C_21
REMARK    4  A    between atoms: N_29  and  C_30
REMARK                            x       y       z     vdW  Elec       q    Type
REMARK                         _______ _______ _______ _____ _____    ______ ____
ROOT
ATOM      1  C   UNL     1      -0.017   1.378   0.010  0.00  0.00    +0.014 A 
ATOM      2  C   UNL     1       1.169   2.085   0.002  0.00  0.00    +0.024 A 
ATOM      3  C   UNL     1       2.383   1.406  -0.014  0.00  0.00    +0.033 A 
ATOM      4  C   UNL     1       2.399   0.022  -0.027  0.00  0.00    -0.025 A 
ATOM      5  C   UNL     1       1.207  -0.681  -0.016  0.00  0.00    +0.017 A 
ATOM      6  C   UNL     1       0.002  -0.004   0.002  0.00  0.00    +0.055 A 
ATOM      7  C   UNL     1       3.700  -0.737  -0.058  0.00  0.00    +0.051 C 
ATOM      8  C   UNL     1       4.784   0.137  -0.688  0.00  0.00    +0.098 C 
ATOM      9  C   UNL     1       4.858   1.475   0.056  0.00  0.00    +0.069 C 
ATOM     10  N   UNL     1       3.573   2.152  -0.015  0.00  0.00    -0.329 N 
ATOM     11  C   UNL     1       3.453   3.612  -0.054  0.00  0.00    +0.087 C 
ATOM     12  C   UNL     1       4.640   4.228  -0.790  0.00  0.00    -0.059 C 
ATOM     13  N   UNL     1       5.879   3.713  -0.189  0.00  0.00    +0.384 N 
ATOM     14  C   UNL     1       6.006   2.292  -0.513  0.00  0.00    -0.055 C 
ATOM     15  H   UNL     1       5.842   3.829   0.813  0.00  0.00    -0.081 HD
ENDROOT
BRANCH  13  16
ATOM     16  C   UNL     1       7.031   4.446  -0.730  0.00  0.00    -0.068 C 
ATOM     17  C   UNL     1       8.319   3.908  -0.103  0.00  0.00    -0.015 C 
ATOM     18  C   UNL     1       9.518   4.672  -0.666  0.00  0.00    -0.002 C 
ATOM     19  C   UNL     1       9.375   6.160  -0.340  0.00  0.00    -0.000 C 
ATOM     20  C   UNL     1       8.087   6.698  -0.967  0.00  0.00    -0.002 C 
ATOM     21  C   UNL     1       6.887   5.934  -0.403  0.00  0.00    -0.015 C 
ENDBRANCH  13  16
BRANCH   6  22
ATOM     22  C   UNL     1      -1.293  -0.774   0.014  0.00  0.00    +0.417 C 
ATOM     23  F   UNL     1      -2.368   0.121   0.032  0.00  0.00    -0.166 F 
ATOM     24  F   UNL     1      -1.371  -1.573  -1.132  0.00  0.00    -0.166 F 
ATOM     25  F   UNL     1      -1.343  -1.585   1.153  0.00  0.00    -0.166 F 
ENDBRANCH   6  22
BRANCH   8  26
ATOM     26  C   UNL     1       4.449   0.385  -2.137  0.00  0.00    +0.218 C 
ATOM     27  O   UNL     1       4.286   1.519  -2.535  0.00  0.00    -0.275 OA
ATOM     28  N   UNL     1       4.331  -0.652  -2.989  0.00  0.00    -0.312 N 
ATOM     29  H   UNL     1       4.461  -1.559  -2.670  0.00  0.00    +0.149 HD
BRANCH  28  30
ATOM     30  C   UNL     1       4.006  -0.410  -4.396  0.00  0.00    +0.073 C 
ATOM     31  C   UNL     1       2.489  -0.296  -4.557  0.00  0.00    +0.022 C 
ATOM     32  C   UNL     1       2.149  -0.043  -6.027  0.00  0.00    +0.002 C 
ATOM     33  C   UNL     1       2.665  -1.206  -6.877  0.00  0.00    +0.000 C 
ATOM     34  C   UNL     1       4.182  -1.321  -6.716  0.00  0.00    +0.002 C 
ATOM     35  C   UNL     1       4.522  -1.573  -5.246  0.00  0.00    +0.022 C 
ENDBRANCH  28  30
ENDBRANCH   8  26
TORSDOF 4
