REMARK  Name = ZINC66988070
REMARK  8 active torsions:
REMARK  status: ('A' for Active; 'I' for Inactive)
REMARK    1  A    between atoms: C_1  and  C_2
REMARK    2  A    between atoms: C_2  and  N_3
REMARK    3  A    between atoms: N_3  and  C_4
REMARK    4  A    between atoms: N_3  and  C_5
REMARK    5  A    between atoms: C_5  and  C_6
REMARK    6  A    between atoms: C_6  and  N_7
REMARK    7  A    between atoms: N_10  and  N_11
REMARK    8  A    between atoms: N_11  and  C_12
REMARK                            x       y       z     vdW  Elec       q    Type
REMARK                         _______ _______ _______ _____ _____    ______ ____
ROOT
ATOM      1  N   UNL     1       1.504  -3.951  -2.481  0.00  0.00    -0.300 N 
ATOM      2  C   UNL     1       1.877  -4.586  -3.609  0.00  0.00    +0.316 C 
ATOM      3  O   UNL     1       2.453  -3.975  -4.489  0.00  0.00    -0.251 OA
ATOM      4  N   UNL     1       1.613  -5.899  -3.763  0.00  0.00    -0.220 N 
ATOM      5  H   UNL     1       1.046  -4.439  -1.779  0.00  0.00    +0.150 HD
ATOM      6  H   UNL     1       1.881  -6.356  -4.575  0.00  0.00    +0.174 HD
ENDROOT
BRANCH   4   7
ATOM      7  N   UNL     1       0.950  -6.603  -2.749  0.00  0.00    -0.258 N 
ATOM      8  H   UNL     1       0.613  -6.132  -1.972  0.00  0.00    +0.170 HD
BRANCH   7   9
ATOM      9  C   UNL     1       0.774  -7.989  -2.859  0.00  0.00    +0.121 A 
ATOM     10  C   UNL     1       1.760  -8.771  -3.448  0.00  0.00    +0.186 A 
ATOM     11  C   UNL     1       1.585 -10.141  -3.555  0.00  0.00    +0.198 A 
ATOM     12  C   UNL     1       0.426 -10.732  -3.076  0.00  0.00    +0.199 A 
ATOM     13  C   UNL     1      -0.558  -9.953  -2.488  0.00  0.00    +0.198 A 
ATOM     14  C   UNL     1      -0.384  -8.584  -2.374  0.00  0.00    +0.186 A 
ATOM     15  F   UNL     1      -1.342  -7.826  -1.797  0.00  0.00    -0.200 F 
ATOM     16  F   UNL     1      -1.687 -10.531  -2.022  0.00  0.00    -0.199 F 
ATOM     17  F   UNL     1       0.257 -12.068  -3.182  0.00  0.00    -0.199 F 
ATOM     18  F   UNL     1       2.543 -10.902  -4.128  0.00  0.00    -0.199 F 
ATOM     19  F   UNL     1       2.890  -8.196  -3.916  0.00  0.00    -0.200 F 
ENDBRANCH   7   9
ENDBRANCH   4   7
BRANCH   1  20
ATOM     20  C   UNL     1       1.792  -2.525  -2.313  0.00  0.00    +0.087 C 
BRANCH  20  21
ATOM     21  C   UNL     1       1.268  -2.054  -0.955  0.00  0.00    -0.060 C 
BRANCH  21  22
ATOM     22  N   UNL     1       1.556  -0.624  -0.787  0.00  0.00    +0.379 N 
ATOM     23  C   UNL     1       3.010  -0.420  -0.735  0.00  0.00    -0.096 C 
ATOM     24  H   UNL     1       1.173  -0.110  -1.567  0.00  0.00    -0.082 HD
BRANCH  22  26
ATOM     25  C   UNL     1       1.141   1.369   0.575  0.00  0.00    -0.017 C 
ATOM     26  C   UNL     1       0.949  -0.145   0.461  0.00  0.00    -0.083 C 
ENDBRANCH  22  26
ENDBRANCH  21  22
ENDBRANCH  20  21
ENDBRANCH   1  20
TORSDOF 6
