REMARK  Name = ZINC04077634
REMARK  3 active torsions:
REMARK  status: ('A' for Active; 'I' for Inactive)
REMARK    1  A    between atoms: C_10  and  C_12
REMARK    2  A    between atoms: N_14  and  C_15
REMARK    3  A    between atoms: C_16  and  C_24
REMARK                            x       y       z     vdW  Elec       q    Type
REMARK                         _______ _______ _______ _____ _____    ______ ____
ROOT
ATOM      1  C   UNL     1      -3.836   5.768   0.068  0.00  0.00    +0.284 C 
ATOM      2  O   UNL     1      -3.938   6.979   0.075  0.00  0.00    -0.266 OA
ATOM      3  N   UNL     1      -4.943   4.998   0.075  0.00  0.00    -0.273 N 
ATOM      4  H   UNL     1      -4.862   4.032   0.070  0.00  0.00    +0.156 HD
ENDROOT
BRANCH   1  14
ATOM      5  C   UNL     1       1.184   1.778   0.000  0.00  0.00    +0.001 A 
ATOM      6  C   UNL     1      -0.013   1.076   0.008  0.00  0.00    +0.004 A 
ATOM      7  C   UNL     1      -1.220   1.741   0.017  0.00  0.00    +0.047 A 
ATOM      8  C   UNL     1      -1.244   3.132   0.031  0.00  0.00    +0.139 A 
ATOM      9  C   UNL     1      -0.027   3.836   0.022  0.00  0.00    +0.064 A 
ATOM     10  C   UNL     1       1.184   3.146   0.007  0.00  0.00    +0.015 A 
ATOM     11  C   UNL     1      -0.070   5.311   0.030  0.00  0.00    +0.193 A 
ATOM     12  O   UNL     1       0.949   5.979   0.024  0.00  0.00    -0.287 OA
ATOM     13  C   UNL     1      -1.401   5.935   0.045  0.00  0.00    +0.103 A 
ATOM     14  C   UNL     1      -2.496   5.137   0.052  0.00  0.00    +0.194 A 
ATOM     15  O   UNL     1      -2.414   3.799   0.045  0.00  0.00    -0.450 OA
ENDBRANCH   1  14
BRANCH   3  16
ATOM     16  C   UNL     1      -6.196   5.588   0.091  0.00  0.00    +0.085 A 
ATOM     17  C   UNL     1      -7.439   4.971   0.094  0.00  0.00    +0.068 A 
ATOM     18  C   UNL     1      -8.613   5.827   0.116  0.00  0.00    -0.023 A 
ATOM     19  C   UNL     1      -8.358   7.153   0.119  0.00  0.00    -0.004 A 
ATOM     20  S   UNL     1      -6.592   7.275   0.102  0.00  0.00    -0.077 S 
ATOM     21  C   UNL     1      -9.360   8.266   0.134  0.00  0.00    +0.043 C 
ATOM     22  C   UNL     1     -10.733   7.684  -0.233  0.00  0.00    +0.005 C 
ATOM     23  C   UNL     1     -10.973   6.422   0.601  0.00  0.00    +0.005 C 
ATOM     24  C   UNL     1     -10.044   5.303   0.129  0.00  0.00    +0.037 C 
BRANCH  17  25
ATOM     25  C   UNL     1      -7.564   3.510   0.080  0.00  0.00    +0.244 C 
ATOM     26  O   UNL     1      -7.607   2.893   1.128  0.00  0.00    -0.270 OA
ATOM     27  N   UNL     1      -7.629   2.850  -1.093  0.00  0.00    -0.325 N 
ATOM     28  H   UNL     1      -7.594   3.342  -1.929  0.00  0.00    +0.145 HD
ATOM     29  H   UNL     1      -7.711   1.884  -1.103  0.00  0.00    +0.145 HD
ENDBRANCH  17  25
ENDBRANCH   3  16
TORSDOF 3
