REMARK  Name = ZINC38686341
REMARK  9 active torsions:
REMARK  status: ('A' for Active; 'I' for Inactive)
REMARK    1  A    between atoms: C_4  and  C_7
REMARK    2  A    between atoms: C_7  and  O_9
REMARK    3  A    between atoms: O_9  and  C_10
REMARK    4  A    between atoms: C_17  and  N_38
REMARK    5  A    between atoms: C_18  and  C_36
REMARK    6  A    between atoms: C_19  and  C_21
REMARK    7  A    between atoms: C_24  and  O_27
REMARK    8  A    between atoms: O_27  and  C_28
REMARK    9  A    between atoms: C_28  and  C_29
REMARK                            x       y       z     vdW  Elec       q    Type
REMARK                         _______ _______ _______ _____ _____    ______ ____
ROOT
ATOM      1  C   UNL     1       4.878  -2.735  -0.094  0.00  0.00    +0.135 A 
ATOM      2  C   UNL     1       6.096  -2.071  -0.060  0.00  0.00    +0.047 A 
ATOM      3  C   UNL     1       7.275  -2.788  -0.110  0.00  0.00    +0.012 A 
ATOM      4  C   UNL     1       7.248  -4.169  -0.194  0.00  0.00    +0.008 A 
ATOM      5  C   UNL     1       6.034  -4.838  -0.229  0.00  0.00    +0.138 A 
ATOM      6  C   UNL     1       4.847  -4.118  -0.173  0.00  0.00    +0.093 A 
ATOM      7  O   UNL     1       5.987  -6.190  -0.311  0.00  0.00    -0.441 OA
ATOM      8  C   UNL     1       7.061  -6.873  -0.741  0.00  0.00    +0.199 C 
ATOM      9  C   UNL     1       8.303  -6.333  -0.737  0.00  0.00    +0.098 C 
ATOM     10  C   UNL     1       8.544  -4.933  -0.247  0.00  0.00    +0.098 C 
ENDROOT
BRANCH  10  11
ATOM     11  C   UNL     1       9.150  -4.984   1.132  0.00  0.00    -0.034 A 
ATOM     12  C   UNL     1       8.456  -5.580   2.169  0.00  0.00    +0.008 A 
ATOM     13  C   UNL     1       9.009  -5.628   3.434  0.00  0.00    +0.046 A 
ATOM     14  C   UNL     1      10.262  -5.078   3.664  0.00  0.00    +0.121 A 
ATOM     15  C   UNL     1      10.956  -4.482   2.621  0.00  0.00    +0.046 A 
ATOM     16  C   UNL     1      10.401  -4.441   1.357  0.00  0.00    +0.008 A 
BRANCH  14  17
ATOM     17  O   UNL     1      10.807  -5.124   4.907  0.00  0.00    -0.487 OA
BRANCH  17  18
ATOM     18  C   UNL     1      12.101  -4.538   5.070  0.00  0.00    +0.264 C 
BRANCH  18  19
ATOM     19  C   UNL     1      12.541  -4.682   6.504  0.00  0.00    -0.010 A 
ATOM     20  C   UNL     1      12.228  -3.700   7.425  0.00  0.00    +0.008 A 
ATOM     21  C   UNL     1      12.632  -3.831   8.740  0.00  0.00    +0.020 A 
ATOM     22  C   UNL     1      13.348  -4.947   9.136  0.00  0.00    +0.041 A 
ATOM     23  C   UNL     1      13.660  -5.930   8.214  0.00  0.00    +0.020 A 
ATOM     24  C   UNL     1      13.252  -5.800   6.900  0.00  0.00    +0.008 A 
ATOM     25 CL   UNL     1      13.855  -5.113  10.788  0.00  0.00    -0.084 Cl
ENDBRANCH  18  19
ENDBRANCH  17  18
ENDBRANCH  14  17
ENDBRANCH  10  11
BRANCH   8  26
ATOM     26  N   UNL     1       6.895  -8.157  -1.197  0.00  0.00    -0.328 N 
ATOM     27  H   UNL     1       6.012  -8.558  -1.206  0.00  0.00    +0.145 HD
ATOM     28  H   UNL     1       7.660  -8.663  -1.511  0.00  0.00    +0.145 HD
ENDBRANCH   8  26
BRANCH   9  29
ATOM     29  C   UNL     1       9.408  -7.112  -1.208  0.00  0.00    +0.101 C 
ATOM     30  N   UNL     1      10.285  -7.729  -1.583  0.00  0.00    -0.191 NA
ENDBRANCH   9  29
BRANCH   1  31
ATOM     31  O   UNL     1       3.716  -2.031  -0.045  0.00  0.00    -0.422 OA
BRANCH  31  32
ATOM     32  C   UNL     1       3.307  -1.407  -1.167  0.00  0.00    +0.344 C 
ATOM     33  O   UNL     1       4.014  -1.409  -2.155  0.00  0.00    -0.245 OA
BRANCH  32  37
ATOM     34  C   UNL     1      -0.452   0.566  -1.248  0.00  0.00    +0.000 A 
ATOM     35  C   UNL     1       0.350   0.566  -2.376  0.00  0.00    +0.001 A 
ATOM     36  C   UNL     1       1.573  -0.073  -2.356  0.00  0.00    +0.015 A 
ATOM     37  C   UNL     1       2.000  -0.720  -1.195  0.00  0.00    +0.059 A 
ATOM     38  C   UNL     1       1.185  -0.716  -0.061  0.00  0.00    +0.015 A 
ATOM     39  C   UNL     1      -0.035  -0.073  -0.094  0.00  0.00    +0.001 A 
ENDBRANCH  32  37
ENDBRANCH  31  32
ENDBRANCH   1  31
TORSDOF 9
