REMARK  Name = ZINC65247908
REMARK  4 active torsions:
REMARK  status: ('A' for Active; 'I' for Inactive)
REMARK    1  A    between atoms: C_6  and  C_7
REMARK    2  A    between atoms: C_15  and  C_19
REMARK    3  A    between atoms: C_19  and  C_20
REMARK    4  A    between atoms: N_22  and  C_23
REMARK                            x       y       z     vdW  Elec       q    Type
REMARK                         _______ _______ _______ _____ _____    ______ ____
ROOT
ATOM      1  C   UNL     1      -1.269  -0.764   0.011  0.00  0.00    +0.047 C 
ATOM      2  C   UNL     1      -1.373  -2.114   0.010  0.00  0.00    +0.027 C 
ATOM      3  C   UNL     1      -2.855  -2.371   0.039  0.00  0.00    +0.192 C 
ATOM      4  C   UNL     1      -3.358  -3.486  -0.828  0.00  0.00    +0.276 C 
ATOM      5  O   UNL     1      -2.686  -4.462  -1.064  0.00  0.00    -0.270 OA
ATOM      6  N   UNL     1      -4.609  -3.337  -1.332  0.00  0.00    -0.082 NA
ATOM      7  N   UNL     1      -5.281  -2.311  -1.204  0.00  0.00    -0.174 NA
ATOM      8  C   UNL     1      -4.791  -1.100  -0.522  0.00  0.00    +0.222 C 
ATOM      9  N   UNL     1      -3.349  -1.106  -0.595  0.00  0.00    -0.187 NA
ATOM     10  N   UNL     1      -2.564  -0.193   0.027  0.00  0.00    -0.275 N 
ATOM     11  H   UNL     1      -2.829   0.663   0.400  0.00  0.00    +0.167 HD
ENDROOT
BRANCH   1  17
ATOM     12  C   UNL     1      -0.017   1.390   0.010  0.00  0.00    +0.012 A 
ATOM     13  C   UNL     1       1.170   2.094   0.002  0.00  0.00    +0.039 A 
ATOM     14  C   UNL     1       2.379   1.418  -0.013  0.00  0.00    +0.123 A 
ATOM     15  C   UNL     1       2.403   0.032  -0.021  0.00  0.00    +0.039 A 
ATOM     16  C   UNL     1       1.222  -0.680  -0.013  0.00  0.00    +0.012 A 
ATOM     17  C   UNL     1       0.002  -0.004   0.002  0.00  0.00    -0.003 A 
ATOM     18  F   UNL     1       3.538   2.111  -0.022  0.00  0.00    -0.205 F 
ENDBRANCH   1  17
BRANCH   8  19
ATOM     19  C   UNL     1      -5.222  -1.118   0.946  0.00  0.00    +0.141 C 
BRANCH  19  20
ATOM     20  C   UNL     1      -6.726  -1.160   1.028  0.00  0.00    +0.217 C 
ATOM     21  O   UNL     1      -7.388  -1.174   0.013  0.00  0.00    -0.276 OA
ATOM     22  N   UNL     1      -7.335  -1.182   2.230  0.00  0.00    -0.312 N 
ATOM     23  H   UNL     1      -6.805  -1.171   3.043  0.00  0.00    +0.149 HD
BRANCH  22  24
ATOM     24  C   UNL     1      -8.797  -1.224   2.310  0.00  0.00    +0.073 C 
ATOM     25  C   UNL     1      -9.368   0.209   2.290  0.00  0.00    +0.022 C 
ATOM     26  C   UNL     1     -10.571   0.153   3.264  0.00  0.00    +0.002 C 
ATOM     27  C   UNL     1     -10.056  -0.780   4.389  0.00  0.00    +0.002 C 
ATOM     28  C   UNL     1      -9.235  -1.853   3.644  0.00  0.00    +0.022 C 
ENDBRANCH  22  24
ENDBRANCH  19  20
ENDBRANCH   8  19
TORSDOF 4
