REMARK  Name = ZINC23038605
REMARK  12 active torsions:
REMARK  status: ('A' for Active; 'I' for Inactive)
REMARK    1  A    between atoms: C_1  and  C_2
REMARK    2  A    between atoms: C_2  and  C_3
REMARK    3  A    between atoms: C_5  and  C_25
REMARK    4  A    between atoms: C_6  and  C_11
REMARK    5  A    between atoms: C_11  and  N_12
REMARK    6  A    between atoms: N_12  and  C_13
REMARK    7  A    between atoms: N_12  and  C_14
REMARK    8  A    between atoms: C_14  and  C_15
REMARK    9  A    between atoms: N_17  and  C_18
REMARK   10  A    between atoms: C_25  and  O_27
REMARK   11  A    between atoms: O_27  and  C_28
REMARK   12  A    between atoms: C_28  and  C_29
REMARK                            x       y       z     vdW  Elec       q    Type
REMARK                         _______ _______ _______ _____ _____    ______ ____
ROOT
ATOM      1  C   UNL     1       0.199   1.478   0.791  0.00  0.00    +0.113 C 
ATOM      2  C   UNL     1       1.623   1.897   0.488  0.00  0.00    +0.072 C 
ATOM      3  C   UNL     1       2.225   2.746   1.349  0.00  0.00    +0.007 C 
ATOM      4  N   UNL     1       1.571   3.211   2.454  0.00  0.00    -0.274 N 
ATOM      5  C   UNL     1       0.314   2.875   2.769  0.00  0.00    +0.304 C 
ATOM      6  O   UNL     1      -0.184   3.340   3.775  0.00  0.00    -0.253 OA
ATOM      7  N   UNL     1      -0.416   2.036   2.007  0.00  0.00    -0.292 N 
ATOM      8  H   UNL     1       2.079   3.902   3.143  0.00  0.00    +0.156 HD
ATOM      9  H   UNL     1      -1.448   1.766   2.275  0.00  0.00    +0.151 HD
ENDROOT
BRANCH   1  11
ATOM     10  C   UNL     1      -2.072   1.281  -0.231  0.00  0.00    +0.006 C 
ATOM     11  C   UNL     1      -0.673   1.875  -0.402  0.00  0.00    +0.024 C 
ENDBRANCH   1  11
BRANCH   2  12
ATOM     12  C   UNL     1       2.300   1.415  -0.657  0.00  0.00    +0.338 C 
ATOM     13  O   UNL     1       2.073   1.904  -1.748  0.00  0.00    -0.245 OA
BRANCH  12  14
ATOM     14  O   UNL     1       3.195   0.412  -0.539  0.00  0.00    -0.462 OA
BRANCH  14  15
ATOM     15  C   UNL     1       3.841  -0.025  -1.737  0.00  0.00    +0.229 C 
ATOM     16  C   UNL     1       4.814  -1.158  -1.408  0.00  0.00    +0.048 C 
ENDBRANCH  14  15
ENDBRANCH  12  14
ENDBRANCH   2  12
BRANCH   3  17
ATOM     17  C   UNL     1       3.642   3.188   1.085  0.00  0.00    -0.026 C 
BRANCH  17  18
ATOM     18  N   UNL     1       3.664   4.635   0.834  0.00  0.00    +0.387 N 
ATOM     19  C   UNL     1       2.958   4.965  -0.411  0.00  0.00    -0.095 C 
ATOM     20  H   UNL     1       3.137   5.130   1.663  0.00  0.00    -0.081 HD
BRANCH  18  21
ATOM     21  C   UNL     1       5.043   5.143   0.808  0.00  0.00    +0.019 C 
BRANCH  21  22
ATOM     22  C   UNL     1       5.022   6.650   0.795  0.00  0.00    +0.201 C 
ATOM     23  O   UNL     1       3.964   7.242   0.807  0.00  0.00    -0.278 OA
ATOM     24  N   UNL     1       6.180   7.340   0.771  0.00  0.00    -0.286 N 
ATOM     25  H   UNL     1       7.136   6.805   0.668  0.00  0.00    +0.155 HD
BRANCH  24  26
ATOM     26  C   UNL     1       6.166   8.735   0.876  0.00  0.00    +0.047 A 
ATOM     27  C   UNL     1       5.054   9.382   1.400  0.00  0.00    +0.024 A 
ATOM     28  C   UNL     1       5.045  10.759   1.506  0.00  0.00    +0.002 A 
ATOM     29  C   UNL     1       6.137  11.495   1.083  0.00  0.00    +0.001 A 
ATOM     30  C   UNL     1       7.244  10.854   0.557  0.00  0.00    +0.017 A 
ATOM     31  C   UNL     1       7.262   9.476   0.452  0.00  0.00    +0.039 A 
ATOM     32 BR   UNL     1       8.775   8.601  -0.269  0.00  0.00    -0.048 Br
ENDBRANCH  24  26
ENDBRANCH  21  22
ENDBRANCH  18  21
ENDBRANCH  17  18
ENDBRANCH   3  17
TORSDOF 9
