REMARK  Name = ZINC39856968
REMARK  4 active torsions:
REMARK  status: ('A' for Active; 'I' for Inactive)
REMARK    1  A    between atoms: C_1  and  C_2
REMARK    2  A    between atoms: C_7  and  N_8
REMARK    3  A    between atoms: C_12  and  C_13
REMARK    4  A    between atoms: C_16  and  C_18
REMARK                            x       y       z     vdW  Elec       q    Type
REMARK                         _______ _______ _______ _____ _____    ______ ____
ROOT
ATOM      1  N   UNL     1       0.032   0.102   2.364  0.00  0.00    -0.196 N 
ATOM      2  C   UNL     1      -1.117   0.465   2.909  0.00  0.00    +0.265 C 
ATOM      3  O   UNL     1      -2.171   0.360   2.307  0.00  0.00    -0.269 OA
ATOM      4  C   UNL     1      -1.061   1.001   4.279  0.00  0.00    +0.083 C 
ATOM      5  C   UNL     1      -2.070   1.448   5.079  0.00  0.00    +0.066 C 
ATOM      6  S   UNL     1       0.695   0.907   4.603  0.00  0.00    -0.025 S 
ATOM      7  C   UNL     1       1.196   0.215   3.035  0.00  0.00    +0.290 C 
ATOM      8  O   UNL     1       2.316  -0.082   2.663  0.00  0.00    -0.262 OA
ENDROOT
BRANCH   1  15
ATOM      9  C   UNL     1       0.344   1.918   0.195  0.00  0.00    +0.045 C 
ATOM     10  C   UNL     1       0.189   0.436  -0.025  0.00  0.00    -0.029 A 
ATOM     11  C   UNL     1       0.202  -0.079  -1.307  0.00  0.00    +0.005 A 
ATOM     12  C   UNL     1       0.060  -1.439  -1.509  0.00  0.00    +0.000 A 
ATOM     13  C   UNL     1      -0.095  -2.289  -0.429  0.00  0.00    +0.002 A 
ATOM     14  C   UNL     1      -0.109  -1.781   0.855  0.00  0.00    +0.024 A 
ATOM     15  C   UNL     1       0.039  -0.416   1.061  0.00  0.00    +0.048 A 
ENDBRANCH   1  15
BRANCH   5  16
ATOM     16  C   UNL     1      -3.415   1.304   4.668  0.00  0.00    +0.129 A 
ATOM     17  C   UNL     1      -4.525   1.783   5.335  0.00  0.00    +0.049 A 
ATOM     18  C   UNL     1      -5.641   1.412   4.568  0.00  0.00    +0.045 A 
ATOM     19  C   UNL     1      -5.181   0.739   3.491  0.00  0.00    +0.103 A 
ATOM     20  O   UNL     1      -3.842   0.681   3.550  0.00  0.00    -0.461 OA
ATOM     21  C   UNL     1      -6.034   0.153   2.396  0.00  0.00    +0.086 C 
ENDBRANCH   5  16
TORSDOF 2
