REMARK  Name = ZINC27237551
REMARK  14 active torsions:
REMARK  status: ('A' for Active; 'I' for Inactive)
REMARK    1  A    between atoms: C_1  and  C_2
REMARK    2  A    between atoms: C_2  and  O_3
REMARK    3  A    between atoms: O_3  and  C_4
REMARK    4  A    between atoms: C_7  and  C_10
REMARK    5  A    between atoms: C_10  and  C_11
REMARK    6  A    between atoms: C_10  and  C_19
REMARK    7  A    between atoms: C_10  and  O_36
REMARK    8  A    between atoms: C_16  and  O_17
REMARK    9  A    between atoms: O_17  and  C_18
REMARK   10  A    between atoms: C_19  and  C_21
REMARK   11  A    between atoms: C_19  and  O_27
REMARK   12  A    between atoms: C_21  and  N_22
REMARK   13  A    between atoms: O_27  and  C_28
REMARK   14  A    between atoms: C_33  and  C_34
REMARK                            x       y       z     vdW  Elec       q    Type
REMARK                         _______ _______ _______ _____ _____    ______ ____
ROOT
ATOM      1  C   UNL     1       1.778  -3.809  -0.185  0.00  0.00    +0.154 C 
ENDROOT
BRANCH   1   5
ATOM      2  C   UNL     1       0.081  -4.362   3.697  0.00  0.00    +0.121 A 
ATOM      3  C   UNL     1       0.793  -5.391   3.098  0.00  0.00    +0.046 A 
ATOM      4  C   UNL     1       1.340  -5.210   1.842  0.00  0.00    +0.010 A 
ATOM      5  C   UNL     1       1.179  -4.005   1.184  0.00  0.00    -0.008 A 
ATOM      6  C   UNL     1       0.475  -2.976   1.782  0.00  0.00    +0.010 A 
ATOM      7  C   UNL     1      -0.080  -3.154   3.035  0.00  0.00    +0.046 A 
BRANCH   2   8
ATOM      8  O   UNL     1      -0.459  -4.538   4.933  0.00  0.00    -0.492 OA
BRANCH   8  10
ATOM      9  C   UNL     1      -1.708  -3.819   6.873  0.00  0.00    +0.048 C 
ATOM     10  C   UNL     1      -1.179  -3.436   5.489  0.00  0.00    +0.225 C 
ENDBRANCH   8  10
ENDBRANCH   2   8
ENDBRANCH   1   5
BRANCH   1  11
ATOM     11  C   UNL     1       0.754  -4.158  -1.235  0.00  0.00    +0.033 A 
ATOM     12  C   UNL     1       0.967  -5.231  -2.078  0.00  0.00    +0.010 A 
ATOM     13  C   UNL     1       0.028  -5.552  -3.041  0.00  0.00    +0.001 A 
ATOM     14  C   UNL     1      -1.126  -4.799  -3.163  0.00  0.00    +0.004 A 
ATOM     15  C   UNL     1      -1.343  -3.724  -2.323  0.00  0.00    +0.046 A 
ATOM     16  C   UNL     1      -0.404  -3.404  -1.352  0.00  0.00    +0.126 A 
BRANCH  16  17
ATOM     17  O   UNL     1      -0.618  -2.351  -0.520  0.00  0.00    -0.495 OA
ATOM     18  C   UNL     1      -1.878  -1.685  -0.627  0.00  0.00    +0.277 C 
ENDBRANCH  16  17
ENDBRANCH   1  11
BRANCH   1  19
ATOM     19  O   UNL     1       2.918  -4.658  -0.332  0.00  0.00    -0.376 OA
ATOM     20  H   UNL     1       3.490  -4.654  -1.272  0.00  0.00    +0.211 HD
ENDBRANCH   1  19
BRANCH   1  21
ATOM     21  C   UNL     1       2.204  -2.349  -0.352  0.00  0.00    +0.198 C 
BRANCH  21  22
ATOM     22  C   UNL     1       2.182  -1.979  -1.837  0.00  0.00    -0.030 C 
BRANCH  22  23
ATOM     23  N   UNL     1       2.216  -0.517  -1.977  0.00  0.00    +0.382 N 
ATOM     24  C   UNL     1       3.434   0.050  -1.343  0.00  0.00    -0.079 C 
ATOM     25  C   UNL     1       3.573   1.437  -2.020  0.00  0.00    -0.020 C 
ATOM     26  C   UNL     1       3.137   1.156  -3.476  0.00  0.00    -0.020 C 
ATOM     27  C   UNL     1       2.281  -0.122  -3.401  0.00  0.00    -0.079 C 
ATOM     28  H   UNL     1       1.297  -0.148  -1.498  0.00  0.00    -0.082 HD
ENDBRANCH  22  23
ENDBRANCH  21  22
BRANCH  21  29
ATOM     29  O   UNL     1       3.525  -2.177   0.163  0.00  0.00    -0.487 OA
BRANCH  29  30
ATOM     30  C   UNL     1       4.541  -2.741  -0.542  0.00  0.00    +0.124 A 
ATOM     31  C   UNL     1       4.262  -3.573  -1.618  0.00  0.00    +0.047 A 
ATOM     32  C   UNL     1       5.295  -4.146  -2.333  0.00  0.00    +0.023 A 
ATOM     33  C   UNL     1       6.608  -3.891  -1.978  0.00  0.00    +0.041 A 
ATOM     34  C   UNL     1       6.888  -3.062  -0.906  0.00  0.00    +0.027 A 
ATOM     35  C   UNL     1       5.857  -2.487  -0.188  0.00  0.00    -0.007 A 
ATOM     36  C   UNL     1       6.163  -1.585   0.979  0.00  0.00    +0.047 C 
ATOM     37 CL   UNL     1       7.905  -4.611  -2.879  0.00  0.00    -0.084 Cl
ENDBRANCH  29  30
ENDBRANCH  21  29
ENDBRANCH   1  21
TORSDOF 11
