REMARK  Name = ZINC06014970
REMARK  10 active torsions:
REMARK  status: ('A' for Active; 'I' for Inactive)
REMARK    1  A    between atoms: C_1  and  C_2
REMARK    2  A    between atoms: C_2  and  C_3
REMARK    3  A    between atoms: C_2  and  C_4
REMARK    4  A    between atoms: C_2  and  N_5
REMARK    5  A    between atoms: C_6  and  C_10
REMARK    6  A    between atoms: C_10  and  C_12
REMARK    7  A    between atoms: C_10  and  N_69
REMARK    8  A    between atoms: N_29  and  C_32
REMARK    9  A    between atoms: C_36  and  O_38
REMARK   10  A    between atoms: O_38  and  C_39
REMARK                            x       y       z     vdW  Elec       q    Type
REMARK                         _______ _______ _______ _____ _____    ______ ____
ROOT
ATOM      1  C   UNL     1       3.635   2.298   1.197  0.00  0.00    +0.039 C 
ENDROOT
BRANCH   1   2
ATOM      2  C   UNL     1       3.720   3.784   0.959  0.00  0.00    +0.011 A 
ATOM      3  C   UNL     1       4.471   4.558   1.782  0.00  0.00    +0.017 A 
ATOM      4  C   UNL     1       4.537   5.996   1.522  0.00  0.00    +0.002 A 
ATOM      5  C   UNL     1       5.302   6.842   2.335  0.00  0.00    +0.059 A 
ATOM      6  C   UNL     1       5.340   8.193   2.070  0.00  0.00    +0.167 A 
ATOM      7  C   UNL     1       4.617   8.721   0.992  0.00  0.00    +0.168 A 
ATOM      8  C   UNL     1       3.860   7.893   0.184  0.00  0.00    +0.075 A 
ATOM      9  C   UNL     1       3.812   6.528   0.438  0.00  0.00    +0.053 A 
ATOM     10  N   UNL     1       3.063   5.686  -0.358  0.00  0.00    -0.322 N 
ATOM     11  H   UNL     1       2.549   6.064  -1.128  0.00  0.00    +0.169 HD
ATOM     12  C   UNL     1       3.013   4.365  -0.114  0.00  0.00    +0.251 A 
ATOM     13  O   UNL     1       2.341   3.651  -0.838  0.00  0.00    -0.268 OA
ATOM     14  O   UNL     1       4.824  10.069   0.952  0.00  0.00    -0.453 OA
ATOM     15  C   UNL     1       5.342  10.419   2.249  0.00  0.00    +0.466 C 
ATOM     16  O   UNL     1       5.994   9.216   2.696  0.00  0.00    -0.453 OA
ENDBRANCH   1   2
BRANCH   1  22
ATOM     17  C   UNL     1       2.094   0.439   1.388  0.00  0.00    -0.058 C 
ATOM     18  C   UNL     1       0.611   0.065   1.436  0.00  0.00    +0.086 C 
ATOM     19  N   UNL     1      -0.016   0.703   2.602  0.00  0.00    -0.333 N 
ATOM     20  C   UNL     1       0.116   2.165   2.533  0.00  0.00    +0.086 C 
ATOM     21  C   UNL     1       1.599   2.539   2.486  0.00  0.00    -0.058 C 
ATOM     22  N   UNL     1       2.212   1.910   1.297  0.00  0.00    +0.391 N 
ATOM     23  H   UNL     1       1.718   2.232   0.457  0.00  0.00    -0.080 HD
BRANCH  19  24
ATOM     24  C   UNL     1      -1.355   0.325   2.719  0.00  0.00    +0.033 A 
ATOM     25  C   UNL     1      -1.918  -0.542   1.790  0.00  0.00    +0.023 A 
ATOM     26  C   UNL     1      -3.241  -0.918   1.909  0.00  0.00    +0.005 A 
ATOM     27  C   UNL     1      -4.013  -0.426   2.945  0.00  0.00    +0.046 A 
ATOM     28  C   UNL     1      -3.458   0.444   3.872  0.00  0.00    +0.122 A 
ATOM     29  C   UNL     1      -2.128   0.821   3.760  0.00  0.00    +0.068 A 
BRANCH  28  30
ATOM     30  O   UNL     1      -4.218   0.928   4.890  0.00  0.00    -0.495 OA
ATOM     31  C   UNL     1      -5.579   0.498   4.944  0.00  0.00    +0.277 C 
ENDBRANCH  28  30
ENDBRANCH  19  24
ENDBRANCH   1  22
BRANCH   1  33
ATOM     32  N   UNL     1       5.413   0.869   0.057  0.00  0.00    -0.225 N 
ATOM     33  C   UNL     1       4.263   1.567   0.038  0.00  0.00    +0.143 A 
ATOM     34  N   UNL     1       3.798   1.494  -1.186  0.00  0.00    -0.115 NA
ATOM     35  N   UNL     1       4.617   0.783  -1.880  0.00  0.00    -0.023 NA
ATOM     36  N   UNL     1       5.593   0.400  -1.132  0.00  0.00    -0.043 NA
BRANCH  32  38
ATOM     37  C   UNL     1       5.541  -0.090   2.303  0.00  0.00    +0.036 C 
ATOM     38  C   UNL     1       6.293   0.673   1.211  0.00  0.00    +0.059 C 
ATOM     39  C   UNL     1       7.524  -0.129   0.784  0.00  0.00    +0.036 C 
ATOM     40  C   UNL     1       6.735   2.034   1.752  0.00  0.00    +0.036 C 
ENDBRANCH  32  38
ENDBRANCH   1  33
TORSDOF 6
