REMARK  Name = ZINC63473284
REMARK  5 active torsions:
REMARK  status: ('A' for Active; 'I' for Inactive)
REMARK    1  A    between atoms: C_1  and  O_2
REMARK    2  A    between atoms: O_2  and  C_3
REMARK    3  A    between atoms: C_6  and  C_9
REMARK    4  A    between atoms: C_15  and  C_20
REMARK    5  A    between atoms: C_23  and  O_26
REMARK                            x       y       z     vdW  Elec       q    Type
REMARK                         _______ _______ _______ _____ _____    ______ ____
ROOT
ATOM      1  C   UNL     1      -4.987  -2.654  -0.045  0.00  0.00    +0.082 C 
ATOM      2  N   UNL     1      -6.193  -2.124   0.052  0.00  0.00    -0.153 NA
ATOM      3  N   UNL     1      -7.130  -2.997   0.121  0.00  0.00    -0.148 NA
ATOM      4  C   UNL     1      -6.705  -4.182   0.406  0.00  0.00    +0.136 C 
ATOM      5  C   UNL     1      -5.238  -4.141  -0.087  0.00  0.00    +0.120 C 
ATOM      6  C   UNL     1      -4.578  -4.897   1.083  0.00  0.00    +0.118 C 
ATOM      7  N   UNL     1      -5.587  -5.937   1.395  0.00  0.00    -0.302 N 
ATOM      8  C   UNL     1      -6.804  -5.530   0.958  0.00  0.00    +0.261 C 
ATOM      9  O   UNL     1      -7.822  -6.194   1.006  0.00  0.00    -0.269 OA
ATOM     10  H   UNL     1      -5.406  -6.775   1.848  0.00  0.00    +0.150 HD
ENDROOT
BRANCH   1  14
ATOM     11  C   UNL     1      -1.274  -0.640  -0.215  0.00  0.00    +0.120 A 
ATOM     12  C   UNL     1      -2.379  -0.010   0.348  0.00  0.00    +0.046 A 
ATOM     13  C   UNL     1      -3.581  -0.655   0.406  0.00  0.00    +0.013 A 
ATOM     14  C   UNL     1      -3.701  -1.956  -0.104  0.00  0.00    -0.001 A 
ATOM     15  C   UNL     1      -2.584  -2.586  -0.672  0.00  0.00    +0.013 A 
ATOM     16  C   UNL     1      -1.388  -1.928  -0.729  0.00  0.00    +0.046 A 
BRANCH  11  18
ATOM     17  C   UNL     1      -0.035   1.326   0.275  0.00  0.00    +0.277 C 
ATOM     18  O   UNL     1      -0.082   0.006  -0.270  0.00  0.00    -0.495 OA
ENDBRANCH  11  18
ENDBRANCH   1  14
BRANCH   6  19
ATOM     19  C   UNL     1      -3.275  -5.520   0.652  0.00  0.00    -0.026 A 
ATOM     20  C   UNL     1      -3.280  -6.621  -0.185  0.00  0.00    +0.009 A 
ATOM     21  C   UNL     1      -2.087  -7.194  -0.581  0.00  0.00    +0.046 A 
ATOM     22  C   UNL     1      -0.884  -6.665  -0.138  0.00  0.00    +0.117 A 
ATOM     23  C   UNL     1      -0.882  -5.560   0.701  0.00  0.00    +0.046 A 
ATOM     24  C   UNL     1      -2.077  -4.987   1.090  0.00  0.00    +0.009 A 
BRANCH  22  25
ATOM     25  O   UNL     1       0.291  -7.227  -0.526  0.00  0.00    -0.507 OA
ATOM     26  H   UNL     1       0.654  -6.856  -1.342  0.00  0.00    +0.292 HD
ENDBRANCH  22  25
ENDBRANCH   6  19
TORSDOF 4
