REMARK  Name = ZINC43286761
REMARK  9 active torsions:
REMARK  status: ('A' for Active; 'I' for Inactive)
REMARK    1  A    between atoms: C_1  and  C_2
REMARK    2  A    between atoms: C_2  and  C_3
REMARK    3  A    between atoms: C_3  and  C_5
REMARK    4  A    between atoms: C_3  and  N_22
REMARK    5  A    between atoms: C_5  and  C_7
REMARK    6  A    between atoms: C_5  and  N_13
REMARK    7  A    between atoms: N_13  and  C_14
REMARK    8  A    between atoms: N_13  and  C_15
REMARK    9  A    between atoms: C_15  and  C_16
REMARK                            x       y       z     vdW  Elec       q    Type
REMARK                         _______ _______ _______ _____ _____    ______ ____
ROOT
ATOM      1  C   UNL     1      -1.311  -2.026  -0.091  0.00  0.00    +0.079 C 
ENDROOT
BRANCH   1   2
ATOM      2  C   UNL     1      -2.678  -2.658  -0.148  0.00  0.00    +0.006 A 
ATOM      3  C   UNL     1      -3.406  -3.209   0.854  0.00  0.00    +0.028 A 
ATOM      4  C   UNL     1      -4.652  -3.736   0.566  0.00  0.00    +0.025 A 
ATOM      5  C   UNL     1      -5.107  -3.686  -0.711  0.00  0.00    +0.060 A 
ATOM      6  S   UNL     1      -3.761  -2.868  -1.552  0.00  0.00    -0.099 S 
ATOM      7 BR   UNL     1      -5.704  -4.515   1.930  0.00  0.00    -0.050 Br
ENDBRANCH   1   2
BRANCH   1   8
ATOM      8  N   UNL     1      -0.542  -2.412  -1.282  0.00  0.00    -0.295 NA
ATOM      9  C   UNL     1      -0.494  -3.873  -1.426  0.00  0.00    +0.105 C 
BRANCH   8  10
ATOM     10  C   UNL     1       0.811  -1.842  -1.242  0.00  0.00    +0.127 C 
BRANCH  10  11
ATOM     11  C   UNL     1       1.512  -2.124  -2.546  0.00  0.00    +0.005 A 
ATOM     12  C   UNL     1       1.545  -1.377  -3.676  0.00  0.00    +0.014 A 
ATOM     13  C   UNL     1       2.262  -1.838  -4.765  0.00  0.00    +0.028 A 
ATOM     14  C   UNL     1       2.912  -3.025  -4.668  0.00  0.00    +0.078 A 
ATOM     15  S   UNL     1       2.523  -3.524  -2.999  0.00  0.00    -0.080 S 
ATOM     16 CL   UNL     1       3.877  -3.843  -5.857  0.00  0.00    -0.076 Cl
ENDBRANCH  10  11
ENDBRANCH   8  10
ENDBRANCH   1   8
BRANCH   1  17
ATOM     17  C   UNL     1      -1.455  -0.503  -0.048  0.00  0.00    -0.053 C 
BRANCH  17  18
ATOM     18  N   UNL     1      -2.223  -0.051  -1.216  0.00  0.00    +0.381 N 
ATOM     19  H   UNL     1      -3.138  -0.475  -1.201  0.00  0.00    -0.090 HD
ATOM     20  H   UNL     1      -2.317   0.953  -1.187  0.00  0.00    -0.090 HD
ATOM     21  H   UNL     1      -1.740  -0.320  -2.060  0.00  0.00    -0.090 HD
ENDBRANCH  17  18
BRANCH  17  23
ATOM     22  C   UNL     1      -2.196   1.430   1.351  0.00  0.00    +0.002 C 
ATOM     23  C   UNL     1      -2.186  -0.096   1.233  0.00  0.00    -0.018 C 
ENDBRANCH  17  23
ENDBRANCH   1  17
TORSDOF 7
