REMARK  Name = ZINC40800869
REMARK  8 active torsions:
REMARK  status: ('A' for Active; 'I' for Inactive)
REMARK    1  A    between atoms: C_1  and  N_2
REMARK    2  A    between atoms: N_2  and  C_3
REMARK    3  A    between atoms: C_8  and  C_9
REMARK    4  A    between atoms: C_9  and  O_11
REMARK    5  A    between atoms: O_11  and  C_12
REMARK    6  A    between atoms: C_14  and  N_31
REMARK    7  A    between atoms: C_15  and  N_19
REMARK    8  A    between atoms: C_23  and  C_26
REMARK                            x       y       z     vdW  Elec       q    Type
REMARK                         _______ _______ _______ _____ _____    ______ ____
ROOT
ATOM      1  C   UNL     1       1.183   0.232   0.626  0.00  0.00    +0.137 C 
ATOM      2  N   UNL     1      -0.080  -0.248   0.059  0.00  0.00    -0.287 N 
ATOM      3  C   UNL     1      -0.077  -0.985  -1.120  0.00  0.00    +0.129 A 
ATOM      4  C   UNL     1      -0.023  -0.341  -2.358  0.00  0.00    +0.104 A 
ATOM      5  C   UNL     1      -0.022  -1.129  -3.511  0.00  0.00    +0.150 A 
ATOM      6  N   UNL     1      -0.072  -2.453  -3.387  0.00  0.00    -0.221 NA
ATOM      7  C   UNL     1      -0.122  -3.021  -2.199  0.00  0.00    +0.200 A 
ATOM      8  N   UNL     1      -0.119  -2.315  -1.086  0.00  0.00    -0.333 N 
ATOM      9  H   UNL     1      -0.153  -2.770  -0.231  0.00  0.00    +0.168 HD
ENDROOT
BRANCH   5  10
ATOM     10  N   UNL     1       0.030  -0.539  -4.769  0.00  0.00    -0.282 N 
ATOM     11  C   UNL     1       0.030  -1.334  -5.912  0.00  0.00    +0.142 A 
ATOM     12  C   UNL     1       0.088  -0.738  -7.168  0.00  0.00    +0.081 A 
ATOM     13  C   UNL     1       0.088  -1.541  -8.295  0.00  0.00    +0.037 A 
ATOM     14  C   UNL     1       0.030  -2.918  -8.127  0.00  0.00    +0.074 A 
ATOM     15  C   UNL     1      -0.026  -3.442  -6.851  0.00  0.00    +0.125 A 
ATOM     16  N   UNL     1      -0.019  -2.652  -5.793  0.00  0.00    -0.238 NA
ATOM     17 CL   UNL     1       0.158   0.990  -7.319  0.00  0.00    -0.080 Cl
ATOM     18  H   UNL     1       0.065   0.427  -4.851  0.00  0.00    +0.155 HD
BRANCH  14  19
ATOM     19  C   UNL     1       0.027  -3.832  -9.325  0.00  0.00    +0.419 C 
ATOM     20  F   UNL     1       1.343  -4.166  -9.660  0.00  0.00    -0.166 F 
ATOM     21  F   UNL     1      -0.687  -4.997  -9.022  0.00  0.00    -0.166 F 
ATOM     22  F   UNL     1      -0.579  -3.182 -10.405  0.00  0.00    -0.166 F 
ENDBRANCH  14  19
ENDBRANCH   5  10
BRANCH   2  23
ATOM     23  C   UNL     1      -1.281   0.033   0.700  0.00  0.00    +0.049 A 
ATOM     24  C   UNL     1      -2.073   1.089   0.268  0.00  0.00    +0.024 A 
ATOM     25  C   UNL     1      -3.264   1.366   0.905  0.00  0.00    +0.002 A 
ATOM     26  C   UNL     1      -3.681   0.595   1.980  0.00  0.00    +0.001 A 
ATOM     27  C   UNL     1      -2.910  -0.456   2.423  0.00  0.00    +0.017 A 
ATOM     28  C   UNL     1      -1.703  -0.753   1.784  0.00  0.00    +0.080 A 
BRANCH  28  29
ATOM     29  C   UNL     1      -0.875  -1.880   2.250  0.00  0.00    +0.341 C 
ATOM     30  O   UNL     1       0.164  -2.147   1.679  0.00  0.00    -0.245 OA
BRANCH  29  31
ATOM     31  O   UNL     1      -1.271  -2.614   3.309  0.00  0.00    -0.464 OA
ATOM     32  C   UNL     1      -0.420  -3.691   3.705  0.00  0.00    +0.280 C 
ENDBRANCH  29  31
ENDBRANCH  28  29
ENDBRANCH   2  23
BRANCH   4  33
ATOM     33  N   UNL     1       0.028   1.059  -2.441  0.00  0.00    -0.353 N 
ATOM     34  H   UNL     1       0.104   1.590  -1.633  0.00  0.00    +0.143 HD
ATOM     35  H   UNL     1      -0.014   1.495  -3.307  0.00  0.00    +0.143 HD
ENDBRANCH   4  33
TORSDOF 6
