REMARK  Name = ZINC01109273
REMARK  5 active torsions:
REMARK  status: ('A' for Active; 'I' for Inactive)
REMARK    1  A    between atoms: C_1  and  C_2
REMARK    2  A    between atoms: C_6  and  N_8
REMARK    3  A    between atoms: N_18  and  C_21
REMARK    4  A    between atoms: C_24  and  O_27
REMARK    5  A    between atoms: O_27  and  C_28
REMARK                            x       y       z     vdW  Elec       q    Type
REMARK                         _______ _______ _______ _____ _____    ______ ____
ROOT
ATOM      1  N   UNL     1       1.113   1.984   0.002  0.00  0.00    -0.249 N 
ATOM      2  C   UNL     1       0.670   3.314   0.355  0.00  0.00    +0.126 C 
ATOM      3  C   UNL     1       1.344   4.571  -0.191  0.00  0.00    +0.190 C 
ATOM      4  S   UNL     1      -0.055   5.767   0.050  0.00  0.00    -0.027 S 
ATOM      5  O   UNL     1       0.062   6.366   1.332  0.00  0.00    -0.174 OA
ATOM      6  O   UNL     1      -0.164   6.591  -1.102  0.00  0.00    -0.174 OA
ATOM      7  C   UNL     1      -1.465   4.564   0.070  0.00  0.00    +0.190 C 
ATOM      8  C   UNL     1      -0.748   3.289  -0.294  0.00  0.00    +0.126 C 
ATOM      9  N   UNL     1      -1.164   1.954   0.018  0.00  0.00    -0.249 N 
ATOM     10  C   UNL     1      -0.014   1.212   0.009  0.00  0.00    +0.314 C 
ATOM     11  O   UNL     1       0.002  -0.004   0.002  0.00  0.00    -0.252 OA
ENDROOT
BRANCH   1  17
ATOM     12  C   UNL     1       4.249  -1.591  -1.245  0.00  0.00    +0.044 C 
ATOM     13  C   UNL     1       3.969  -0.152  -0.893  0.00  0.00    -0.049 A 
ATOM     14  C   UNL     1       5.003   0.764  -0.854  0.00  0.00    +0.003 A 
ATOM     15  C   UNL     1       4.750   2.084  -0.531  0.00  0.00    +0.002 A 
ATOM     16  C   UNL     1       3.461   2.492  -0.247  0.00  0.00    +0.023 A 
ATOM     17  C   UNL     1       2.420   1.575  -0.285  0.00  0.00    +0.038 A 
ATOM     18  C   UNL     1       2.679   0.248  -0.604  0.00  0.00    +0.027 A 
ENDBRANCH   1  17
BRANCH   9  19
ATOM     19  C   UNL     1      -2.466   1.507   0.278  0.00  0.00    +0.038 A 
ATOM     20  C   UNL     1      -3.526   2.403   0.251  0.00  0.00    +0.027 A 
ATOM     21  C   UNL     1      -4.810   1.961   0.503  0.00  0.00    +0.047 A 
ATOM     22  C   UNL     1      -5.039   0.624   0.794  0.00  0.00    +0.120 A 
ATOM     23  C   UNL     1      -3.979  -0.271   0.826  0.00  0.00    +0.047 A 
ATOM     24  C   UNL     1      -2.696   0.169   0.569  0.00  0.00    +0.027 A 
BRANCH  22  25
ATOM     25  O   UNL     1      -6.303   0.190   1.047  0.00  0.00    -0.495 OA
ATOM     26  C   UNL     1      -7.346   1.166   0.996  0.00  0.00    +0.277 C 
ENDBRANCH  22  25
ENDBRANCH   9  19
TORSDOF 3
