REMARK  Name = ZINC45725374
REMARK  9 active torsions:
REMARK  status: ('A' for Active; 'I' for Inactive)
REMARK    1  A    between atoms: C_1  and  O_2
REMARK    2  A    between atoms: O_2  and  C_3
REMARK    3  A    between atoms: C_8  and  C_9
REMARK    4  A    between atoms: C_9  and  C_11
REMARK    5  A    between atoms: C_9  and  N_26
REMARK    6  A    between atoms: C_11  and  N_12
REMARK    7  A    between atoms: N_15  and  C_16
REMARK    8  A    between atoms: C_21  and  C_22
REMARK    9  A    between atoms: C_22  and  C_23
REMARK                            x       y       z     vdW  Elec       q    Type
REMARK                         _______ _______ _______ _____ _____    ______ ____
ROOT
ATOM      1  N   UNL     1      -0.490  -3.655   2.213  0.00  0.00    -0.300 N 
ATOM      2  C   UNL     1      -0.327  -3.771   3.546  0.00  0.00    +0.304 C 
ATOM      3  O   UNL     1       0.662  -3.306   4.080  0.00  0.00    -0.253 OA
ATOM      4  N   UNL     1      -1.260  -4.401   4.287  0.00  0.00    -0.269 N 
ATOM      5  H   UNL     1      -1.279  -4.026   1.787  0.00  0.00    +0.150 HD
ATOM      6  H   UNL     1      -2.085  -4.702   3.875  0.00  0.00    +0.156 HD
ENDROOT
BRANCH   4   7
ATOM      7  C   UNL     1      -1.038  -4.622   5.651  0.00  0.00    +0.038 A 
ATOM      8  C   UNL     1       0.259  -4.674   6.146  0.00  0.00    +0.023 A 
ATOM      9  C   UNL     1       0.474  -4.892   7.492  0.00  0.00    +0.002 A 
ATOM     10  C   UNL     1      -0.599  -5.058   8.348  0.00  0.00    +0.000 A 
ATOM     11  C   UNL     1      -1.891  -5.007   7.859  0.00  0.00    +0.006 A 
ATOM     12  C   UNL     1      -2.114  -4.783   6.514  0.00  0.00    -0.017 A 
BRANCH  12  13
ATOM     13  C   UNL     1      -3.523  -4.722   5.982  0.00  0.00    +0.132 C 
BRANCH  13  14
ATOM     14  C   UNL     1      -3.923  -6.078   5.461  0.00  0.00    +0.215 C 
ATOM     15  O   UNL     1      -3.141  -7.004   5.516  0.00  0.00    -0.276 OA
ATOM     16  N   UNL     1      -5.149  -6.263   4.934  0.00  0.00    -0.329 N 
ATOM     17  H   UNL     1      -5.775  -5.522   4.890  0.00  0.00    +0.145 HD
ATOM     18  H   UNL     1      -5.407  -7.136   4.599  0.00  0.00    +0.145 HD
ENDBRANCH  13  14
ENDBRANCH  12  13
ENDBRANCH   4   7
BRANCH   1  19
ATOM     19  C   UNL     1       0.523  -2.970   1.408  0.00  0.00    +0.095 C 
BRANCH  19  20
ATOM     20  C   UNL     1       0.040  -2.867  -0.040  0.00  0.00    -0.017 C 
BRANCH  20  26
ATOM     21  C   UNL     1      -1.058  -0.618  -0.186  0.00  0.00    +0.122 A 
ATOM     22  C   UNL     1      -2.191   0.181  -0.246  0.00  0.00    +0.046 A 
ATOM     23  C   UNL     1      -3.445  -0.397  -0.214  0.00  0.00    +0.004 A 
ATOM     24  C   UNL     1      -3.572  -1.771  -0.123  0.00  0.00    +0.000 A 
ATOM     25  C   UNL     1      -2.445  -2.569  -0.063  0.00  0.00    +0.005 A 
ATOM     26  C   UNL     1      -1.188  -1.996  -0.100  0.00  0.00    -0.018 A 
BRANCH  21  28
ATOM     27  C   UNL     1       0.235   1.374  -0.306  0.00  0.00    +0.277 C 
ATOM     28  O   UNL     1       0.177  -0.051  -0.217  0.00  0.00    -0.495 OA
ENDBRANCH  21  28
ENDBRANCH  20  26
BRANCH  20  29
ATOM     29  N   UNL     1      -0.285  -4.208  -0.544  0.00  0.00    +0.385 N 
ATOM     30  C   UNL     1      -0.574  -4.152  -2.000  0.00  0.00    -0.078 C 
ATOM     31  C   UNL     1      -0.335  -5.610  -2.465  0.00  0.00    -0.020 C 
ATOM     32  C   UNL     1       0.880  -6.049  -1.615  0.00  0.00    -0.020 C 
ATOM     33  C   UNL     1       0.882  -5.105  -0.399  0.00  0.00    -0.078 C 
ATOM     34  H   UNL     1      -1.078  -4.584  -0.045  0.00  0.00    -0.081 HD
ENDBRANCH  20  29
ENDBRANCH  19  20
ENDBRANCH   1  19
TORSDOF 8
