REMARK  Name = ZINC35592180
REMARK  6 active torsions:
REMARK  status: ('A' for Active; 'I' for Inactive)
REMARK    1  A    between atoms: C_1  and  C_2
REMARK    2  A    between atoms: C_6  and  N_9
REMARK    3  A    between atoms: C_7  and  C_8
REMARK    4  A    between atoms: N_18  and  C_21
REMARK    5  A    between atoms: C_21  and  C_23
REMARK    6  A    between atoms: C_21  and  C_24
REMARK                            x       y       z     vdW  Elec       q    Type
REMARK                         _______ _______ _______ _____ _____    ______ ____
ROOT
ATOM      1  N   UNL     1       0.051  -2.924   2.329  0.00  0.00    -0.228 N 
ATOM      2  C   UNL     1      -1.118  -3.167   2.962  0.00  0.00    +0.269 A 
ATOM      3  O   UNL     1      -2.180  -2.887   2.440  0.00  0.00    -0.266 OA
ATOM      4  C   UNL     1      -1.072  -3.779   4.301  0.00  0.00    +0.064 A 
ATOM      5  C   UNL     1      -2.233  -4.060   5.018  0.00  0.00    +0.015 A 
ATOM      6  C   UNL     1      -2.137  -4.635   6.268  0.00  0.00    +0.001 A 
ATOM      7  C   UNL     1      -0.896  -4.931   6.811  0.00  0.00    +0.002 A 
ATOM      8  C   UNL     1       0.262  -4.657   6.111  0.00  0.00    +0.027 A 
ATOM      9  C   UNL     1       0.185  -4.080   4.853  0.00  0.00    +0.059 A 
ATOM     10  N   UNL     1       1.324  -3.789   4.116  0.00  0.00    -0.281 N 
ATOM     11  C   UNL     1       1.227  -3.235   2.895  0.00  0.00    +0.338 A 
ATOM     12  O   UNL     1       2.249  -3.000   2.280  0.00  0.00    -0.246 OA
ENDROOT
BRANCH   1  18
ATOM     13  C   UNL     1       0.099   1.109  -0.485  0.00  0.00    +0.044 C 
ATOM     14  C   UNL     1       0.056  -0.391  -0.338  0.00  0.00    -0.046 A 
ATOM     15  C   UNL     1      -0.001  -1.194  -1.463  0.00  0.00    +0.004 A 
ATOM     16  C   UNL     1      -0.040  -2.570  -1.332  0.00  0.00    +0.002 A 
ATOM     17  C   UNL     1      -0.023  -3.146  -0.076  0.00  0.00    +0.027 A 
ATOM     18  C   UNL     1       0.034  -2.342   1.054  0.00  0.00    +0.058 A 
ATOM     19  C   UNL     1       0.078  -0.961   0.919  0.00  0.00    -0.023 A 
ATOM     20  C   UNL     1       0.146  -0.085   2.144  0.00  0.00    +0.046 C 
ENDBRANCH   1  18
BRANCH  10  21
ATOM     21  C   UNL     1       2.645  -4.094   4.671  0.00  0.00    +0.174 C 
ATOM     22  C   UNL     1       3.386  -5.046   3.731  0.00  0.00    +0.041 C 
BRANCH  21  23
ATOM     23  C   UNL     1       3.434  -2.819   4.820  0.00  0.00    +0.233 C 
ATOM     24  O   UNL     1       2.942  -1.759   4.494  0.00  0.00    -0.274 OA
ATOM     25  N   UNL     1       4.688  -2.855   5.315  0.00  0.00    -0.328 N 
ATOM     26  H   UNL     1       5.081  -3.703   5.575  0.00  0.00    +0.145 HD
ATOM     27  H   UNL     1       5.196  -2.035   5.410  0.00  0.00    +0.145 HD
ENDBRANCH  21  23
ENDBRANCH  10  21
TORSDOF 3
