REMARK  Name = ZINC50251626
REMARK  6 active torsions:
REMARK  status: ('A' for Active; 'I' for Inactive)
REMARK    1  A    between atoms: C_1  and  C_2
REMARK    2  A    between atoms: C_2  and  C_3
REMARK    3  A    between atoms: C_2  and  C_10
REMARK    4  A    between atoms: C_2  and  N_13
REMARK    5  A    between atoms: C_16  and  C_19
REMARK    6  A    between atoms: C_19  and  N_20
REMARK                            x       y       z     vdW  Elec       q    Type
REMARK                         _______ _______ _______ _____ _____    ______ ____
ROOT
ATOM      1  C   UNL     1       0.588  -0.519  -1.315  0.00  0.00    +0.007 C 
ATOM      2  C   UNL     1       0.002  -0.004   0.002  0.00  0.00    +0.062 C 
ENDROOT
BRANCH   2   3
ATOM      3  C   UNL     1       0.085   1.500   0.035  0.00  0.00    -0.033 A 
ATOM      4  C   UNL     1       0.542   2.192  -1.072  0.00  0.00    +0.004 A 
ATOM      5  C   UNL     1       0.618   3.571  -1.042  0.00  0.00    +0.000 A 
ATOM      6  C   UNL     1       0.237   4.261   0.094  0.00  0.00    +0.001 A 
ATOM      7  C   UNL     1      -0.220   3.571   1.200  0.00  0.00    +0.015 A 
ATOM      8  C   UNL     1      -0.301   2.190   1.169  0.00  0.00    +0.020 A 
ATOM      9 BR   UNL     1      -0.933   1.245   2.681  0.00  0.00    -0.050 Br
ENDBRANCH   2   3
BRANCH   2  10
ATOM     10  N   UNL     1      -1.403  -0.419   0.109  0.00  0.00    +0.393 N 
ATOM     11  C   UNL     1      -1.540  -1.869  -0.185  0.00  0.00    -0.077 C 
ATOM     12  C   UNL     1      -3.019  -2.045  -0.591  0.00  0.00    -0.019 C 
ATOM     13  C   UNL     1      -3.468  -0.655  -1.086  0.00  0.00    -0.047 C 
ATOM     14  C   UNL     1      -2.222   0.245  -0.938  0.00  0.00    -0.075 C 
ATOM     15  H   UNL     1      -1.765  -0.208   1.026  0.00  0.00    -0.080 HD
BRANCH  13  16
ATOM     16  C   UNL     1      -3.902  -0.727  -2.551  0.00  0.00    -0.085 C 
BRANCH  16  17
ATOM     17  N   UNL     1      -5.118  -1.545  -2.662  0.00  0.00    +0.378 N 
ATOM     18  H   UNL     1      -4.929  -2.476  -2.321  0.00  0.00    -0.090 HD
ATOM     19  H   UNL     1      -5.854  -1.129  -2.112  0.00  0.00    -0.090 HD
ATOM     20  H   UNL     1      -5.404  -1.593  -3.628  0.00  0.00    -0.090 HD
ENDBRANCH  16  17
ENDBRANCH  13  16
ENDBRANCH   2  10
BRANCH   2  21
ATOM     21  C   UNL     1       0.784  -0.576   1.157  0.00  0.00    +0.350 C 
ATOM     22  O   UNL     1       1.952  -0.266   1.315  0.00  0.00    -0.248 OA
ATOM     23  O   UNL     1       0.247  -1.348   1.933  0.00  0.00    -0.248 OA
ENDBRANCH   2  21
TORSDOF 5
