REMARK  Name = ZINC26893794
REMARK  6 active torsions:
REMARK  status: ('A' for Active; 'I' for Inactive)
REMARK    1  A    between atoms: C_1  and  C_2
REMARK    2  A    between atoms: C_2  and  O_3
REMARK    3  A    between atoms: O_3  and  C_4
REMARK    4  A    between atoms: C_4  and  C_6
REMARK    5  A    between atoms: C_10  and  N_11
REMARK    6  A    between atoms: C_13  and  C_17
REMARK                            x       y       z     vdW  Elec       q    Type
REMARK                         _______ _______ _______ _____ _____    ______ ____
ROOT
ATOM      1  C   UNL     1       0.002  -0.004   0.002  0.00  0.00    +0.088 A 
ATOM      2  C   UNL     1      -0.018   1.449   0.010  0.00  0.00    -0.038 A 
ATOM      3  C   UNL     1       1.197   2.041   0.002  0.00  0.00    -0.008 A 
ATOM      4  S   UNL     1       2.355   0.705  -0.015  0.00  0.00    -0.078 S 
ATOM      5  C   UNL     1       1.246  -0.627  -0.012  0.00  0.00    +0.077 A 
ATOM      6  C   UNL     1       1.462   3.515   0.005  0.00  0.00    +0.027 C 
ATOM      7  C   UNL     1       0.146   4.229  -0.342  0.00  0.00    -0.070 C 
ATOM      8  N   UNL     1      -0.936   3.652   0.468  0.00  0.00    +0.384 N 
ATOM      9  C   UNL     1      -1.285   2.294   0.033  0.00  0.00    -0.045 C 
ATOM     10  C   UNL     1       0.276   5.722  -0.034  0.00  0.00    -0.013 C 
ATOM     11  H   UNL     1      -0.622   3.605   1.520  0.00  0.00    -0.085 HD
ATOM     12  H   UNL     1      -1.835   4.281   0.381  0.00  0.00    -0.085 HD
ENDROOT
BRANCH   5  13
ATOM     13  N   UNL     1       1.528  -1.979  -0.021  0.00  0.00    -0.352 N 
ATOM     14  H   UNL     1       2.573  -2.323  -0.032  0.00  0.00    +0.143 HD
ATOM     15  H   UNL     1       0.708  -2.712  -0.018  0.00  0.00    +0.143 HD
ENDBRANCH   5  13
BRANCH   1  16
ATOM     16  C   UNL     1      -1.237  -0.781   0.009  0.00  0.00    +0.342 C 
ATOM     17  O   UNL     1      -1.762  -1.098  -1.042  0.00  0.00    -0.245 OA
BRANCH  16  18
ATOM     18  O   UNL     1      -1.798  -1.145   1.181  0.00  0.00    -0.461 OA
BRANCH  18  20
ATOM     19  C   UNL     1      -3.490  -2.221   2.530  0.00  0.00    +0.048 C 
ATOM     20  C   UNL     1      -3.008  -1.903   1.113  0.00  0.00    +0.229 C 
ENDBRANCH  18  20
ENDBRANCH  16  18
ENDBRANCH   1  16
TORSDOF 4
