REMARK  Name = ZINC39724540
REMARK  7 active torsions:
REMARK  status: ('A' for Active; 'I' for Inactive)
REMARK    1  A    between atoms: C_1  and  C_2
REMARK    2  A    between atoms: C_2  and  O_3
REMARK    3  A    between atoms: O_3  and  C_4
REMARK    4  A    between atoms: C_4  and  C_6
REMARK    5  A    between atoms: C_7  and  C_27
REMARK    6  A    between atoms: C_12  and  C_14
REMARK    7  A    between atoms: C_21  and  C_26
REMARK                            x       y       z     vdW  Elec       q    Type
REMARK                         _______ _______ _______ _____ _____    ______ ____
ROOT
ATOM      1  C   UNL     1       1.829  -2.080   2.110  0.00  0.00    +0.074 C 
ATOM      2  C   UNL     1       1.712  -3.425   2.073  0.00  0.00    +0.021 C 
ATOM      3  N   UNL     1       2.178  -4.202   3.095  0.00  0.00    -0.273 N 
ATOM      4  C   UNL     1       2.773  -3.710   4.189  0.00  0.00    +0.304 C 
ATOM      5  O   UNL     1       3.156  -4.482   5.047  0.00  0.00    -0.253 OA
ATOM      6  N   UNL     1       2.963  -2.388   4.370  0.00  0.00    -0.291 N 
ATOM      7  C   UNL     1       2.500  -1.464   3.321  0.00  0.00    +0.129 C 
ATOM      8  C   UNL     1       1.055  -4.080   0.885  0.00  0.00    +0.061 C 
ATOM      9  H   UNL     1       2.071  -5.163   3.025  0.00  0.00    +0.156 HD
ATOM     10  H   UNL     1       3.396  -2.054   5.170  0.00  0.00    +0.151 HD
ENDROOT
BRANCH   7  11
ATOM     11  C   UNL     1       3.705  -0.657   2.832  0.00  0.00    +0.123 C 
ATOM     12  C   UNL     1       4.623  -1.601   2.080  0.00  0.00    -0.003 C 
ATOM     13  C   UNL     1       5.904  -1.718   2.531  0.00  0.00    -0.007 A 
ATOM     14  C   UNL     1       6.856  -2.606   1.864  0.00  0.00    +0.009 A 
ATOM     15  C   UNL     1       8.122  -2.692   2.349  0.00  0.00    +0.001 A 
ATOM     16  C   UNL     1       8.525  -1.953   3.461  0.00  0.00    +0.005 A 
ATOM     17  C   UNL     1       7.690  -1.112   4.125  0.00  0.00    -0.029 A 
ATOM     18  C   UNL     1       6.357  -0.950   3.703  0.00  0.00    +0.043 A 
ATOM     19  N   UNL     1       5.547  -0.120   4.361  0.00  0.00    -0.284 N 
ATOM     20  C   UNL     1       4.285   0.076   4.020  0.00  0.00    +0.226 C 
ATOM     21  O   UNL     1       3.594   0.846   4.660  0.00  0.00    -0.275 OA
ATOM     22  C   UNL     1       8.195  -0.346   5.320  0.00  0.00    +0.045 C 
ATOM     23  H   UNL     1       5.900   0.360   5.126  0.00  0.00    +0.155 HD
ENDBRANCH   7  11
BRANCH   1  24
ATOM     24  C   UNL     1       1.347  -1.275   1.052  0.00  0.00    +0.338 C 
ATOM     25  O   UNL     1       0.929  -1.794   0.034  0.00  0.00    -0.245 OA
BRANCH  24  26
ATOM     26  O   UNL     1       1.350   0.069   1.172  0.00  0.00    -0.462 OA
BRANCH  26  28
ATOM     27  C   UNL     1       0.948   2.313   0.368  0.00  0.00    +0.048 C 
ATOM     28  C   UNL     1       0.763   0.817   0.105  0.00  0.00    +0.229 C 
ENDBRANCH  26  28
ENDBRANCH  24  26
ENDBRANCH   1  24
TORSDOF 4
