REMARK  Name = ZINC38612838
REMARK  8 active torsions:
REMARK  status: ('A' for Active; 'I' for Inactive)
REMARK    1  A    between atoms: C_4  and  C_7
REMARK    2  A    between atoms: C_7  and  C_8
REMARK    3  A    between atoms: C_8  and  O_9
REMARK    4  A    between atoms: O_9  and  C_10
REMARK    5  A    between atoms: C_13  and  C_16
REMARK    6  A    between atoms: C_19  and  C_23
REMARK    7  A    between atoms: N_25  and  N_26
REMARK    8  A    between atoms: C_27  and  C_28
REMARK                            x       y       z     vdW  Elec       q    Type
REMARK                         _______ _______ _______ _____ _____    ______ ____
ROOT
ATOM      1  C   UNL     1       7.702  -2.935   6.371  0.00  0.00    +0.131 C 
ATOM      2  C   UNL     1       7.467  -4.428   6.711  0.00  0.00    +0.069 C 
ATOM      3  C   UNL     1       8.828  -4.774   7.366  0.00  0.00    +0.215 C 
ATOM      4  N   UNL     1       9.748  -3.762   6.830  0.00  0.00    -0.203 NA
ATOM      5  N   UNL     1       9.165  -2.805   6.316  0.00  0.00    -0.305 N 
ATOM      6  H   UNL     1       9.621  -2.048   5.916  0.00  0.00    +0.183 HD
ENDROOT
BRANCH   1  10
ATOM      7  C   UNL     1       5.970  -1.968   2.586  0.00  0.00    +0.121 A 
ATOM      8  C   UNL     1       5.321  -1.611   3.759  0.00  0.00    +0.046 A 
ATOM      9  C   UNL     1       5.883  -1.925   4.981  0.00  0.00    +0.009 A 
ATOM     10  C   UNL     1       7.091  -2.594   5.036  0.00  0.00    -0.023 A 
ATOM     11  C   UNL     1       7.740  -2.951   3.869  0.00  0.00    +0.009 A 
ATOM     12  C   UNL     1       7.179  -2.645   2.644  0.00  0.00    +0.046 A 
BRANCH   7  13
ATOM     13  O   UNL     1       5.418  -1.661   1.382  0.00  0.00    -0.492 OA
BRANCH  13  14
ATOM     14  C   UNL     1       4.171  -0.963   1.399  0.00  0.00    +0.233 C 
BRANCH  14  15
ATOM     15  C   UNL     1       3.711  -0.707  -0.038  0.00  0.00    +0.076 C 
BRANCH  15  19
ATOM     16  C   UNL     1      -0.017   1.378   0.010  0.00  0.00    +0.000 A 
ATOM     17  C   UNL     1       1.171   2.086   0.002  0.00  0.00    +0.000 A 
ATOM     18  C   UNL     1       2.377   1.411  -0.013  0.00  0.00    +0.004 A 
ATOM     19  C   UNL     1       2.396   0.029  -0.020  0.00  0.00    -0.044 A 
ATOM     20  C   UNL     1       1.208  -0.679  -0.012  0.00  0.00    +0.004 A 
ATOM     21  C   UNL     1       0.002  -0.004   0.002  0.00  0.00    +0.000 A 
ENDBRANCH  15  19
ENDBRANCH  14  15
ENDBRANCH  13  14
ENDBRANCH   7  13
ENDBRANCH   1  10
BRANCH   3  22
ATOM     22  C   UNL     1       8.734  -4.667   8.866  0.00  0.00    +0.259 C 
ATOM     23  O   UNL     1       9.150  -3.677   9.430  0.00  0.00    -0.272 OA
ATOM     24  N   UNL     1       8.187  -5.670   9.581  0.00  0.00    -0.205 N 
ATOM     25  H   UNL     1       7.854  -6.461   9.129  0.00  0.00    +0.177 HD
BRANCH  24  26
ATOM     26  N   UNL     1       8.100  -5.570  10.975  0.00  0.00    -0.188 NA
ATOM     27  C   UNL     1       7.569  -6.545  11.669  0.00  0.00    +0.136 C 
BRANCH  27  28
ATOM     28  C   UNL     1       7.482  -6.445  13.065  0.00  0.00    +0.000 C 
ATOM     29  C   UNL     1       6.955  -7.387  13.946  0.00  0.00    +0.004 A 
ATOM     30  C   UNL     1       6.375  -8.660  13.747  0.00  0.00    +0.010 A 
ATOM     31  C   UNL     1       5.937  -9.373  14.815  0.00  0.00    +0.001 A 
ATOM     32  C   UNL     1       6.043  -8.881  16.119  0.00  0.00    +0.002 A 
ATOM     33  C   UNL     1       6.588  -7.669  16.384  0.00  0.00    +0.026 A 
ATOM     34  C   UNL     1       7.069  -6.863  15.318  0.00  0.00    +0.043 A 
ATOM     35  N   UNL     1       7.630  -5.672  15.311  0.00  0.00    -0.380 N 
ATOM     36  C   UNL     1       7.947  -5.295  13.931  0.00  0.00    +0.150 C 
ATOM     37  H   UNL     1       7.808  -5.131  16.096  0.00  0.00    +0.160 HD
ENDBRANCH  27  28
ENDBRANCH  24  26
ENDBRANCH   3  22
TORSDOF 8
