REMARK  Name = ZINC32070622
REMARK  6 active torsions:
REMARK  status: ('A' for Active; 'I' for Inactive)
REMARK    1  A    between atoms: C_1  and  C_2
REMARK    2  A    between atoms: N_5  and  C_8
REMARK    3  A    between atoms: C_8  and  C_10
REMARK    4  A    between atoms: C_8  and  C_12
REMARK    5  A    between atoms: C_10  and  N_11
REMARK    6  A    between atoms: C_15  and  O_19
REMARK                            x       y       z     vdW  Elec       q    Type
REMARK                         _______ _______ _______ _____ _____    ______ ____
ROOT
ATOM      1  C   UNL     1      -0.760  -3.960   1.435  0.00  0.00    +0.069 C 
ENDROOT
BRANCH   1   6
ATOM      2  C   UNL     1       1.876   1.112   1.462  0.00  0.00    +0.007 C 
ATOM      3  C   UNL     1       1.450  -0.315   1.108  0.00  0.00    -0.012 C 
ATOM      4  C   UNL     1      -0.037  -0.330   0.744  0.00  0.00    +0.018 C 
ATOM      5  C   UNL     1      -0.471  -1.767   0.450  0.00  0.00    +0.085 C 
ATOM      6  N   UNL     1      -0.229  -2.604   1.632  0.00  0.00    -0.297 NA
ATOM      7  C   UNL     1       1.199  -2.644   1.972  0.00  0.00    +0.085 C 
ATOM      8  C   UNL     1       1.683  -1.232   2.312  0.00  0.00    +0.018 C 
ENDBRANCH   1   6
BRANCH   1   9
ATOM      9  C   UNL     1      -0.032  -4.624   0.295  0.00  0.00    -0.031 A 
ATOM     10  C   UNL     1       1.287  -5.010   0.451  0.00  0.00    +0.009 A 
ATOM     11  C   UNL     1       1.958  -5.619  -0.592  0.00  0.00    +0.047 A 
ATOM     12  C   UNL     1       1.307  -5.844  -1.796  0.00  0.00    +0.131 A 
ATOM     13  C   UNL     1      -0.017  -5.457  -1.950  0.00  0.00    +0.060 A 
ATOM     14  C   UNL     1      -0.685  -4.853  -0.902  0.00  0.00    +0.024 A 
ATOM     15 BR   UNL     1      -0.908  -5.762  -3.590  0.00  0.00    -0.047 Br
BRANCH  12  16
ATOM     16  O   UNL     1       1.965  -6.443  -2.824  0.00  0.00    -0.506 OA
ATOM     17  H   UNL     1       1.891  -7.407  -2.830  0.00  0.00    +0.292 HD
ENDBRANCH  12  16
ENDBRANCH   1   9
BRANCH   1  18
ATOM     18  C   UNL     1      -0.561  -4.777   2.713  0.00  0.00    -0.063 C 
BRANCH  18  19
ATOM     19  N   UNL     1      -1.170  -4.068   3.847  0.00  0.00    +0.379 N 
ATOM     20  H   UNL     1      -1.038  -4.607   4.690  0.00  0.00    -0.090 HD
ATOM     21  H   UNL     1      -0.732  -3.165   3.953  0.00  0.00    -0.090 HD
ATOM     22  H   UNL     1      -2.157  -3.946   3.676  0.00  0.00    -0.090 HD
ENDBRANCH  18  19
ENDBRANCH   1  18
TORSDOF 5
