REMARK  Name = ZINC38740770
REMARK  3 active torsions:
REMARK  status: ('A' for Active; 'I' for Inactive)
REMARK    1  A    between atoms: C_13  and  C_15
REMARK    2  A    between atoms: C_21  and  C_23
REMARK    3  A    between atoms: N_28  and  C_31
REMARK                            x       y       z     vdW  Elec       q    Type
REMARK                         _______ _______ _______ _____ _____    ______ ____
ROOT
ATOM      1  C   UNL     1       0.169  -6.647   1.136  0.00  0.00    +0.091 C 
ATOM      2  C   UNL     1      -0.686  -6.217   2.330  0.00  0.00    +0.040 C 
ATOM      3  C   UNL     1      -1.831  -7.169   2.515  0.00  0.00    -0.030 C 
ATOM      4  C   UNL     1      -1.883  -8.351   1.990  0.00  0.00    -0.030 C 
ATOM      5  C   UNL     1      -0.811  -8.931   1.116  0.00  0.00    +0.040 C 
ATOM      6  C   UNL     1       0.489  -8.141   1.275  0.00  0.00    +0.091 C 
ENDROOT
BRANCH   1  19
ATOM      7  C   UNL     1       2.492   1.088  -1.356  0.00  0.00    +0.005 A 
ATOM      8  C   UNL     1       1.258   1.674  -1.606  0.00  0.00    +0.018 A 
ATOM      9  C   UNL     1       0.121   0.893  -1.576  0.00  0.00    +0.084 A 
ATOM     10  N   UNL     1       0.193  -0.398  -1.314  0.00  0.00    -0.350 N 
ATOM     11  C   UNL     1       1.350  -0.993  -1.070  0.00  0.00    +0.099 A 
ATOM     12  C   UNL     1       2.537  -0.267  -1.084  0.00  0.00    +0.042 A 
ATOM     13  N   UNL     1       1.379  -2.356  -0.798  0.00  0.00    -0.314 N 
ATOM     14  C   UNL     1       2.660  -3.061  -0.647  0.00  0.00    +0.125 C 
ATOM     15  C   UNL     1       2.671  -3.771   0.713  0.00  0.00    +0.126 C 
ATOM     16  N   UNL     1       1.422  -4.533   0.855  0.00  0.00    -0.298 N 
ATOM     17  C   UNL     1       0.141  -3.828   0.704  0.00  0.00    +0.126 C 
ATOM     18  C   UNL     1       0.130  -3.117  -0.650  0.00  0.00    +0.125 C 
ATOM     19  C   UNL     1       1.451  -5.854   1.119  0.00  0.00    +0.220 C 
ATOM     20  O   UNL     1       2.508  -6.405   1.343  0.00  0.00    -0.275 OA
ATOM     21  H   UNL     1      -0.622  -0.924  -1.299  0.00  0.00    +0.166 HD
ENDBRANCH   1  19
BRANCH   6  22
ATOM     22  C   UNL     1       1.470  -8.550   0.207  0.00  0.00    +0.220 C 
ATOM     23  O   UNL     1       1.423  -8.034  -0.890  0.00  0.00    -0.275 OA
ATOM     24  N   UNL     1       2.399  -9.491   0.469  0.00  0.00    -0.298 N 
ATOM     25  C   UNL     1       2.392 -10.212   1.750  0.00  0.00    +0.126 C 
ATOM     26  C   UNL     1       2.344 -11.718   1.465  0.00  0.00    +0.124 C 
ATOM     27  N   UNL     1       3.382 -12.041   0.475  0.00  0.00    -0.325 N 
ATOM     28  C   UNL     1       3.389 -11.321  -0.805  0.00  0.00    +0.124 C 
ATOM     29  C   UNL     1       3.433  -9.819  -0.522  0.00  0.00    +0.126 C 
BRANCH  27  30
ATOM     30  C   UNL     1       4.342 -13.014   0.747  0.00  0.00    +0.070 A 
ATOM     31  C   UNL     1       5.546 -12.677   1.367  0.00  0.00    +0.081 A 
ATOM     32  C   UNL     1       6.471 -13.671   1.619  0.00  0.00    +0.132 A 
ATOM     33  N   UNL     1       6.227 -14.923   1.281  0.00  0.00    -0.260 NA
ATOM     34  C   UNL     1       5.101 -15.282   0.694  0.00  0.00    +0.132 A 
ATOM     35  C   UNL     1       4.122 -14.350   0.412  0.00  0.00    +0.081 A 
ATOM     36 CL   UNL     1       2.641 -14.834  -0.354  0.00  0.00    -0.080 Cl
ATOM     37 CL   UNL     1       5.877 -11.033   1.813  0.00  0.00    -0.080 Cl
ENDBRANCH  27  30
ENDBRANCH   6  22
TORSDOF 3
