REMARK  Name = ZINC09570863
REMARK  9 active torsions:
REMARK  status: ('A' for Active; 'I' for Inactive)
REMARK    1  A    between atoms: C_1  and  C_2
REMARK    2  A    between atoms: C_6  and  N_9
REMARK    3  A    between atoms: C_7  and  C_8
REMARK    4  A    between atoms: C_10  and  C_12
REMARK    5  A    between atoms: C_12  and  S_13
REMARK    6  A    between atoms: S_13  and  C_14
REMARK    7  A    between atoms: C_17  and  C_26
REMARK    8  A    between atoms: N_18  and  C_19
REMARK    9  A    between atoms: C_26  and  C_27
REMARK                            x       y       z     vdW  Elec       q    Type
REMARK                         _______ _______ _______ _____ _____    ______ ____
ROOT
ATOM      1  C   UNL     1       2.043   0.765   0.018  0.00  0.00    +0.197 A 
ATOM      2  N   UNL     1       1.185   1.759   0.038  0.00  0.00    -0.122 NA
ATOM      3  N   UNL     1      -0.016   1.300   0.057  0.00  0.00    -0.133 NA
ATOM      4  C   UNL     1       0.002  -0.003   0.050  0.00  0.00    +0.143 A 
ATOM      5  N   UNL     1       1.315  -0.393   0.025  0.00  0.00    -0.274 N 
ENDROOT
BRANCH   5   6
ATOM      6  C   UNL     1       1.809  -1.705   0.009  0.00  0.00    +0.050 A 
ATOM      7  C   UNL     1       1.603  -2.538   1.101  0.00  0.00    +0.028 A 
ATOM      8  C   UNL     1       2.087  -3.832   1.081  0.00  0.00    +0.022 A 
ATOM      9  C   UNL     1       2.786  -4.294  -0.020  0.00  0.00    +0.041 A 
ATOM     10  C   UNL     1       2.997  -3.464  -1.107  0.00  0.00    +0.022 A 
ATOM     11  C   UNL     1       2.510  -2.171  -1.095  0.00  0.00    +0.028 A 
ATOM     12 CL   UNL     1       3.398  -5.919  -0.039  0.00  0.00    -0.084 Cl
ENDBRANCH   5   6
BRANCH   1  13
ATOM     13  S   UNL     1       3.800   0.898  -0.013  0.00  0.00    -0.076 S 
BRANCH  13  14
ATOM     14  C   UNL     1       3.978   2.700  -0.006  0.00  0.00    +0.173 C 
BRANCH  14  16
ATOM     15  N   UNL     1       5.818   4.353  -0.031  0.00  0.00    -0.285 N 
ATOM     16  C   UNL     1       5.442   3.059  -0.031  0.00  0.00    +0.227 C 
ATOM     17  O   UNL     1       6.281   2.184  -0.051  0.00  0.00    -0.275 OA
ATOM     18  H   UNL     1       5.149   5.053  -0.096  0.00  0.00    +0.155 HD
BRANCH  15  24
ATOM     19  C   UNL     1       9.457   7.548  -0.880  0.00  0.00    +0.044 C 
ATOM     20  C   UNL     1       8.964   6.230  -0.340  0.00  0.00    -0.046 A 
ATOM     21  C   UNL     1       9.853   5.350   0.250  0.00  0.00    +0.004 A 
ATOM     22  C   UNL     1       9.405   4.140   0.747  0.00  0.00    +0.002 A 
ATOM     23  C   UNL     1       8.068   3.807   0.656  0.00  0.00    +0.023 A 
ATOM     24  C   UNL     1       7.173   4.688   0.064  0.00  0.00    +0.037 A 
ATOM     25  C   UNL     1       7.627   5.900  -0.440  0.00  0.00    -0.026 A 
ATOM     26  C   UNL     1       6.661   6.857  -1.089  0.00  0.00    +0.046 C 
ENDBRANCH  15  24
ENDBRANCH  14  16
ENDBRANCH  13  14
ENDBRANCH   1  13
BRANCH   4  27
ATOM     27  C   UNL     1      -1.200  -0.913   0.066  0.00  0.00    +0.111 C 
BRANCH  27  28
ATOM     28  C   UNL     1      -1.625  -1.208  -1.350  0.00  0.00    -0.040 A 
ATOM     29  C   UNL     1      -2.547  -0.392  -1.979  0.00  0.00    +0.004 A 
ATOM     30  C   UNL     1      -2.933  -0.660  -3.279  0.00  0.00    +0.000 A 
ATOM     31  C   UNL     1      -2.406  -1.750  -3.946  0.00  0.00    +0.000 A 
ATOM     32  C   UNL     1      -1.488  -2.569  -3.315  0.00  0.00    +0.000 A 
ATOM     33  C   UNL     1      -1.098  -2.298  -2.017  0.00  0.00    +0.004 A 
ENDBRANCH  27  28
ENDBRANCH   4  27
TORSDOF 7
