REMARK  Name = ZINC14703237
REMARK  14 active torsions:
REMARK  status: ('A' for Active; 'I' for Inactive)
REMARK    1  A    between atoms: C_1  and  C_2
REMARK    2  A    between atoms: C_2  and  C_4
REMARK    3  A    between atoms: C_2  and  N_62
REMARK    4  A    between atoms: C_9  and  N_62
REMARK    5  A    between atoms: C_10  and  C_11
REMARK    6  A    between atoms: C_10  and  N_62
REMARK    7  A    between atoms: N_13  and  C_14
REMARK    8  A    between atoms: N_13  and  C_18
REMARK    9  A    between atoms: C_14  and  C_15
REMARK   10  A    between atoms: C_15  and  O_16
REMARK   11  A    between atoms: O_16  and  C_17
REMARK   12  A    between atoms: C_19  and  N_34
REMARK   13  A    between atoms: N_20  and  C_27
REMARK   14  A    between atoms: C_27  and  C_28
REMARK                            x       y       z     vdW  Elec       q    Type
REMARK                         _______ _______ _______ _____ _____    ______ ____
ROOT
ATOM      1  C   UNL     1       5.368   1.922   1.776  0.00  0.00    +0.140 A 
ATOM      2  C   UNL     1       6.161   1.554   0.708  0.00  0.00    +0.128 A 
ATOM      3  N   UNL     1       7.487   1.922   0.698  0.00  0.00    -0.276 N 
ATOM      4  C   UNL     1       8.006   2.623   1.722  0.00  0.00    +0.331 A 
ATOM      5  O   UNL     1       9.182   2.934   1.697  0.00  0.00    -0.246 OA
ATOM      6  N   UNL     1       7.250   2.987   2.773  0.00  0.00    -0.273 N 
ATOM      7  H   UNL     1       7.661   3.509   3.521  0.00  0.00    +0.173 HD
ATOM      8  C   UNL     1       5.945   2.656   2.829  0.00  0.00    +0.277 A 
ATOM      9  O   UNL     1       5.268   2.991   3.787  0.00  0.00    -0.266 OA
ENDROOT
BRANCH   1  12
ATOM     10  C   UNL     1       3.160   2.022   0.865  0.00  0.00    +0.203 C 
ATOM     11  O   UNL     1       3.556   2.807   0.028  0.00  0.00    -0.277 OA
ATOM     12  N   UNL     1       4.004   1.564   1.813  0.00  0.00    -0.264 N 
BRANCH  10  13
ATOM     13  C   UNL     1       1.726   1.560   0.846  0.00  0.00    +0.020 C 
BRANCH  13  15
ATOM     14  C   UNL     1       0.917   3.650  -0.071  0.00  0.00    -0.095 C 
ATOM     15  N   UNL     1       1.036   2.194  -0.297  0.00  0.00    +0.388 N 
ATOM     16  H   UNL     1       1.585   2.032  -1.149  0.00  0.00    -0.081 HD
BRANCH  15  18
ATOM     17  C   UNL     1      -0.987   2.251  -1.675  0.00  0.00    -0.008 C 
ATOM     18  C   UNL     1      -0.306   1.598  -0.470  0.00  0.00    -0.034 C 
BRANCH  18  19
ATOM     19  C   UNL     1      -0.157   0.119  -0.717  0.00  0.00    -0.024 A 
ATOM     20  C   UNL     1      -0.847  -0.911  -0.172  0.00  0.00    +0.009 A 
ATOM     21  C   UNL     1      -0.536  -2.203  -0.552  0.00  0.00    +0.008 A 
ATOM     22  C   UNL     1       0.451  -2.401  -1.460  0.00  0.00    +0.045 A 
ATOM     23  S   UNL     1       0.971  -0.730  -1.811  0.00  0.00    -0.103 S 
ENDBRANCH  18  19
ENDBRANCH  15  18
ENDBRANCH  13  15
ENDBRANCH  10  13
BRANCH  12  24
ATOM     24  C   UNL     1       3.504   0.695   2.881  0.00  0.00    +0.142 C 
BRANCH  24  25
ATOM     25  C   UNL     1       3.589  -0.765   2.432  0.00  0.00    +0.178 C 
BRANCH  25  26
ATOM     26  O   UNL     1       4.960  -1.131   2.258  0.00  0.00    -0.381 OA
ATOM     27  C   UNL     1       5.152  -2.483   1.837  0.00  0.00    +0.194 C 
ENDBRANCH  25  26
ENDBRANCH  24  25
ENDBRANCH  12  24
ENDBRANCH   1  12
BRANCH   2  28
ATOM     28  N   UNL     1       5.632   0.833  -0.335  0.00  0.00    -0.343 N 
ATOM     29  H   UNL     1       4.700   0.566  -0.316  0.00  0.00    +0.144 HD
ATOM     30  H   UNL     1       6.191   0.589  -1.089  0.00  0.00    +0.144 HD
ENDBRANCH   2  28
BRANCH   3  31
ATOM     31  C   UNL     1       8.339   1.542  -0.431  0.00  0.00    +0.163 C 
BRANCH  31  32
ATOM     32  C   UNL     1       8.967   0.199  -0.157  0.00  0.00    -0.028 A 
ATOM     33  C   UNL     1      10.189   0.125   0.485  0.00  0.00    +0.005 A 
ATOM     34  C   UNL     1      10.762  -1.107   0.741  0.00  0.00    +0.000 A 
ATOM     35  C   UNL     1      10.118  -2.264   0.345  0.00  0.00    +0.000 A 
ATOM     36  C   UNL     1       8.898  -2.190  -0.301  0.00  0.00    +0.000 A 
ATOM     37  C   UNL     1       8.323  -0.958  -0.552  0.00  0.00    +0.005 A 
ENDBRANCH  31  32
ENDBRANCH   3  31
TORSDOF 11
