REMARK  Name = ZINC64058288
REMARK  8 active torsions:
REMARK  status: ('A' for Active; 'I' for Inactive)
REMARK    1  A    between atoms: C_1  and  C_2
REMARK    2  A    between atoms: N_4  and  C_5
REMARK    3  A    between atoms: C_5  and  C_7
REMARK    4  A    between atoms: C_5  and  C_17
REMARK    5  A    between atoms: C_7  and  C_8
REMARK    6  A    between atoms: N_19  and  C_20
REMARK    7  A    between atoms: C_24  and  N_26
REMARK    8  A    between atoms: C_27  and  C_29
REMARK                            x       y       z     vdW  Elec       q    Type
REMARK                         _______ _______ _______ _____ _____    ______ ____
ROOT
ATOM      1  C   UNL     1      -0.436  -2.674   1.217  0.00  0.00    +0.238 C 
ATOM      2  O   UNL     1       0.322  -1.936   1.809  0.00  0.00    -0.273 OA
ATOM      3  N   UNL     1      -0.619  -3.938   1.646  0.00  0.00    -0.284 N 
ATOM      4  H   UNL     1      -1.274  -4.508   1.214  0.00  0.00    +0.155 HD
ENDROOT
BRANCH   3   5
ATOM      5  C   UNL     1       0.137  -4.430   2.717  0.00  0.00    +0.035 A 
ATOM      6  C   UNL     1       0.485  -3.588   3.766  0.00  0.00    +0.026 A 
ATOM      7  C   UNL     1       1.232  -4.072   4.824  0.00  0.00    +0.042 A 
ATOM      8  C   UNL     1       1.635  -5.395   4.841  0.00  0.00    +0.145 A 
ATOM      9  C   UNL     1       1.289  -6.242   3.793  0.00  0.00    +0.071 A 
ATOM     10  C   UNL     1       0.534  -5.759   2.734  0.00  0.00    +0.049 A 
ATOM     11  F   UNL     1       2.365  -5.865   5.876  0.00  0.00    -0.204 F 
BRANCH   9  12
ATOM     12  N   UNL     1       1.698  -7.581   3.810  0.00  0.00    -0.283 N 
ATOM     13  C   UNL     1       2.010  -8.205   2.657  0.00  0.00    +0.220 C 
ATOM     14  O   UNL     1       1.860  -7.633   1.598  0.00  0.00    -0.275 OA
ATOM     15  H   UNL     1       1.756  -8.060   4.652  0.00  0.00    +0.155 HD
BRANCH  13  16
ATOM     16  C   UNL     1       2.548  -9.613   2.683  0.00  0.00    +0.075 C 
ATOM     17  C   UNL     1       4.008  -9.819   2.278  0.00  0.00    +0.013 C 
ATOM     18  C   UNL     1       2.884 -10.266   1.341  0.00  0.00    +0.013 C 
ENDBRANCH  13  16
ENDBRANCH   9  12
ENDBRANCH   3   5
BRANCH   1  19
ATOM     19  C   UNL     1      -1.175  -2.177   0.001  0.00  0.00    +0.163 C 
BRANCH  19  23
ATOM     20  C   UNL     1      -0.069   1.488   0.002  0.00  0.00    +0.109 C 
ATOM     21  C   UNL     1      -0.044  -0.019  -0.006  0.00  0.00    +0.211 C 
ATOM     22  O   UNL     1       1.016  -0.608  -0.027  0.00  0.00    -0.276 OA
ATOM     23  N   UNL     1      -1.199  -0.712   0.009  0.00  0.00    -0.304 N 
ATOM     24  H   UNL     1      -2.047  -0.242   0.025  0.00  0.00    +0.149 HD
ENDBRANCH  19  23
BRANCH  19  25
ATOM     25  C   UNL     1      -0.466  -2.668  -1.263  0.00  0.00    +0.065 C 
BRANCH  25  26
ATOM     26  C   UNL     1      -1.270  -2.276  -2.475  0.00  0.00    -0.039 C 
ATOM     27  C   UNL     1      -1.096  -1.179  -3.247  0.00  0.00    -0.001 A 
ATOM     28  C   UNL     1      -0.144  -0.064  -3.189  0.00  0.00    +0.010 A 
ATOM     29  C   UNL     1      -0.219   0.912  -4.122  0.00  0.00    +0.001 A 
ATOM     30  C   UNL     1      -1.182   0.886  -5.140  0.00  0.00    +0.002 A 
ATOM     31  C   UNL     1      -2.091  -0.105  -5.259  0.00  0.00    +0.026 A 
ATOM     32  C   UNL     1      -2.103  -1.184  -4.332  0.00  0.00    +0.043 A 
ATOM     33  N   UNL     1      -2.869  -2.243  -4.235  0.00  0.00    -0.380 N 
ATOM     34  C   UNL     1      -2.431  -3.034  -3.080  0.00  0.00    +0.144 C 
ATOM     35  H   UNL     1      -3.602  -2.468  -4.831  0.00  0.00    +0.160 HD
ENDBRANCH  25  26
ENDBRANCH  19  25
ENDBRANCH   1  19
TORSDOF 7
