REMARK  Name = ZINC57148213
REMARK  10 active torsions:
REMARK  status: ('A' for Active; 'I' for Inactive)
REMARK    1  A    between atoms: C_1  and  C_2
REMARK    2  A    between atoms: C_5  and  C_28
REMARK    3  A    between atoms: N_8  and  C_10
REMARK    4  A    between atoms: C_10  and  C_11
REMARK    5  A    between atoms: C_11  and  C_13
REMARK    6  A    between atoms: C_11  and  N_14
REMARK    7  A    between atoms: N_14  and  C_15
REMARK    8  A    between atoms: C_18  and  S_24
REMARK    9  A    between atoms: C_20  and  N_21
REMARK   10  A    between atoms: S_24  and  N_27
REMARK                            x       y       z     vdW  Elec       q    Type
REMARK                         _______ _______ _______ _____ _____    ______ ____
ROOT
ATOM      1  C   UNL     1       4.430  -1.687   0.183  0.00  0.00    +0.058 A 
ATOM      2  C   UNL     1       4.937  -0.525   0.751  0.00  0.00    +0.027 A 
ATOM      3  C   UNL     1       6.140  -0.010   0.309  0.00  0.00    +0.030 A 
ATOM      4  C   UNL     1       6.839  -0.650  -0.699  0.00  0.00    +0.107 A 
ATOM      5  C   UNL     1       6.336  -1.806  -1.267  0.00  0.00    +0.063 A 
ATOM      6  C   UNL     1       5.137  -2.329  -0.825  0.00  0.00    +0.149 A 
ENDROOT
BRANCH   6   7
ATOM      7  N   UNL     1       4.602  -3.570  -1.429  0.00  0.00    +0.058 N 
ATOM      8  O   UNL     1       4.034  -4.383  -0.738  0.00  0.00    -0.126 OA
ATOM      9  O   UNL     1       4.734  -3.771  -2.614  0.00  0.00    -0.126 OA
ENDBRANCH   6   7
BRANCH   4  10
ATOM     10  S   UNL     1       8.373   0.011  -1.261  0.00  0.00    +0.056 S 
ATOM     11  O   UNL     1       8.561  -0.469  -2.585  0.00  0.00    -0.153 OA
ATOM     12  O   UNL     1       8.357   1.397  -0.948  0.00  0.00    -0.153 OA
BRANCH  10  13
ATOM     13  N   UNL     1       9.566  -0.670  -0.337  0.00  0.00    -0.204 NA
ATOM     14  H   UNL     1       9.338  -1.305   0.360  0.00  0.00    +0.144 HD
ATOM     15  H   UNL     1      10.494  -0.432  -0.491  0.00  0.00    +0.144 HD
ENDBRANCH  10  13
ENDBRANCH   4  10
BRANCH   1  16
ATOM     16  N   UNL     1       3.214  -2.210   0.629  0.00  0.00    -0.341 N 
ATOM     17  H   UNL     1       2.820  -2.973   0.177  0.00  0.00    +0.146 HD
BRANCH  16  18
ATOM     18  C   UNL     1       2.534  -1.608   1.778  0.00  0.00    +0.051 C 
ATOM     19  C   UNL     1       3.096  -2.201   3.072  0.00  0.00    +0.026 C 
BRANCH  18  20
ATOM     20  C   UNL     1       1.034  -1.898   1.693  0.00  0.00    -0.057 C 
BRANCH  20  26
ATOM     21  C   UNL     1       0.315   2.027  -1.142  0.00  0.00    +0.005 C 
ATOM     22  C   UNL     1       0.184   0.505  -1.061  0.00  0.00    -0.031 C 
ATOM     23  C   UNL     1      -1.279   0.106  -1.272  0.00  0.00    +0.003 C 
ATOM     24  C   UNL     1      -1.412  -1.411  -1.111  0.00  0.00    -0.031 C 
ATOM     25  C   UNL     1      -0.892  -1.820   0.269  0.00  0.00    -0.076 C 
ATOM     26  N   UNL     1       0.518  -1.435   0.398  0.00  0.00    +0.381 N 
ATOM     27  C   UNL     1       0.646   0.025   0.317  0.00  0.00    -0.076 C 
ATOM     28  C   UNL     1      -0.592  -2.114  -2.196  0.00  0.00    +0.005 C 
ATOM     29  H   UNL     1       1.052  -1.859  -0.345  0.00  0.00    -0.082 HD
ENDBRANCH  20  26
ENDBRANCH  18  20
ENDBRANCH  16  18
ENDBRANCH   1  16
TORSDOF 7
