REMARK  Name = ZINC21081819
REMARK  9 active torsions:
REMARK  status: ('A' for Active; 'I' for Inactive)
REMARK    1  A    between atoms: C_1  and  C_2
REMARK    2  A    between atoms: C_2  and  C_24
REMARK    3  A    between atoms: N_3  and  N_4
REMARK    4  A    between atoms: C_7  and  S_10
REMARK    5  A    between atoms: S_10  and  C_11
REMARK    6  A    between atoms: C_11  and  C_12
REMARK    7  A    between atoms: N_14  and  C_15
REMARK    8  A    between atoms: C_19  and  O_21
REMARK    9  A    between atoms: O_21  and  C_22
REMARK                            x       y       z     vdW  Elec       q    Type
REMARK                         _______ _______ _______ _____ _____    ______ ____
ROOT
ATOM      1  N   UNL     1      -2.414   1.255  -0.516  0.00  0.00    -0.205 N 
ATOM      2  C   UNL     1      -1.106   1.708  -0.422  0.00  0.00    +0.232 A 
ATOM      3  N   UNL     1       0.019   0.938  -0.514  0.00  0.00    -0.186 NA
ATOM      4  C   UNL     1       1.104   1.757  -0.375  0.00  0.00    +0.211 A 
ATOM      5  N   UNL     1       0.667   2.981  -0.199  0.00  0.00    -0.144 NA
ATOM      6  N   UNL     1      -0.733   2.950  -0.226  0.00  0.00    -0.245 N 
ATOM      7  H   UNL     1      -2.616   0.186  -0.680  0.00  0.00    +0.177 HD
ATOM      8  H   UNL     1      -1.489   3.741  -0.116  0.00  0.00    +0.192 HD
ENDROOT
BRANCH   1  11
ATOM      9  C   UNL     1      -4.979   0.271  -0.715  0.00  0.00    +0.068 C 
ATOM     10  C   UNL     1      -4.703   1.735  -0.491  0.00  0.00    +0.063 C 
ATOM     11  N   UNL     1      -3.479   2.159  -0.403  0.00  0.00    -0.184 NA
BRANCH  10  12
ATOM     12  C   UNL     1      -5.823   2.686  -0.372  0.00  0.00    -0.002 A 
ATOM     13  C   UNL     1      -7.141   2.234  -0.472  0.00  0.00    +0.011 A 
ATOM     14  C   UNL     1      -8.184   3.129  -0.354  0.00  0.00    +0.016 A 
ATOM     15  C   UNL     1      -7.927   4.474  -0.148  0.00  0.00    +0.018 A 
ATOM     16  C   UNL     1      -6.623   4.929  -0.053  0.00  0.00    +0.016 A 
ATOM     17  C   UNL     1      -5.571   4.045  -0.164  0.00  0.00    +0.011 A 
ATOM     18 BR   UNL     1      -9.364   5.694   0.005  0.00  0.00    -0.050 Br
ENDBRANCH  10  12
ENDBRANCH   1  11
BRANCH   4  19
ATOM     19  S   UNL     1       2.792   1.256  -0.423  0.00  0.00    -0.075 S 
BRANCH  19  20
ATOM     20  C   UNL     1       3.715   2.799  -0.179  0.00  0.00    +0.173 C 
BRANCH  20  21
ATOM     21  C   UNL     1       5.193   2.509  -0.198  0.00  0.00    +0.227 C 
ATOM     22  O   UNL     1       5.587   1.373  -0.361  0.00  0.00    -0.275 OA
ATOM     23  N   UNL     1       6.079   3.511  -0.035  0.00  0.00    -0.285 N 
ATOM     24  H   UNL     1       5.727   4.552   0.025  0.00  0.00    +0.155 HD
BRANCH  23  25
ATOM     25  C   UNL     1       7.447   3.229   0.057  0.00  0.00    +0.037 A 
ATOM     26  C   UNL     1       7.875   2.053   0.660  0.00  0.00    +0.025 A 
ATOM     27  C   UNL     1       9.224   1.771   0.747  0.00  0.00    +0.025 A 
ATOM     28  C   UNL     1      10.153   2.664   0.244  0.00  0.00    +0.083 A 
ATOM     29  C   UNL     1       9.731   3.844  -0.354  0.00  0.00    +0.140 A 
ATOM     30  C   UNL     1       8.377   4.126  -0.448  0.00  0.00    +0.070 A 
ATOM     31 CL   UNL     1      11.848   2.310   0.361  0.00  0.00    -0.080 Cl
BRANCH  29  32
ATOM     32  O   UNL     1      10.644   4.721  -0.849  0.00  0.00    -0.494 OA
ATOM     33  C   UNL     1      10.138   5.913  -1.451  0.00  0.00    +0.277 C 
ENDBRANCH  29  32
ENDBRANCH  23  25
ENDBRANCH  20  21
ENDBRANCH  19  20
ENDBRANCH   4  19
TORSDOF 7
