REMARK  Name = ZINC61881955
REMARK  6 active torsions:
REMARK  status: ('A' for Active; 'I' for Inactive)
REMARK    1  A    between atoms: C_1  and  N_2
REMARK    2  A    between atoms: C_5  and  C_8
REMARK    3  A    between atoms: C_8  and  N_9
REMARK    4  A    between atoms: N_9  and  S_10
REMARK    5  A    between atoms: S_10  and  C_13
REMARK    6  A    between atoms: C_17  and  N_20
REMARK                            x       y       z     vdW  Elec       q    Type
REMARK                         _______ _______ _______ _____ _____    ______ ____
ROOT
ATOM      1  S   UNL     1      -0.206  -5.015   3.617  0.00  0.00    +0.060 S 
ATOM      2  O   UNL     1      -1.315  -5.670   4.218  0.00  0.00    -0.153 OA
ATOM      3  O   UNL     1       0.346  -5.435   2.377  0.00  0.00    -0.153 OA
ENDROOT
BRANCH   1   4
ATOM      4  C   UNL     1       1.105  -5.061   4.794  0.00  0.00    +0.122 A 
ATOM      5  C   UNL     1       2.360  -5.497   4.412  0.00  0.00    +0.049 A 
ATOM      6  C   UNL     1       3.392  -5.534   5.333  0.00  0.00    +0.045 A 
ATOM      7  C   UNL     1       3.171  -5.134   6.638  0.00  0.00    +0.044 A 
ATOM      8  C   UNL     1       1.912  -4.696   7.024  0.00  0.00    +0.042 A 
ATOM      9  C   UNL     1       0.878  -4.655   6.095  0.00  0.00    +0.065 A 
ATOM     10 BR   UNL     1      -0.837  -4.050   6.613  0.00  0.00    -0.046 Br
ATOM     11 CL   UNL     1       4.966  -6.084   4.849  0.00  0.00    -0.083 Cl
BRANCH   8  12
ATOM     12  N   UNL     1       1.685  -4.291   8.342  0.00  0.00    -0.357 N 
ATOM     13  H   UNL     1       2.407  -4.317   8.988  0.00  0.00    +0.142 HD
ATOM     14  H   UNL     1       0.804  -3.985   8.610  0.00  0.00    +0.142 HD
ENDBRANCH   8  12
ENDBRANCH   1   4
BRANCH   1  15
ATOM     15  N   UNL     1      -0.640  -3.428   3.428  0.00  0.00    -0.190 NA
ATOM     16  H   UNL     1      -1.524  -3.131   3.695  0.00  0.00    +0.148 HD
BRANCH  15  17
ATOM     17  C   UNL     1       0.312  -2.471   2.859  0.00  0.00    +0.107 C 
BRANCH  17  22
ATOM     18  C   UNL     1      -0.235   1.911   0.910  0.00  0.00    -0.096 C 
ATOM     19  N   UNL     1      -0.140   0.462   0.688  0.00  0.00    +0.378 N 
ATOM     20  C   UNL     1      -1.496  -0.114   0.574  0.00  0.00    -0.079 C 
ATOM     21  C   UNL     1      -1.395  -1.502   1.255  0.00  0.00    -0.016 C 
ATOM     22  C   UNL     1      -0.431  -1.204   2.433  0.00  0.00    -0.014 C 
ATOM     23  C   UNL     1       0.545  -0.171   1.831  0.00  0.00    -0.075 C 
ATOM     24  H   UNL     1       0.376   0.281  -0.160  0.00  0.00    -0.082 HD
ENDBRANCH  17  22
ENDBRANCH  15  17
ENDBRANCH   1  15
TORSDOF 5
