REMARK  Name = ZINC02662625
REMARK  7 active torsions:
REMARK  status: ('A' for Active; 'I' for Inactive)
REMARK    1  A    between atoms: C_4  and  C_7
REMARK    2  A    between atoms: C_7  and  C_9
REMARK    3  A    between atoms: C_7  and  N_49
REMARK    4  A    between atoms: N_11  and  C_12
REMARK    5  A    between atoms: C_14  and  C_19
REMARK    6  A    between atoms: C_23  and  C_24
REMARK    7  A    between atoms: C_23  and  N_49
REMARK                            x       y       z     vdW  Elec       q    Type
REMARK                         _______ _______ _______ _____ _____    ______ ____
ROOT
ATOM      1  C   UNL     1       2.455   0.801   0.111  0.00  0.00    +0.048 C 
ENDROOT
BRANCH   1   5
ATOM      2  C   UNL     1       2.720  -1.887  -3.197  0.00  0.00    +0.000 A 
ATOM      3  C   UNL     1       2.295  -2.348  -1.965  0.00  0.00    +0.000 A 
ATOM      4  C   UNL     1       2.209  -1.478  -0.895  0.00  0.00    +0.002 A 
ATOM      5  C   UNL     1       2.549  -0.147  -1.056  0.00  0.00    -0.053 A 
ATOM      6  C   UNL     1       2.969   0.314  -2.289  0.00  0.00    +0.002 A 
ATOM      7  C   UNL     1       3.059  -0.557  -3.359  0.00  0.00    +0.000 A 
ENDBRANCH   1   5
BRANCH   1   8
ATOM      8  C   UNL     1       1.179   1.598   0.010  0.00  0.00    +0.207 C 
ATOM      9  O   UNL     1       1.224   2.807  -0.069  0.00  0.00    -0.277 OA
ATOM     10  N   UNL     1      -0.011   0.966   0.007  0.00  0.00    -0.285 N 
ATOM     11  H   UNL     1      -0.046  -0.003  -0.013  0.00  0.00    +0.155 HD
BRANCH  10  12
ATOM     12  C   UNL     1      -1.198   1.708   0.028  0.00  0.00    +0.052 A 
ATOM     13  C   UNL     1      -1.205   2.994   0.553  0.00  0.00    +0.037 A 
ATOM     14  C   UNL     1      -2.377   3.724   0.571  0.00  0.00    +0.057 A 
ATOM     15  C   UNL     1      -3.543   3.177   0.067  0.00  0.00    +0.014 A 
ATOM     16  C   UNL     1      -3.540   1.898  -0.457  0.00  0.00    +0.022 A 
ATOM     17  C   UNL     1      -2.369   1.163  -0.483  0.00  0.00    +0.062 A 
ATOM     18 CL   UNL     1      -2.364  -0.441  -1.148  0.00  0.00    -0.082 Cl
BRANCH  14  19
ATOM     19  C   UNL     1      -2.386   5.119   1.141  0.00  0.00    +0.417 C 
ATOM     20  F   UNL     1      -2.102   6.039   0.127  0.00  0.00    -0.166 F 
ATOM     21  F   UNL     1      -3.646   5.394   1.682  0.00  0.00    -0.166 F 
ATOM     22  F   UNL     1      -1.416   5.218   2.145  0.00  0.00    -0.166 F 
ENDBRANCH  14  19
ENDBRANCH  10  12
ENDBRANCH   1   8
BRANCH   1  23
ATOM     23  N   UNL     1       3.605   1.724   0.089  0.00  0.00    +0.392 N 
ATOM     24  H   UNL     1       3.352   2.592   0.577  0.00  0.00    -0.084 HD
ATOM     25  H   UNL     1       3.849   1.938  -0.885  0.00  0.00    -0.084 HD
BRANCH  23  26
ATOM     26  C   UNL     1       4.767   1.111   0.759  0.00  0.00    -0.045 C 
BRANCH  26  27
ATOM     27  C   UNL     1       5.925   2.075   0.721  0.00  0.00    -0.061 A 
ATOM     28  C   UNL     1       6.813   2.045  -0.338  0.00  0.00    +0.005 A 
ATOM     29  C   UNL     1       7.873   2.931  -0.380  0.00  0.00    +0.050 A 
ATOM     30  C   UNL     1       8.055   3.844   0.646  0.00  0.00    +0.166 A 
ATOM     31  C   UNL     1       7.163   3.870   1.716  0.00  0.00    +0.166 A 
ATOM     32  C   UNL     1       6.100   2.983   1.748  0.00  0.00    +0.051 A 
ATOM     33  O   UNL     1       7.554   4.847   2.586  0.00  0.00    -0.453 OA
ATOM     34  C   UNL     1       8.922   5.142   2.243  0.00  0.00    +0.466 C 
ATOM     35  O   UNL     1       9.005   4.804   0.846  0.00  0.00    -0.453 OA
ENDBRANCH  26  27
ENDBRANCH  23  26
ENDBRANCH   1  23
TORSDOF 7
