REMARK  Name = ZINC62427417
REMARK  5 active torsions:
REMARK  status: ('A' for Active; 'I' for Inactive)
REMARK    1  A    between atoms: C_1  and  C_2
REMARK    2  A    between atoms: C_3  and  C_20
REMARK    3  A    between atoms: N_6  and  C_7
REMARK    4  A    between atoms: C_16  and  C_19
REMARK    5  A    between atoms: C_20  and  N_21
REMARK                            x       y       z     vdW  Elec       q    Type
REMARK                         _______ _______ _______ _____ _____    ______ ____
ROOT
ATOM      1  C   UNL     1       0.032  -0.423   2.429  0.00  0.00    +0.083 A 
ATOM      2  C   UNL     1       0.682   0.750   2.808  0.00  0.00    +0.032 A 
ATOM      3  C   UNL     1       0.664   1.111   4.142  0.00  0.00    +0.044 A 
ATOM      4  C   UNL     1       0.001   0.298   5.056  0.00  0.00    +0.099 A 
ATOM      5  N   UNL     1      -0.606  -0.810   4.660  0.00  0.00    -0.348 N 
ATOM      6  C   UNL     1      -0.612  -1.182   3.393  0.00  0.00    +0.112 A 
ATOM      7  N   UNL     1      -0.023   0.652   6.401  0.00  0.00    -0.317 N 
ATOM      8  C   UNL     1       0.751   1.802   6.886  0.00  0.00    +0.107 C 
ATOM      9  C   UNL     1       1.637   1.345   8.049  0.00  0.00    +0.022 C 
ATOM     10  C   UNL     1       0.767   0.678   9.116  0.00  0.00    -0.011 C 
ATOM     11  C   UNL     1       0.080  -0.553   8.520  0.00  0.00    +0.022 C 
ATOM     12  C   UNL     1      -0.829  -0.114   7.362  0.00  0.00    +0.107 C 
ATOM     13  C   UNL     1       1.645   0.250  10.295  0.00  0.00    +0.007 C 
ATOM     14  H   UNL     1      -1.060  -1.361   5.316  0.00  0.00    +0.167 HD
ENDROOT
BRANCH   1  20
ATOM     15  C   UNL     1      -0.073   1.500   0.010  0.00  0.00    +0.067 C 
ATOM     16  C   UNL     1      -0.020  -0.006   0.002  0.00  0.00    +0.063 A 
ATOM     17  C   UNL     1      -0.003  -0.815  -1.084  0.00  0.00    +0.069 A 
ATOM     18  N   UNL     1       0.047  -2.070  -0.623  0.00  0.00    -0.136 NA
ATOM     19  N   UNL     1       0.059  -2.045   0.663  0.00  0.00    -0.060 NA
ATOM     20  N   UNL     1       0.026  -0.829   1.085  0.00  0.00    -0.216 N 
BRANCH  17  21
ATOM     21  C   UNL     1      -0.033  -0.385  -2.528  0.00  0.00    -0.026 C 
BRANCH  21  22
ATOM     22  N   UNL     1       1.341  -0.196  -3.012  0.00  0.00    +0.382 N 
ATOM     23  H   UNL     1       1.798   0.514  -2.459  0.00  0.00    -0.090 HD
ATOM     24  H   UNL     1       1.849  -1.064  -2.929  0.00  0.00    -0.090 HD
ATOM     25  H   UNL     1       1.321   0.091  -3.978  0.00  0.00    -0.090 HD
ENDBRANCH  21  22
ENDBRANCH  17  21
ENDBRANCH   1  20
TORSDOF 3
