REMARK  Name = ZINC67359267
REMARK  9 active torsions:
REMARK  status: ('A' for Active; 'I' for Inactive)
REMARK    1  A    between atoms: C_1  and  C_2
REMARK    2  A    between atoms: C_6  and  C_7
REMARK    3  A    between atoms: N_9  and  N_10
REMARK    4  A    between atoms: N_13  and  C_14
REMARK    5  A    between atoms: C_14  and  C_15
REMARK    6  A    between atoms: C_15  and  C_17
REMARK    7  A    between atoms: C_15  and  N_22
REMARK    8  A    between atoms: N_22  and  C_23
REMARK    9  A    between atoms: N_22  and  C_24
REMARK                            x       y       z     vdW  Elec       q    Type
REMARK                         _______ _______ _______ _____ _____    ______ ____
ROOT
ATOM      1  N   UNL     1       0.646  -1.235   4.015  0.00  0.00    -0.218 N 
ATOM      2  C   UNL     1       0.430  -1.935   5.147  0.00  0.00    +0.316 C 
ATOM      3  O   UNL     1       0.226  -1.350   6.193  0.00  0.00    -0.251 OA
ATOM      4  N   UNL     1       0.440  -3.282   5.119  0.00  0.00    -0.299 N 
ATOM      5  H   UNL     1       0.638  -0.266   4.035  0.00  0.00    +0.174 HD
ATOM      6  H   UNL     1       0.603  -3.748   4.284  0.00  0.00    +0.150 HD
ENDROOT
BRANCH   1   9
ATOM      7  C   UNL     1       1.097  -1.210   1.677  0.00  0.00    +0.267 C 
ATOM      8  O   UNL     1       1.088   0.007   1.703  0.00  0.00    -0.268 OA
ATOM      9  N   UNL     1       0.881  -1.909   2.809  0.00  0.00    -0.229 N 
ATOM     10  H   UNL     1       0.889  -2.879   2.789  0.00  0.00    +0.173 HD
BRANCH   7  16
ATOM     11  C   UNL     1       1.629   0.093  -1.102  0.00  0.00    +0.045 C 
ATOM     12  C   UNL     1       1.585  -1.391  -0.845  0.00  0.00    -0.031 A 
ATOM     13  C   UNL     1       1.787  -2.312  -1.845  0.00  0.00    +0.011 A 
ATOM     14  C   UNL     1       1.734  -3.634  -1.544  0.00  0.00    +0.046 A 
ATOM     15  S   UNL     1       1.408  -3.669   0.103  0.00  0.00    -0.092 S 
ATOM     16  C   UNL     1       1.343  -1.915   0.416  0.00  0.00    +0.078 A 
ENDBRANCH   7  16
ENDBRANCH   1   9
BRANCH   4  17
ATOM     17  C   UNL     1       0.205  -4.042   6.349  0.00  0.00    +0.095 C 
BRANCH  17  18
ATOM     18  C   UNL     1       0.141  -5.535   6.021  0.00  0.00    -0.014 C 
BRANCH  18  19
ATOM     19  C   UNL     1      -1.060  -5.808   5.154  0.00  0.00    -0.022 A 
ATOM     20  C   UNL     1      -1.121  -5.985   3.811  0.00  0.00    +0.009 A 
ATOM     21  C   UNL     1      -2.348  -6.227   3.222  0.00  0.00    +0.008 A 
ATOM     22  C   UNL     1      -3.453  -6.281   4.004  0.00  0.00    +0.045 A 
ATOM     23  S   UNL     1      -2.771  -5.991   5.628  0.00  0.00    -0.103 S 
ENDBRANCH  18  19
BRANCH  18  24
ATOM     24  N   UNL     1       0.031  -6.305   7.267  0.00  0.00    +0.382 N 
ATOM     25  C   UNL     1      -0.102  -7.733   6.950  0.00  0.00    -0.096 C 
ATOM     26  C   UNL     1       1.235  -6.095   8.082  0.00  0.00    -0.096 C 
ATOM     27  H   UNL     1      -0.781  -5.998   7.782  0.00  0.00    -0.082 HD
ENDBRANCH  18  24
ENDBRANCH  17  18
ENDBRANCH   4  17
TORSDOF 6
