REMARK  Name = ZINC63974478
REMARK  8 active torsions:
REMARK  status: ('A' for Active; 'I' for Inactive)
REMARK    1  A    between atoms: C_1  and  C_2
REMARK    2  A    between atoms: C_2  and  N_3
REMARK    3  A    between atoms: C_6  and  C_16
REMARK    4  A    between atoms: C_8  and  C_10
REMARK    5  A    between atoms: N_18  and  C_19
REMARK    6  A    between atoms: C_23  and  C_25
REMARK    7  A    between atoms: C_28  and  C_32
REMARK    8  A    between atoms: C_29  and  C_31
REMARK                            x       y       z     vdW  Elec       q    Type
REMARK                         _______ _______ _______ _____ _____    ______ ____
ROOT
ATOM      1  C   UNL     1      -5.645  -2.084  -1.385  0.00  0.00    +0.249 C 
ATOM      2  O   UNL     1      -5.949  -2.210  -0.215  0.00  0.00    -0.270 OA
ATOM      3  N   UNL     1      -6.530  -2.405  -2.350  0.00  0.00    -0.281 N 
ATOM      4  H   UNL     1      -6.313  -2.241  -3.281  0.00  0.00    +0.155 HD
ENDROOT
BRANCH   1   8
ATOM      5  N   UNL     1      -1.375  -0.503   0.012  0.00  0.00    -0.251 N 
ATOM      6  C   UNL     1      -2.115  -0.768  -1.132  0.00  0.00    +0.141 A 
ATOM      7  C   UNL     1      -3.374  -1.242  -0.772  0.00  0.00    +0.021 A 
ATOM      8  C   UNL     1      -4.302  -1.578  -1.751  0.00  0.00    +0.047 A 
ATOM      9  C   UNL     1      -3.931  -1.425  -3.092  0.00  0.00    +0.042 A 
ATOM     10  C   UNL     1      -2.658  -0.947  -3.382  0.00  0.00    +0.074 A 
ATOM     11  N   UNL     1      -1.804  -0.638  -2.416  0.00  0.00    -0.230 NA
ATOM     12  C   UNL     1      -3.408  -1.269   0.737  0.00  0.00    +0.141 C 
ATOM     13  N   UNL     1      -2.076  -0.782   1.145  0.00  0.00    -0.234 NA
ATOM     14  H   UNL     1      -2.157   0.035   1.732  0.00  0.00    +0.145 HD
BRANCH  10  15
ATOM     15  C   UNL     1      -2.247  -0.779  -4.798  0.00  0.00    +0.000 A 
ATOM     16  C   UNL     1      -3.135  -1.094  -5.825  0.00  0.00    +0.010 A 
ATOM     17  C   UNL     1      -2.748  -0.936  -7.141  0.00  0.00    +0.001 A 
ATOM     18  C   UNL     1      -1.482  -0.467  -7.440  0.00  0.00    +0.000 A 
ATOM     19  C   UNL     1      -0.597  -0.152  -6.425  0.00  0.00    +0.001 A 
ATOM     20  C   UNL     1      -0.975  -0.300  -5.106  0.00  0.00    +0.010 A 
ENDBRANCH  10  15
BRANCH   5  22
ATOM     21  C   UNL     1      -0.030   1.540   0.018  0.00  0.00    +0.026 C 
ATOM     22  C   UNL     1      -0.003   0.010   0.001  0.00  0.00    +0.122 C 
ENDBRANCH   5  22
ENDBRANCH   1   8
BRANCH   3  23
ATOM     23  C   UNL     1      -7.761  -2.973  -2.008  0.00  0.00    +0.034 A 
ATOM     24  C   UNL     1      -8.409  -2.581  -0.842  0.00  0.00    +0.023 A 
ATOM     25  C   UNL     1      -9.626  -3.140  -0.501  0.00  0.00    +0.002 A 
ATOM     26  C   UNL     1     -10.206  -4.092  -1.315  0.00  0.00    +0.011 A 
ATOM     27  C   UNL     1      -9.564  -4.493  -2.487  0.00  0.00    +0.017 A 
ATOM     28  C   UNL     1      -8.339  -3.924  -2.835  0.00  0.00    +0.034 A 
BRANCH  27  29
ATOM     29  C   UNL     1     -10.183  -5.513  -3.360  0.00  0.00    +0.116 A 
ATOM     30  N   UNL     1      -9.627  -6.049  -4.446  0.00  0.00    -0.343 N 
ATOM     31  H   UNL     1      -8.749  -5.838  -4.799  0.00  0.00    +0.167 HD
ATOM     32  C   UNL     1     -10.496  -6.937  -4.969  0.00  0.00    +0.033 A 
ATOM     33  C   UNL     1     -11.596  -6.939  -4.187  0.00  0.00    +0.033 A 
ATOM     34  N   UNL     1     -11.388  -6.056  -3.190  0.00  0.00    -0.343 N 
ATOM     35  C   UNL     1     -12.831  -7.779  -4.388  0.00  0.00    +0.065 C 
ATOM     36  C   UNL     1     -10.279  -7.775  -6.202  0.00  0.00    +0.065 C 
ATOM     37  H   UNL     1     -12.009  -5.849  -2.474  0.00  0.00    +0.167 HD
ENDBRANCH  27  29
ENDBRANCH   3  23
TORSDOF 5
