REMARK  Name = ZINC35954620
REMARK  12 active torsions:
REMARK  status: ('A' for Active; 'I' for Inactive)
REMARK    1  A    between atoms: C_1  and  C_2
REMARK    2  A    between atoms: C_2  and  C_3
REMARK    3  A    between atoms: C_3  and  N_4
REMARK    4  A    between atoms: N_4  and  C_5
REMARK    5  A    between atoms: N_4  and  C_13
REMARK    6  A    between atoms: C_5  and  C_6
REMARK    7  A    between atoms: C_6  and  C_7
REMARK    8  A    between atoms: C_13  and  C_14
REMARK    9  A    between atoms: C_15  and  C_33
REMARK   10  A    between atoms: N_17  and  C_26
REMARK   11  A    between atoms: C_18  and  N_19
REMARK   12  A    between atoms: N_22  and  C_25
REMARK                            x       y       z     vdW  Elec       q    Type
REMARK                         _______ _______ _______ _____ _____    ______ ____
ROOT
ATOM      1  C   UNL     1       0.730  -1.947   1.290  0.00  0.00    -0.001 A 
ATOM      2  C   UNL     1       1.843  -2.316   0.529  0.00  0.00    +0.064 A 
ATOM      3  N   UNL     1       2.763  -1.395   0.664  0.00  0.00    -0.170 NA
ATOM      4  N   UNL     1       2.270  -0.399   1.517  0.00  0.00    -0.218 N 
ATOM      5  C   UNL     1       1.010  -0.756   1.889  0.00  0.00    +0.126 A 
ATOM      6  C   UNL     1       1.965  -3.566  -0.304  0.00  0.00    +0.068 C 
ENDROOT
BRANCH   5   7
ATOM      7  N   UNL     1       0.165  -0.038   2.729  0.00  0.00    -0.318 N 
ATOM      8  C   UNL     1      -0.809   0.920   2.184  0.00  0.00    +0.088 C 
ATOM      9  C   UNL     1      -2.183   0.614   2.791  0.00  0.00    -0.060 C 
ATOM     10  N   UNL     1      -2.082   0.620   4.256  0.00  0.00    +0.380 N 
ATOM     11  C   UNL     1      -1.203  -0.468   4.701  0.00  0.00    -0.060 C 
ATOM     12  C   UNL     1       0.215  -0.221   4.188  0.00  0.00    +0.088 C 
ATOM     13  C   UNL     1      -3.418   0.437   4.838  0.00  0.00    -0.096 C 
ATOM     14  H   UNL     1      -1.703   1.504   4.562  0.00  0.00    -0.082 HD
ENDBRANCH   5   7
BRANCH   4  15
ATOM     15  C   UNL     1       2.950   0.761   1.914  0.00  0.00    +0.068 A 
ATOM     16  C   UNL     1       2.283   1.978   1.956  0.00  0.00    +0.030 A 
ATOM     17  C   UNL     1       2.955   3.120   2.346  0.00  0.00    +0.040 A 
ATOM     18  C   UNL     1       4.294   3.051   2.696  0.00  0.00    +0.124 A 
ATOM     19  C   UNL     1       4.961   1.838   2.653  0.00  0.00    +0.040 A 
ATOM     20  C   UNL     1       4.290   0.694   2.269  0.00  0.00    +0.030 A 
ATOM     21  F   UNL     1       4.949   4.169   3.077  0.00  0.00    -0.205 F 
ENDBRANCH   4  15
BRANCH   1  22
ATOM     22  C   UNL     1      -0.554  -2.724   1.418  0.00  0.00    -0.038 C 
BRANCH  22  23
ATOM     23  N   UNL     1      -1.521  -2.242   0.423  0.00  0.00    +0.383 N 
ATOM     24  H   UNL     1      -1.682  -1.255   0.561  0.00  0.00    -0.081 HD
BRANCH  23  25
ATOM     25  C   UNL     1      -2.787  -2.971   0.576  0.00  0.00    -0.079 C 
BRANCH  25  27
ATOM     26  C   UNL     1      -4.663  -3.481   2.144  0.00  0.00    +0.002 C 
ATOM     27  C   UNL     1      -3.417  -2.620   1.925  0.00  0.00    -0.022 C 
ENDBRANCH  25  27
ENDBRANCH  23  25
BRANCH  23  28
ATOM     28  C   UNL     1      -0.987  -2.466  -0.927  0.00  0.00    -0.074 C 
BRANCH  28  29
ATOM     29  C   UNL     1      -1.935  -1.851  -1.959  0.00  0.00    +0.016 C 
BRANCH  29  30
ATOM     30  C   UNL     1      -1.387  -2.081  -3.344  0.00  0.00    -0.049 A 
ATOM     31  C   UNL     1      -0.532  -1.155  -3.912  0.00  0.00    +0.003 A 
ATOM     32  C   UNL     1      -0.029  -1.365  -5.182  0.00  0.00    +0.000 A 
ATOM     33  C   UNL     1      -0.381  -2.503  -5.885  0.00  0.00    +0.000 A 
ATOM     34  C   UNL     1      -1.235  -3.429  -5.317  0.00  0.00    +0.000 A 
ATOM     35  C   UNL     1      -1.734  -3.221  -4.045  0.00  0.00    +0.003 A 
ENDBRANCH  29  30
ENDBRANCH  28  29
ENDBRANCH  23  28
ENDBRANCH  22  23
ENDBRANCH   1  22
TORSDOF 9
