REMARK  Name = ZINC24069214
REMARK  11 active torsions:
REMARK  status: ('A' for Active; 'I' for Inactive)
REMARK    1  A    between atoms: C_1  and  C_2
REMARK    2  A    between atoms: C_2  and  C_3
REMARK    3  A    between atoms: C_8  and  N_9
REMARK    4  A    between atoms: C_10  and  C_12
REMARK    5  A    between atoms: C_12  and  N_13
REMARK    6  A    between atoms: C_19  and  C_21
REMARK    7  A    between atoms: C_21  and  N_22
REMARK    8  A    between atoms: N_22  and  S_23
REMARK    9  A    between atoms: S_23  and  C_26
REMARK   10  A    between atoms: C_27  and  C_28
REMARK   11  A    between atoms: C_31  and  C_34
REMARK                            x       y       z     vdW  Elec       q    Type
REMARK                         _______ _______ _______ _____ _____    ______ ____
ROOT
ATOM      1  N   UNL     1      -1.478   7.233  -4.588  0.00  0.00    +0.387 N 
ATOM      2  C   UNL     1      -1.298   5.949  -5.278  0.00  0.00    -0.059 C 
ATOM      3  C   UNL     1      -2.160   4.881  -4.597  0.00  0.00    +0.089 C 
ATOM      4  N   UNL     1      -1.838   4.866  -3.162  0.00  0.00    -0.304 N 
ATOM      5  C   UNL     1      -1.869   6.141  -2.429  0.00  0.00    +0.089 C 
ATOM      6  C   UNL     1      -1.013   7.160  -3.196  0.00  0.00    -0.059 C 
ATOM      7  C   UNL     1      -1.528   3.715  -2.534  0.00  0.00    +0.231 C 
ATOM      8  O   UNL     1      -1.512   2.672  -3.154  0.00  0.00    -0.274 OA
ATOM      9  H   UNL     1      -2.555   7.455  -4.569  0.00  0.00    -0.081 HD
ENDROOT
BRANCH   1  10
ATOM     10  C   UNL     1      -0.804   8.319  -5.312  0.00  0.00    +0.019 C 
BRANCH  10  12
ATOM     11  N   UNL     1       1.518   9.011  -5.811  0.00  0.00    -0.287 N 
ATOM     12  C   UNL     1       0.684   8.084  -5.298  0.00  0.00    +0.201 C 
ATOM     13  O   UNL     1       1.132   7.060  -4.826  0.00  0.00    -0.278 OA
ATOM     14  H   UNL     1       1.118   9.969  -6.173  0.00  0.00    +0.155 HD
BRANCH  11  20
ATOM     15  C   UNL     1       3.643   9.271  -6.928  0.00  0.00    -0.026 A 
ATOM     16  C   UNL     1       4.999   9.016  -6.995  0.00  0.00    +0.005 A 
ATOM     17  C   UNL     1       5.608   8.246  -6.021  0.00  0.00    +0.000 A 
ATOM     18  C   UNL     1       4.862   7.730  -4.977  0.00  0.00    +0.002 A 
ATOM     19  C   UNL     1       3.507   7.986  -4.902  0.00  0.00    +0.023 A 
ATOM     20  C   UNL     1       2.892   8.754  -5.881  0.00  0.00    +0.036 A 
BRANCH  15  22
ATOM     21  C   UNL     1       2.907  11.565  -7.518  0.00  0.00    +0.009 C 
ATOM     22  C   UNL     1       2.981  10.111  -7.989  0.00  0.00    +0.033 C 
ENDBRANCH  15  22
ENDBRANCH  11  20
ENDBRANCH  10  12
ENDBRANCH   1  10
BRANCH   7  23
ATOM     23  C   UNL     1      -1.202   3.722  -1.063  0.00  0.00    +0.201 C 
BRANCH  23  24
ATOM     24  N   UNL     1      -0.902   2.358  -0.623  0.00  0.00    -0.182 NA
ATOM     25  H   UNL     1      -1.314   1.499  -1.173  0.00  0.00    +0.149 HD
BRANCH  24  26
ATOM     26  S   UNL     1      -0.156   2.103   0.834  0.00  0.00    +0.052 S 
ATOM     27  O   UNL     1      -0.029   0.696   0.985  0.00  0.00    -0.154 OA
ATOM     28  O   UNL     1       0.964   2.977   0.875  0.00  0.00    -0.154 OA
BRANCH  26  29
ATOM     29  C   UNL     1      -1.265   2.647   2.090  0.00  0.00    +0.153 C 
ATOM     30  C   UNL     1      -1.774   1.774   2.948  0.00  0.00    +0.028 C 
BRANCH  30  31
ATOM     31  C   UNL     1      -2.705   2.230   4.002  0.00  0.00    -0.024 A 
ATOM     32  C   UNL     1      -3.045   3.580   4.100  0.00  0.00    +0.008 A 
ATOM     33  C   UNL     1      -3.919   3.998   5.082  0.00  0.00    +0.004 A 
ATOM     34  C   UNL     1      -4.449   3.085   5.976  0.00  0.00    -0.050 A 
ATOM     35  C   UNL     1      -4.110   1.746   5.888  0.00  0.00    +0.004 A 
ATOM     36  C   UNL     1      -3.242   1.314   4.907  0.00  0.00    +0.008 A 
ATOM     37  C   UNL     1      -5.398   3.550   7.050  0.00  0.00    +0.044 C 
ENDBRANCH  30  31
ENDBRANCH  26  29
ENDBRANCH  24  26
ENDBRANCH  23  24
ENDBRANCH   7  23
TORSDOF 9
