REMARK  Name = ZINC04730645
REMARK  8 active torsions:
REMARK  status: ('A' for Active; 'I' for Inactive)
REMARK    1  A    between atoms: C_1  and  C_2
REMARK    2  A    between atoms: C_3  and  C_27
REMARK    3  A    between atoms: C_4  and  C_22
REMARK    4  A    between atoms: C_6  and  C_20
REMARK    5  A    between atoms: C_7  and  S_9
REMARK    6  A    between atoms: S_9  and  C_10
REMARK    7  A    between atoms: C_10  and  C_11
REMARK    8  A    between atoms: N_13  and  C_14
REMARK                            x       y       z     vdW  Elec       q    Type
REMARK                         _______ _______ _______ _____ _____    ______ ____
ROOT
ATOM      1  C   UNL     1      -4.520   5.518  -0.603  0.00  0.00    +0.061 C 
ATOM      2  C   UNL     1      -4.855   4.059  -0.434  0.00  0.00    +0.014 C 
ATOM      3  C   UNL     1      -6.125   3.651  -0.583  0.00  0.00    +0.044 C 
ATOM      4  C   UNL     1      -6.517   2.211  -0.416  0.00  0.00    +0.105 C 
ATOM      5  C   UNL     1      -5.309   1.319  -0.476  0.00  0.00    +0.069 C 
ATOM      6  C   UNL     1      -4.054   1.821  -0.325  0.00  0.00    +0.080 C 
ATOM      7  N   UNL     1      -3.860   3.170  -0.131  0.00  0.00    -0.312 N 
ATOM      8  H   UNL     1      -2.901   3.533   0.269  0.00  0.00    +0.152 HD
ENDROOT
BRANCH   4   9
ATOM      9  C   UNL     1      -7.204   2.035   0.914  0.00  0.00    +0.002 A 
ATOM     10  C   UNL     1      -8.461   1.601   1.174  0.00  0.00    +0.012 A 
ATOM     11  C   UNL     1      -8.882   1.514   2.488  0.00  0.00    +0.008 A 
ATOM     12  C   UNL     1      -8.028   1.877   3.477  0.00  0.00    +0.045 A 
ATOM     13  S   UNL     1      -6.575   2.351   2.554  0.00  0.00    -0.101 S 
ENDBRANCH   4   9
BRANCH   3  14
ATOM     14  C   UNL     1      -7.122   4.604  -0.905  0.00  0.00    +0.240 C 
ATOM     15  O   UNL     1      -6.822   5.776  -1.044  0.00  0.00    -0.271 OA
ATOM     16  N   UNL     1      -8.403   4.213  -1.059  0.00  0.00    -0.326 N 
ATOM     17  H   UNL     1      -9.177   4.953  -1.309  0.00  0.00    +0.145 HD
ATOM     18  H   UNL     1      -8.674   3.155  -0.934  0.00  0.00    +0.145 HD
ENDBRANCH   3  14
BRANCH   5  19
ATOM     19  C   UNL     1      -5.483  -0.086  -0.691  0.00  0.00    +0.098 C 
ATOM     20  N   UNL     1      -5.621  -1.200  -0.862  0.00  0.00    -0.191 NA
ENDBRANCH   5  19
BRANCH   6  21
ATOM     21  S   UNL     1      -2.666   0.737  -0.386  0.00  0.00    -0.100 S 
BRANCH  21  22
ATOM     22  C   UNL     1      -1.326   1.929  -0.142  0.00  0.00    +0.171 C 
BRANCH  22  23
ATOM     23  C   UNL     1      -0.003   1.208  -0.157  0.00  0.00    +0.227 C 
ATOM     24  O   UNL     1       0.031   0.006  -0.318  0.00  0.00    -0.275 OA
ATOM     25  N   UNL     1       1.143   1.898   0.001  0.00  0.00    -0.285 N 
ATOM     26  H   UNL     1       1.120   2.997   0.060  0.00  0.00    +0.155 HD
BRANCH  25  27
ATOM     27  C   UNL     1       2.363   1.219   0.092  0.00  0.00    +0.033 A 
ATOM     28  C   UNL     1       2.421  -0.031   0.696  0.00  0.00    +0.023 A 
ATOM     29  C   UNL     1       3.625  -0.701   0.778  0.00  0.00    +0.002 A 
ATOM     30  C   UNL     1       4.775  -0.125   0.271  0.00  0.00    +0.000 A 
ATOM     31  C   UNL     1       4.722   1.121  -0.327  0.00  0.00    +0.002 A 
ATOM     32  C   UNL     1       3.520   1.794  -0.417  0.00  0.00    +0.023 A 
ENDBRANCH  25  27
ENDBRANCH  22  23
ENDBRANCH  21  22
ENDBRANCH   6  21
TORSDOF 7
