REMARK  Name = ZINC08952004
REMARK  12 active torsions:
REMARK  status: ('A' for Active; 'I' for Inactive)
REMARK    1  A    between atoms: C_1  and  C_2
REMARK    2  A    between atoms: C_3  and  C_37
REMARK    3  A    between atoms: N_6  and  C_30
REMARK    4  A    between atoms: C_7  and  N_80
REMARK    5  A    between atoms: C_9  and  C_10
REMARK    6  A    between atoms: C_9  and  N_80
REMARK    7  A    between atoms: C_10  and  C_29
REMARK    8  A    between atoms: C_14  and  C_28
REMARK    9  A    between atoms: C_23  and  C_25
REMARK   10  A    between atoms: C_25  and  C_26
REMARK   11  A    between atoms: C_25  and  C_27
REMARK   12  A    between atoms: C_30  and  C_31
REMARK                            x       y       z     vdW  Elec       q    Type
REMARK                         _______ _______ _______ _____ _____    ______ ____
ROOT
ATOM      1  C   UNL     1      -0.539   1.467  -0.954  0.00  0.00    -0.044 C 
ATOM      2  C   UNL     1      -1.983   0.966  -0.881  0.00  0.00    +0.005 C 
ATOM      3  C   UNL     1      -2.116  -0.469  -1.373  0.00  0.00    +0.001 C 
ATOM      4  C   UNL     1      -1.610  -0.582  -2.812  0.00  0.00    +0.011 C 
ATOM      5  C   UNL     1      -0.135  -0.197  -2.866  0.00  0.00    -0.004 C 
ATOM      6  C   UNL     1       0.075   1.200  -2.310  0.00  0.00    +0.004 C 
ATOM      7  C   UNL     1       1.559   1.556  -2.385  0.00  0.00    +0.009 C 
ATOM      8  C   UNL     1       1.933   1.733  -3.857  0.00  0.00    +0.036 C 
ATOM      9  C   UNL     1       1.307   0.684  -4.735  0.00  0.00    -0.043 A 
ATOM     10  C   UNL     1       0.353  -0.209  -4.300  0.00  0.00    -0.038 A 
ATOM     11  C   UNL     1      -0.177  -1.146  -5.171  0.00  0.00    +0.005 A 
ATOM     12  C   UNL     1       0.246  -1.195  -6.486  0.00  0.00    +0.004 A 
ATOM     13  C   UNL     1       1.202  -0.301  -6.929  0.00  0.00    -0.045 A 
ATOM     14  C   UNL     1       1.728   0.631  -6.060  0.00  0.00    +0.007 A 
ATOM     15  C   UNL     1       0.679  -1.251  -2.117  0.00  0.00    +0.016 C 
ATOM     16  C   UNL     1      -0.590   2.999  -0.738  0.00  0.00    +0.009 C 
ENDROOT
BRANCH  13  17
ATOM     17  C   UNL     1       1.670  -0.347  -8.362  0.00  0.00    +0.013 C 
ATOM     18  C   UNL     1       2.281  -1.718  -8.656  0.00  0.00    +0.012 C 
ATOM     19  C   UNL     1       0.480  -0.108  -9.294  0.00  0.00    +0.012 C 
ENDBRANCH  13  17
BRANCH   1  20
ATOM     20  C   UNL     1       0.281   0.874   0.191  0.00  0.00    -0.073 C 
BRANCH  20  21
ATOM     21  N   UNL     1      -0.309   1.294   1.476  0.00  0.00    +0.394 N 
ATOM     22  H   UNL     1      -0.391   2.318   1.493  0.00  0.00    -0.083 HD
ATOM     23  H   UNL     1      -1.241   0.875   1.574  0.00  0.00    -0.083 HD
BRANCH  21  30
ATOM     24  C   UNL     1       1.234   3.335   3.398  0.00  0.00    +0.039 C 
ATOM     25  C   UNL     1       0.654   1.962   3.622  0.00  0.00    -0.062 C 
ATOM     26  C   UNL     1       0.144   1.492   4.758  0.00  0.00    +0.010 C 
ATOM     27  C   UNL     1      -0.314   0.112   4.564  0.00  0.00    +0.241 C 
ATOM     28  O   UNL     1      -0.824  -0.580   5.423  0.00  0.00    -0.270 OA
ATOM     29  N   UNL     1      -0.085  -0.275   3.295  0.00  0.00    -0.305 N 
ATOM     30  C   UNL     1       0.542   0.856   2.598  0.00  0.00    +0.046 C 
ATOM     31  C   UNL     1       0.051   2.263   6.049  0.00  0.00    +0.049 C 
BRANCH  29  32
ATOM     32  C   UNL     1      -0.402  -1.583   2.716  0.00  0.00    +0.138 C 
BRANCH  32  33
ATOM     33  C   UNL     1       0.790  -2.524   2.899  0.00  0.00    +0.136 C 
ATOM     34  C   UNL     1       0.528  -3.869   2.187  0.00  0.00    +0.035 C 
ATOM     35  C   UNL     1       1.158  -4.921   3.127  0.00  0.00    +0.031 C 
ATOM     36  C   UNL     1       1.726  -4.087   4.296  0.00  0.00    +0.160 C 
ATOM     37  O   UNL     1       0.950  -2.869   4.292  0.00  0.00    -0.375 OA
ENDBRANCH  32  33
ENDBRANCH  29  32
ENDBRANCH  21  30
ENDBRANCH  20  21
ENDBRANCH   1  20
TORSDOF 6
