REMARK  Name = ZINC65315786
REMARK  13 active torsions:
REMARK  status: ('A' for Active; 'I' for Inactive)
REMARK    1  A    between atoms: C_1  and  C_2
REMARK    2  A    between atoms: C_2  and  N_3
REMARK    3  A    between atoms: N_3  and  C_4
REMARK    4  A    between atoms: N_3  and  C_6
REMARK    5  A    between atoms: C_4  and  C_5
REMARK    6  A    between atoms: C_6  and  C_7
REMARK    7  A    between atoms: C_7  and  C_8
REMARK    8  A    between atoms: C_8  and  N_9
REMARK    9  A    between atoms: N_9  and  C_10
REMARK   10  A    between atoms: N_9  and  C_20
REMARK   11  A    between atoms: C_10  and  C_11
REMARK   12  A    between atoms: C_20  and  N_22
REMARK   13  A    between atoms: N_22  and  C_23
REMARK                            x       y       z     vdW  Elec       q    Type
REMARK                         _______ _______ _______ _____ _____    ______ ____
ROOT
ATOM      1  N   UNL     1      -2.942  -3.779  -2.125  0.00  0.00    -0.308 N 
ENDROOT
BRANCH   1   2
ATOM      2  C   UNL     1      -3.872  -4.110  -1.208  0.00  0.00    +0.137 C 
ATOM      3  S   UNL     1      -5.528  -4.148  -1.642  0.00  0.00    -0.018 S 
BRANCH   2   4
ATOM      4  N   UNL     1      -3.499  -4.412   0.052  0.00  0.00    -0.297 N 
ATOM      5  H   UNL     1      -2.569  -4.327   0.316  0.00  0.00    +0.154 HD
BRANCH   4   6
ATOM      6  C   UNL     1      -4.452  -4.847   0.979  0.00  0.00    +0.034 A 
ATOM      7  C   UNL     1      -4.180  -5.937   1.797  0.00  0.00    +0.023 A 
ATOM      8  C   UNL     1      -5.122  -6.365   2.711  0.00  0.00    +0.003 A 
ATOM      9  C   UNL     1      -6.336  -5.710   2.813  0.00  0.00    +0.020 A 
ATOM     10  C   UNL     1      -6.611  -4.625   2.000  0.00  0.00    +0.043 A 
ATOM     11  C   UNL     1      -5.669  -4.188   1.087  0.00  0.00    +0.043 A 
ATOM     12 CL   UNL     1      -8.136  -3.807   2.130  0.00  0.00    -0.083 Cl
ENDBRANCH   4   6
ENDBRANCH   2   4
ENDBRANCH   1   2
BRANCH   1  13
ATOM     13  C   UNL     1      -1.519  -3.848  -1.784  0.00  0.00    +0.105 C 
BRANCH  13  14
ATOM     14  C   UNL     1      -1.065  -2.503  -1.213  0.00  0.00    +0.000 C 
BRANCH  14  15
ATOM     15  C   UNL     1       0.421  -2.576  -0.857  0.00  0.00    -0.077 C 
BRANCH  15  16
ATOM     16  N   UNL     1       0.857  -1.285  -0.308  0.00  0.00    +0.379 N 
ATOM     17  H   UNL     1       0.635  -0.550  -0.962  0.00  0.00    -0.082 HD
BRANCH  16  19
ATOM     18  C   UNL     1       0.533   0.359   1.478  0.00  0.00    -0.017 C 
ATOM     19  C   UNL     1       0.164  -1.034   0.963  0.00  0.00    -0.082 C 
ENDBRANCH  16  19
BRANCH  16  20
ATOM     20  C   UNL     1       2.307  -1.315  -0.078  0.00  0.00    -0.082 C 
ATOM     21  C   UNL     1       3.033  -1.461  -1.417  0.00  0.00    -0.017 C 
ENDBRANCH  16  20
ENDBRANCH  15  16
ENDBRANCH  14  15
ENDBRANCH  13  14
ENDBRANCH   1  13
BRANCH   1  22
ATOM     22  C   UNL     1      -3.355  -3.349  -3.463  0.00  0.00    +0.140 C 
BRANCH  22  23
ATOM     23  C   UNL     1      -3.472  -4.551  -4.364  0.00  0.00    -0.024 C 
ATOM     24  C   UNL     1      -2.536  -5.021  -5.220  0.00  0.00    +0.000 A 
ATOM     25  C   UNL     1      -1.181  -4.569  -5.556  0.00  0.00    +0.010 A 
ATOM     26  C   UNL     1      -0.468  -5.260  -6.475  0.00  0.00    +0.001 A 
ATOM     27  C   UNL     1      -0.990  -6.394  -7.112  0.00  0.00    +0.002 A 
ATOM     28  C   UNL     1      -2.227  -6.870  -6.855  0.00  0.00    +0.026 A 
ATOM     29  C   UNL     1      -3.064  -6.221  -5.906  0.00  0.00    +0.043 A 
ATOM     30  N   UNL     1      -4.279  -6.484  -5.491  0.00  0.00    -0.380 N 
ATOM     31  C   UNL     1      -4.658  -5.482  -4.488  0.00  0.00    +0.146 C 
ATOM     32  H   UNL     1      -4.834  -7.220  -5.793  0.00  0.00    +0.160 HD
ENDBRANCH  22  23
ENDBRANCH   1  22
TORSDOF 11
