REMARK  Name = ZINC24797706
REMARK  12 active torsions:
REMARK  status: ('A' for Active; 'I' for Inactive)
REMARK    1  A    between atoms: C_1  and  C_2
REMARK    2  A    between atoms: C_2  and  C_3
REMARK    3  A    between atoms: C_3  and  N_4
REMARK    4  A    between atoms: N_4  and  C_5
REMARK    5  A    between atoms: N_4  and  C_18
REMARK    6  A    between atoms: C_5  and  C_6
REMARK    7  A    between atoms: N_8  and  C_9
REMARK    8  A    between atoms: C_18  and  C_19
REMARK    9  A    between atoms: N_21  and  N_22
REMARK   10  A    between atoms: C_25  and  C_29
REMARK   11  A    between atoms: C_25  and  C_30
REMARK   12  A    between atoms: C_30  and  C_31
REMARK                            x       y       z     vdW  Elec       q    Type
REMARK                         _______ _______ _______ _____ _____    ______ ____
ROOT
ATOM      1  N   UNL     1       0.465   1.907   0.289  0.00  0.00    +0.391 N 
ATOM      2  H   UNL     1       0.131   2.086   1.322  0.00  0.00    -0.080 HD
ENDROOT
BRANCH   1   3
ATOM      3  C   UNL     1       0.664   0.461   0.123  0.00  0.00    -0.078 C 
BRANCH   3   5
ATOM      4  C   UNL     1       1.428  -1.325  -1.449  0.00  0.00    +0.002 C 
ATOM      5  C   UNL     1       1.275   0.185  -1.253  0.00  0.00    -0.022 C 
ENDBRANCH   3   5
ENDBRANCH   1   3
BRANCH   1   6
ATOM      6  C   UNL     1      -0.581   2.402  -0.616  0.00  0.00    +0.020 C 
BRANCH   6   7
ATOM      7  C   UNL     1      -1.934   2.003  -0.085  0.00  0.00    +0.201 C 
ATOM      8  O   UNL     1      -2.020   1.403   0.966  0.00  0.00    -0.278 OA
ATOM      9  N   UNL     1      -3.048   2.314  -0.777  0.00  0.00    -0.285 N 
ATOM     10  H   UNL     1      -2.966   2.767  -1.776  0.00  0.00    +0.155 HD
BRANCH   9  11
ATOM     11  C   UNL     1      -4.310   2.059  -0.224  0.00  0.00    +0.072 A 
ATOM     12  C   UNL     1      -4.442   1.856   1.143  0.00  0.00    +0.029 A 
ATOM     13  C   UNL     1      -5.688   1.609   1.688  0.00  0.00    +0.043 A 
ATOM     14  C   UNL     1      -6.804   1.555   0.872  0.00  0.00    +0.161 A 
ATOM     15  C   UNL     1      -6.677   1.752  -0.495  0.00  0.00    +0.195 A 
ATOM     16  C   UNL     1      -5.431   2.005  -1.044  0.00  0.00    +0.182 A 
ATOM     17  F   UNL     1      -5.305   2.197  -2.376  0.00  0.00    -0.200 F 
ATOM     18  F   UNL     1      -7.768   1.698  -1.290  0.00  0.00    -0.199 F 
ATOM     19  F   UNL     1      -8.020   1.309   1.407  0.00  0.00    -0.202 F 
ENDBRANCH   9  11
ENDBRANCH   6   7
ENDBRANCH   1   6
BRANCH   1  20
ATOM     20  C   UNL     1       1.724   2.638   0.088  0.00  0.00    +0.021 C 
BRANCH  20  21
ATOM     21  C   UNL     1       2.692   2.281   1.186  0.00  0.00    +0.213 C 
ATOM     22  O   UNL     1       2.367   1.495   2.050  0.00  0.00    -0.276 OA
ATOM     23  N   UNL     1       3.921   2.835   1.207  0.00  0.00    -0.225 N 
ATOM     24  H   UNL     1       4.216   3.548   0.423  0.00  0.00    +0.173 HD
BRANCH  23  25
ATOM     25  N   UNL     1       4.822   2.503   2.227  0.00  0.00    -0.137 N 
ATOM     26  C   UNL     1       5.132   3.315   3.257  0.00  0.00    +0.263 C 
ATOM     27  O   UNL     1       4.701   4.429   3.467  0.00  0.00    -0.271 OA
ATOM     28  C   UNL     1       6.131   2.546   4.098  0.00  0.00    +0.111 C 
ATOM     29  N   UNL     1       6.288   1.274   3.373  0.00  0.00    -0.284 N 
ATOM     30  C   UNL     1       5.484   1.343   2.297  0.00  0.00    +0.326 C 
ATOM     31  O   UNL     1       5.373   0.451   1.478  0.00  0.00    -0.251 OA
ATOM     32  C   UNL     1       7.463   3.296   4.164  0.00  0.00    +0.041 C 
ATOM     33  H   UNL     1       6.970   0.502   3.759  0.00  0.00    +0.151 HD
BRANCH  28  34
ATOM     34  C   UNL     1       5.584   2.300   5.506  0.00  0.00    +0.032 C 
ATOM     35  C   UNL     1       6.570   1.435   6.293  0.00  0.00    +0.006 C 
ENDBRANCH  28  34
ENDBRANCH  23  25
ENDBRANCH  20  21
ENDBRANCH   1  20
TORSDOF 9
