REMARK  Name = ZINC43287404
REMARK  13 active torsions:
REMARK  status: ('A' for Active; 'I' for Inactive)
REMARK    1  A    between atoms: C_1  and  C_2
REMARK    2  A    between atoms: C_2  and  C_3
REMARK    3  A    between atoms: C_3  and  C_5
REMARK    4  A    between atoms: C_3  and  N_21
REMARK    5  A    between atoms: C_5  and  C_7
REMARK    6  A    between atoms: C_5  and  N_13
REMARK    7  A    between atoms: N_13  and  C_14
REMARK    8  A    between atoms: N_13  and  C_18
REMARK    9  A    between atoms: C_14  and  C_15
REMARK   10  A    between atoms: C_15  and  C_16
REMARK   11  A    between atoms: C_16  and  O_17
REMARK   12  A    between atoms: C_18  and  C_19
REMARK   13  A    between atoms: C_18  and  C_20
REMARK                            x       y       z     vdW  Elec       q    Type
REMARK                         _______ _______ _______ _____ _____    ______ ____
ROOT
ATOM      1  C   UNL     1       0.244  -2.428  -1.069  0.00  0.00    +0.079 C 
ENDROOT
BRANCH   1   2
ATOM      2  C   UNL     1       0.863  -3.140  -2.245  0.00  0.00    +0.006 A 
ATOM      3  C   UNL     1       0.255  -3.820  -3.248  0.00  0.00    +0.028 A 
ATOM      4  C   UNL     1       1.033  -4.399  -4.233  0.00  0.00    +0.025 A 
ATOM      5  C   UNL     1       2.381  -4.270  -4.166  0.00  0.00    +0.060 A 
ATOM      6  S   UNL     1       2.587  -3.299  -2.682  0.00  0.00    -0.099 S 
ATOM      7 BR   UNL     1       0.230  -5.358  -5.651  0.00  0.00    -0.050 Br
ENDBRANCH   1   2
BRANCH   1   8
ATOM      8  C   UNL     1       0.408  -0.917  -1.244  0.00  0.00    -0.053 C 
BRANCH   8   9
ATOM      9  N   UNL     1      -0.120  -0.515  -2.554  0.00  0.00    +0.381 N 
ATOM     10  H   UNL     1      -0.012   0.482  -2.669  0.00  0.00    -0.090 HD
ATOM     11  H   UNL     1       0.386  -0.995  -3.283  0.00  0.00    -0.090 HD
ATOM     12  H   UNL     1      -1.099  -0.755  -2.610  0.00  0.00    -0.090 HD
ENDBRANCH   8   9
BRANCH   8  14
ATOM     13  C   UNL     1      -0.150   1.319  -0.280  0.00  0.00    +0.002 C 
ATOM     14  C   UNL     1      -0.360  -0.190  -0.139  0.00  0.00    -0.018 C 
ENDBRANCH   8  14
ENDBRANCH   1   8
BRANCH   1  15
ATOM     15  N   UNL     1       0.912  -2.854   0.168  0.00  0.00    -0.294 NA
BRANCH  15  16
ATOM     16  C   UNL     1       1.975  -1.913   0.543  0.00  0.00    +0.051 C 
ATOM     17  C   UNL     1       2.450  -2.220   1.965  0.00  0.00    +0.024 C 
ATOM     18  C   UNL     1       3.148  -2.055  -0.428  0.00  0.00    +0.024 C 
ENDBRANCH  15  16
BRANCH  15  19
ATOM     19  C   UNL     1       1.438  -4.219   0.039  0.00  0.00    +0.087 C 
BRANCH  19  20
ATOM     20  C   UNL     1       0.275  -5.204  -0.097  0.00  0.00    +0.043 C 
BRANCH  20  21
ATOM     21  C   UNL     1       0.817  -6.635  -0.104  0.00  0.00    +0.157 C 
BRANCH  21  22
ATOM     22  O   UNL     1      -0.270  -7.555  -0.231  0.00  0.00    -0.395 OA
ATOM     23  H   UNL     1       0.000  -8.483  -0.242  0.00  0.00    +0.209 HD
ENDBRANCH  21  22
ENDBRANCH  20  21
ENDBRANCH  19  20
ENDBRANCH  15  19
ENDBRANCH   1  15
TORSDOF 10
