REMARK  Name = ZINC12421958
REMARK  6 active torsions:
REMARK  status: ('A' for Active; 'I' for Inactive)
REMARK    1  A    between atoms: N_6  and  C_11
REMARK    2  A    between atoms: C_11  and  C_12
REMARK    3  A    between atoms: C_12  and  C_14
REMARK    4  A    between atoms: C_12  and  O_20
REMARK    5  A    between atoms: C_14  and  N_50
REMARK    6  A    between atoms: C_15  and  N_50
REMARK                            x       y       z     vdW  Elec       q    Type
REMARK                         _______ _______ _______ _____ _____    ______ ____
ROOT
ATOM      1  C   UNL     1      -0.417   1.148  -0.555  0.00  0.00    +0.002 A 
ATOM      2  C   UNL     1      -0.801   1.910  -1.631  0.00  0.00    +0.010 A 
ATOM      3  C   UNL     1      -1.035   3.268  -1.393  0.00  0.00    +0.005 A 
ATOM      4  C   UNL     1      -1.442   4.359  -2.253  0.00  0.00    -0.019 A 
ATOM      5  C   UNL     1      -1.512   5.467  -1.483  0.00  0.00    +0.023 A 
ATOM      6  N   UNL     1      -1.179   5.155  -0.191  0.00  0.00    -0.340 N 
ATOM      7  C   UNL     1      -0.882   3.825  -0.098  0.00  0.00    +0.068 A 
ATOM      8  C   UNL     1      -0.491   3.028   0.976  0.00  0.00    +0.065 A 
ATOM      9  C   UNL     1      -0.265   1.687   0.712  0.00  0.00    +0.022 A 
ATOM     10 CL   UNL     1      -0.297   3.684   2.571  0.00  0.00    -0.081 Cl
ATOM     11  C   UNL     1      -1.902   6.829  -2.006  0.00  0.00    +0.054 C 
ATOM     12  C   UNL     1      -1.778   6.821  -3.533  0.00  0.00    +0.006 C 
ATOM     13  C   UNL     1      -2.514   5.603  -4.098  0.00  0.00    +0.005 C 
ATOM     14  C   UNL     1      -1.744   4.329  -3.730  0.00  0.00    +0.037 C 
ENDROOT
BRANCH   6  15
ATOM     15  C   UNL     1      -1.148   6.105   0.924  0.00  0.00    +0.151 C 
BRANCH  15  16
ATOM     16  C   UNL     1       0.280   6.622   1.113  0.00  0.00    +0.117 C 
BRANCH  16  17
ATOM     17  O   UNL     1       0.667   7.382  -0.034  0.00  0.00    -0.392 OA
ATOM     18  H   UNL     1       0.154   8.192  -0.161  0.00  0.00    +0.210 HD
ENDBRANCH  16  17
BRANCH  16  19
ATOM     19  C   UNL     1       0.340   7.511   2.357  0.00  0.00    -0.049 C 
BRANCH  19  20
ATOM     20  N   UNL     1       1.718   8.005   2.532  0.00  0.00    +0.383 N 
ATOM     21  H   UNL     1       1.992   8.546   1.704  0.00  0.00    -0.085 HD
ATOM     22  H   UNL     1       2.353   7.205   2.644  0.00  0.00    -0.085 HD
BRANCH  20  23
ATOM     23  C   UNL     1       1.806   8.866   3.727  0.00  0.00    -0.072 C 
ATOM     24  C   UNL     1       1.475  10.325   3.352  0.00  0.00    -0.016 C 
ATOM     25  C   UNL     1       2.445  11.169   4.216  0.00  0.00    -0.002 C 
ATOM     26  C   UNL     1       3.744  10.325   4.194  0.00  0.00    -0.002 C 
ATOM     27  C   UNL     1       3.248   8.866   4.262  0.00  0.00    -0.016 C 
ENDBRANCH  20  23
ENDBRANCH  19  20
ENDBRANCH  16  19
ENDBRANCH  15  16
ENDBRANCH   6  15
TORSDOF 6
