REMARK  Name = ZINC09034097
REMARK  5 active torsions:
REMARK  status: ('A' for Active; 'I' for Inactive)
REMARK    1  A    between atoms: C_1  and  O_2
REMARK    2  A    between atoms: O_2  and  C_3
REMARK    3  A    between atoms: C_6  and  C_9
REMARK    4  A    between atoms: N_10  and  N_11
REMARK    5  A    between atoms: C_12  and  C_30
REMARK                            x       y       z     vdW  Elec       q    Type
REMARK                         _______ _______ _______ _____ _____    ______ ____
ROOT
ATOM      1  N   UNL     1      -4.856   3.895   0.067  0.00  0.00    -0.204 N 
ATOM      2  C   UNL     1      -6.197   3.267   0.071  0.00  0.00    +0.080 C 
ATOM      3  C   UNL     1      -8.486   4.215  -0.108  0.00  0.00    -0.020 C 
ATOM      4  C   UNL     1      -9.131   5.521  -0.531  0.00  0.00    +0.004 A 
ATOM      5  C   UNL     1      -8.423   6.641  -0.811  0.00  0.00    -0.022 A 
ATOM      6  C   UNL     1      -9.370   7.657  -1.210  0.00  0.00    +0.003 A 
ATOM      7  C   UNL     1      -9.225   8.988  -1.614  0.00  0.00    +0.010 A 
ATOM      8  C   UNL     1     -10.373   9.671  -1.927  0.00  0.00    +0.001 A 
ATOM      9  C   UNL     1     -11.625   9.082  -1.849  0.00  0.00    +0.002 A 
ATOM     10  C   UNL     1     -11.799   7.768  -1.452  0.00  0.00    +0.026 A 
ATOM     11  C   UNL     1     -10.650   7.049  -1.128  0.00  0.00    +0.047 A 
ATOM     12  N   UNL     1     -10.465   5.761  -0.711  0.00  0.00    -0.359 N 
ATOM     13  H   UNL     1     -11.173   5.115  -0.564  0.00  0.00    +0.166 HD
ATOM     14  C   UNL     1      -6.915   6.731  -0.699  0.00  0.00    +0.031 C 
ATOM     15  C   UNL     1      -6.482   5.530   0.140  0.00  0.00    +0.029 C 
ATOM     16  C   UNL     1      -5.004   5.247   0.076  0.00  0.00    +0.221 C 
ATOM     17  O   UNL     1      -4.114   6.069   0.038  0.00  0.00    -0.276 OA
ATOM     18  N   UNL     1      -7.021   4.342  -0.462  0.00  0.00    +0.408 N 
ATOM     19  H   UNL     1      -6.928   4.378  -1.484  0.00  0.00    -0.077 HD
ENDROOT
BRANCH   2  20
ATOM     20  C   UNL     1      -6.211   2.040  -0.804  0.00  0.00    -0.042 A 
ATOM     21  C   UNL     1      -6.022   2.162  -2.168  0.00  0.00    +0.004 A 
ATOM     22  C   UNL     1      -6.029   1.037  -2.970  0.00  0.00    +0.015 A 
ATOM     23  C   UNL     1      -6.237  -0.211  -2.410  0.00  0.00    +0.018 A 
ATOM     24  C   UNL     1      -6.431  -0.332  -1.046  0.00  0.00    +0.015 A 
ATOM     25  C   UNL     1      -6.418   0.793  -0.243  0.00  0.00    +0.004 A 
ATOM     26 BR   UNL     1      -6.255  -1.750  -3.509  0.00  0.00    -0.050 Br
ENDBRANCH   2  20
BRANCH   1  28
ATOM     27  C   UNL     1      -2.519   3.871   0.042  0.00  0.00    +0.138 C 
ATOM     28  N   UNL     1      -3.635   3.209   0.050  0.00  0.00    -0.186 NA
BRANCH  27  32
ATOM     29  C   UNL     1       1.183   1.791  -0.008  0.00  0.00    +0.120 A 
ATOM     30  C   UNL     1      -0.011   1.081   0.001  0.00  0.00    +0.046 A 
ATOM     31  C   UNL     1      -1.215   1.751   0.012  0.00  0.00    +0.013 A 
ATOM     32  C   UNL     1      -1.233   3.149   0.025  0.00  0.00    -0.005 A 
ATOM     33  C   UNL     1      -0.030   3.860   0.016  0.00  0.00    +0.013 A 
ATOM     34  C   UNL     1       1.169   3.180   0.000  0.00  0.00    +0.046 A 
BRANCH  29  36
ATOM     35  C   UNL     1       3.556   1.919  -0.033  0.00  0.00    +0.277 C 
ATOM     36  O   UNL     1       2.367   1.126  -0.024  0.00  0.00    -0.495 OA
ENDBRANCH  29  36
ENDBRANCH  27  32
ENDBRANCH   1  28
TORSDOF 4
