REMARK  Name = ZINC43632463
REMARK  9 active torsions:
REMARK  status: ('A' for Active; 'I' for Inactive)
REMARK    1  A    between atoms: C_1  and  O_2
REMARK    2  A    between atoms: O_2  and  C_3
REMARK    3  A    between atoms: C_6  and  O_24
REMARK    4  A    between atoms: C_7  and  C_9
REMARK    5  A    between atoms: N_11  and  C_12
REMARK    6  A    between atoms: C_12  and  C_13
REMARK    7  A    between atoms: C_13  and  C_14
REMARK    8  A    between atoms: O_24  and  C_25
REMARK    9  A    between atoms: N_28  and  C_31
REMARK                            x       y       z     vdW  Elec       q    Type
REMARK                         _______ _______ _______ _____ _____    ______ ____
ROOT
ATOM      1  C   UNL     1       0.596  -0.609  -1.062  0.00  0.00    +0.121 A 
ATOM      2  C   UNL     1       0.970   0.144  -2.168  0.00  0.00    +0.049 A 
ATOM      3  C   UNL     1       1.589  -0.459  -3.244  0.00  0.00    +0.050 A 
ATOM      4  C   UNL     1       1.842  -1.822  -3.229  0.00  0.00    +0.133 A 
ATOM      5  C   UNL     1       1.468  -2.587  -2.116  0.00  0.00    +0.082 A 
ATOM      6  C   UNL     1       0.847  -1.968  -1.028  0.00  0.00    +0.062 A 
ENDROOT
BRANCH   5   7
ATOM      7  C   UNL     1       1.734  -4.038  -2.091  0.00  0.00    +0.248 C 
ATOM      8  O   UNL     1       2.279  -4.573  -3.037  0.00  0.00    -0.270 OA
ATOM      9  N   UNL     1       1.372  -4.771  -1.019  0.00  0.00    -0.311 N 
ATOM     10  H   UNL     1       0.938  -4.344  -0.264  0.00  0.00    +0.149 HD
BRANCH   9  11
ATOM     11  C   UNL     1       1.636  -6.211  -0.994  0.00  0.00    +0.105 C 
BRANCH  11  12
ATOM     12  C   UNL     1       1.131  -6.799   0.325  0.00  0.00    +0.023 C 
BRANCH  12  13
ATOM     13  C   UNL     1       1.407  -8.304   0.352  0.00  0.00    -0.002 C 
ATOM     14  C   UNL     1       0.521  -9.038  -0.685  0.00  0.00    +0.011 C 
ATOM     15  C   UNL     1      -0.344 -10.004   0.186  0.00  0.00    +0.012 C 
ATOM     16  C   UNL     1      -0.575  -9.108   1.458  0.00  0.00    +0.015 C 
ATOM     17  C   UNL     1       0.968  -8.919   1.719  0.00  0.00    +0.015 C 
ATOM     18  C   UNL     1       1.427 -10.380   1.635  0.00  0.00    -0.027 C 
ATOM     19  C   UNL     1       0.667 -11.018   0.734  0.00  0.00    -0.027 C 
ENDBRANCH  12  13
ENDBRANCH  11  12
ENDBRANCH   9  11
ENDBRANCH   5   7
BRANCH   1  21
ATOM     20  C   UNL     1      -0.242   1.401  -0.106  0.00  0.00    +0.277 C 
ATOM     21  O   UNL     1      -0.013  -0.006  -0.006  0.00  0.00    -0.495 OA
ENDBRANCH   1  21
BRANCH   4  22
ATOM     22  O   UNL     1       2.450  -2.414  -4.288  0.00  0.00    -0.488 OA
BRANCH  22  23
ATOM     23  C   UNL     1       2.911  -1.556  -5.334  0.00  0.00    +0.170 C 
ATOM     24  C   UNL     1       1.764  -1.276  -6.309  0.00  0.00    +0.026 C 
ATOM     25  C   UNL     1       2.284  -0.423  -7.468  0.00  0.00    -0.075 C 
ATOM     26  N   UNL     1       3.358  -1.140  -8.166  0.00  0.00    +0.382 N 
ATOM     27  C   UNL     1       4.491  -1.349  -7.256  0.00  0.00    -0.075 C 
ATOM     28  C   UNL     1       4.056  -2.238  -6.089  0.00  0.00    +0.026 C 
ATOM     29  H   UNL     1       3.013  -2.034  -8.482  0.00  0.00    -0.081 HD
BRANCH  26  30
ATOM     30  C   UNL     1       3.800  -0.352  -9.323  0.00  0.00    -0.069 C 
ATOM     31  C   UNL     1       4.841  -1.144 -10.153  0.00  0.00    -0.015 C 
ATOM     32  C   UNL     1       4.726  -0.495 -11.555  0.00  0.00    -0.002 C 
ATOM     33  C   UNL     1       3.218  -0.216 -11.721  0.00  0.00    -0.002 C 
ATOM     34  C   UNL     1       2.629  -0.126 -10.302  0.00  0.00    -0.015 C 
ENDBRANCH  26  30
ENDBRANCH  22  23
ENDBRANCH   4  22
TORSDOF 8
