REMARK  Name = ZINC19978777
REMARK  7 active torsions:
REMARK  status: ('A' for Active; 'I' for Inactive)
REMARK    1  A    between atoms: C_1  and  C_2
REMARK    2  A    between atoms: C_5  and  O_18
REMARK    3  A    between atoms: C_6  and  N_8
REMARK    4  A    between atoms: N_11  and  CA_12
REMARK    5  A    between atoms: CA_12  and  CB_14
REMARK    6  A    between atoms: CA_12  and  C_15
REMARK    7  A    between atoms: O_18  and  C_19
REMARK                            x       y       z     vdW  Elec       q    Type
REMARK                         _______ _______ _______ _____ _____    ______ ____
ROOT
ATOM      1  N   UNK A   0      -4.649   0.435  -0.467  0.00  0.00    -0.266 N 
ATOM      2  C   UNK A   0      -3.849   1.367   0.090  0.00  0.00    +0.305 C 
ATOM      3  O   UNK A   0      -4.221   2.522   0.163  0.00  0.00    -0.252 OA
ATOM      4  N   ALA A   1      -2.638   1.017   0.566  0.00  0.00    -0.286 N 
ATOM      5  H   UNK A   0      -4.285  -0.594  -0.599  0.00  0.00    +0.156 HD
ATOM      6  H   ALA A   1      -2.302  -0.029   0.500  0.00  0.00    +0.151 HD
ENDROOT
BRANCH   1  12
ATOM      7  C   UNK A   0      -7.751   3.749  -2.359  0.00  0.00    +0.044 C 
ATOM      8  C   UNK A   0      -7.477   2.377  -1.798  0.00  0.00    -0.048 A 
ATOM      9  C   UNK A   0      -8.505   1.459  -1.688  0.00  0.00    +0.007 A 
ATOM     10  C   UNK A   0      -8.259   0.199  -1.174  0.00  0.00    +0.048 A 
ATOM     11  C   UNK A   0      -6.979  -0.147  -0.772  0.00  0.00    +0.141 A 
ATOM     12  C   UNK A   0      -5.945   0.779  -0.877  0.00  0.00    +0.077 A 
ATOM     13  C   UNK A   0      -6.199   2.041  -1.394  0.00  0.00    +0.030 A 
BRANCH  11  14
ATOM     14  O   UNK A   0      -6.735  -1.388  -0.271  0.00  0.00    -0.493 OA
ATOM     15  C   UNK A   0      -7.844  -2.286  -0.192  0.00  0.00    +0.277 C 
ENDBRANCH  11  14
ENDBRANCH   1  12
BRANCH   4  16
ATOM     16  CA  ALA A   1      -1.768   2.029   1.171  0.00  0.00    +0.184 C 
ATOM     17  CB  ALA A   1      -2.136   2.201   2.646  0.00  0.00    +0.040 C 
BRANCH  16  18
ATOM     18  C   ALA A   1      -0.332   1.588   1.059  0.00  0.00    +0.376 C 
ATOM     19  O   ALA A   1      -0.061   0.537   0.528  0.00  0.00    -0.244 OA
ATOM     20  OXT ALA A   1       0.649   2.367   1.544  0.00  0.00    -0.244 OA
ENDBRANCH  16  18
ENDBRANCH   4  16
TORSDOF 4
