REMARK  Name = ZINC64082368
REMARK  11 active torsions:
REMARK  status: ('A' for Active; 'I' for Inactive)
REMARK    1  A    between atoms: C_1  and  C_2
REMARK    2  A    between atoms: C_2  and  C_3
REMARK    3  A    between atoms: C_3  and  C_4
REMARK    4  A    between atoms: C_4  and  C_5
REMARK    5  A    between atoms: C_4  and  N_24
REMARK    6  A    between atoms: N_7  and  C_8
REMARK    7  A    between atoms: C_8  and  C_9
REMARK    8  A    between atoms: C_9  and  C_10
REMARK    9  A    between atoms: C_9  and  N_18
REMARK   10  A    between atoms: C_13  and  O_16
REMARK   11  A    between atoms: O_16  and  C_17
REMARK                            x       y       z     vdW  Elec       q    Type
REMARK                         _______ _______ _______ _____ _____    ______ ____
ROOT
ATOM      1  C   UNL     1      -4.913  -3.276  -1.389  0.00  0.00    +0.093 C 
ENDROOT
BRANCH   1   4
ATOM      2  C   UNL     1      -5.630  -2.402   0.770  0.00  0.00    +0.233 C 
ATOM      3  O   UNL     1      -4.839  -3.151   1.303  0.00  0.00    -0.274 OA
ATOM      4  N   UNL     1      -5.745  -2.388  -0.573  0.00  0.00    -0.315 N 
ATOM      5  H   UNL     1      -6.378  -1.790  -1.000  0.00  0.00    +0.149 HD
BRANCH   2   6
ATOM      6  C   UNL     1      -6.486  -1.489   1.609  0.00  0.00    +0.160 C 
BRANCH   6   7
ATOM      7  N   UNL     1      -5.878  -1.329   2.932  0.00  0.00    -0.288 N 
ATOM      8  C   UNL     1      -5.683  -2.405   3.719  0.00  0.00    +0.298 C 
ATOM      9  O   UNL     1      -6.012  -3.510   3.330  0.00  0.00    -0.253 OA
ATOM     10  N   UNL     1      -5.124  -2.258   4.936  0.00  0.00    -0.313 N 
ATOM     11  H   UNL     1      -5.616  -0.447   3.242  0.00  0.00    +0.151 HD
ATOM     12  H   UNL     1      -4.862  -1.377   5.246  0.00  0.00    +0.146 HD
ATOM     13  H   UNL     1      -4.983  -3.033   5.502  0.00  0.00    +0.146 HD
ENDBRANCH   6   7
BRANCH   6  14
ATOM     14  C   UNL     1      -7.883  -2.095   1.759  0.00  0.00    +0.031 C 
BRANCH  14  16
ATOM     15  C   UNL     1     -10.185  -1.717   2.655  0.00  0.00    +0.004 C 
ATOM     16  C   UNL     1      -8.788  -1.111   2.504  0.00  0.00    -0.001 C 
ENDBRANCH  14  16
ENDBRANCH   6  14
ENDBRANCH   2   6
ENDBRANCH   1   4
BRANCH   1  17
ATOM     17  C   UNL     1      -5.328  -3.159  -2.856  0.00  0.00    -0.020 C 
BRANCH  17  18
ATOM     18  N   UNL     1      -4.435  -3.979  -3.685  0.00  0.00    +0.385 N 
ATOM     19  C   UNL     1      -3.061  -3.476  -3.567  0.00  0.00    -0.078 C 
ATOM     20  C   UNL     1      -2.114  -4.376  -4.364  0.00  0.00    -0.019 C 
ATOM     21  C   UNL     1      -2.535  -4.374  -5.836  0.00  0.00    -0.004 C 
ATOM     22  C   UNL     1      -3.994  -4.830  -5.940  0.00  0.00    -0.019 C 
ATOM     23  C   UNL     1      -4.871  -3.913  -5.085  0.00  0.00    -0.078 C 
ATOM     24  H   UNL     1      -4.469  -4.937  -3.368  0.00  0.00    -0.081 HD
ENDBRANCH  17  18
BRANCH  17  25
ATOM     25  C   UNL     1      -6.747  -3.642  -3.017  0.00  0.00    -0.059 A 
ATOM     26  C   UNL     1      -7.012  -4.997  -3.080  0.00  0.00    +0.005 A 
ATOM     27  C   UNL     1      -8.311  -5.442  -3.228  0.00  0.00    +0.046 A 
ATOM     28  C   UNL     1      -9.351  -4.527  -3.313  0.00  0.00    +0.120 A 
ATOM     29  C   UNL     1      -9.082  -3.168  -3.248  0.00  0.00    +0.046 A 
ATOM     30  C   UNL     1      -7.782  -2.728  -3.095  0.00  0.00    +0.005 A 
BRANCH  28  31
ATOM     31  O   UNL     1     -10.630  -4.963  -3.459  0.00  0.00    -0.495 OA
ATOM     32  C   UNL     1     -11.649  -3.965  -3.539  0.00  0.00    +0.277 C 
ENDBRANCH  28  31
ENDBRANCH  17  25
ENDBRANCH   1  17
TORSDOF 9
