REMARK  Name = ZINC22196484
REMARK  3 active torsions:
REMARK  status: ('A' for Active; 'I' for Inactive)
REMARK    1  A    between atoms: C_5  and  N_7
REMARK    2  A    between atoms: N_10  and  N_11
REMARK    3  A    between atoms: C_12  and  C_14
REMARK                            x       y       z     vdW  Elec       q    Type
REMARK                         _______ _______ _______ _____ _____    ______ ____
ROOT
ATOM      1  N   UNL     1      -2.373  -0.388   0.011  0.00  0.00    -0.266 N 
ATOM      2  C   UNL     1      -2.392   0.960   0.011  0.00  0.00    +0.320 C 
ATOM      3  O   UNL     1      -3.454   1.553   0.022  0.00  0.00    -0.251 OA
ATOM      4  N   UNL     1      -1.235   1.650  -0.002  0.00  0.00    -0.218 N 
ATOM      5  H   UNL     1      -1.417  -0.924  -0.073  0.00  0.00    +0.157 HD
ATOM      6  H   UNL     1      -1.250   2.750  -0.002  0.00  0.00    +0.174 HD
ENDROOT
BRANCH   1  11
ATOM      7  C   UNL     1      -5.911  -1.325  -0.360  0.00  0.00    +0.002 A 
ATOM      8  C   UNL     1      -5.941  -2.521   0.332  0.00  0.00    +0.003 A 
ATOM      9  C   UNL     1      -4.789  -3.013   0.918  0.00  0.00    +0.040 A 
ATOM     10  C   UNL     1      -3.603  -2.308   0.814  0.00  0.00    +0.145 A 
ATOM     11  C   UNL     1      -3.572  -1.105   0.119  0.00  0.00    +0.070 A 
ATOM     12  C   UNL     1      -4.731  -0.613  -0.464  0.00  0.00    +0.026 A 
ATOM     13  F   UNL     1      -2.478  -2.788   1.388  0.00  0.00    -0.204 F 
ENDBRANCH   1  11
BRANCH   4  14
ATOM     14  N   UNL     1      -0.012   0.967  -0.015  0.00  0.00    -0.227 N 
ATOM     15  C   UNL     1       1.146   1.657  -0.033  0.00  0.00    +0.295 C 
ATOM     16  O   UNL     1       1.128   2.874  -0.033  0.00  0.00    -0.265 OA
ATOM     17  H   UNL     1       0.004  -0.133  -0.010  0.00  0.00    +0.173 HD
BRANCH  15  18
ATOM     18  C   UNL     1       2.426   0.942  -0.052  0.00  0.00    +0.190 A 
ATOM     19  C   UNL     1       3.665   1.515  -0.072  0.00  0.00    +0.054 A 
ATOM     20  C   UNL     1       4.595   0.464  -0.085  0.00  0.00    +0.042 A 
ATOM     21  C   UNL     1       3.892  -0.690  -0.073  0.00  0.00    +0.196 A 
ATOM     22  O   UNL     1       2.585  -0.398  -0.048  0.00  0.00    -0.458 OA
ENDBRANCH  15  18
ENDBRANCH   4  14
TORSDOF 3
