REMARK  Name = ZINC32851178
REMARK  8 active torsions:
REMARK  status: ('A' for Active; 'I' for Inactive)
REMARK    1  A    between atoms: C_4  and  C_7
REMARK    2  A    between atoms: C_7  and  C_9
REMARK    3  A    between atoms: C_7  and  N_16
REMARK    4  A    between atoms: N_16  and  C_17
REMARK    5  A    between atoms: C_17  and  C_18
REMARK    6  A    between atoms: C_21  and  C_24
REMARK    7  A    between atoms: C_24  and  S_25
REMARK    8  A    between atoms: S_25  and  N_28
REMARK                            x       y       z     vdW  Elec       q    Type
REMARK                         _______ _______ _______ _____ _____    ______ ____
ROOT
ATOM      1  N   UNL     1       1.528  -2.735  -1.075  0.00  0.00    +0.392 N 
ATOM      2  H   UNL     1       2.429  -2.392  -1.604  0.00  0.00    -0.084 HD
ATOM      3  H   UNL     1       0.676  -2.096  -1.348  0.00  0.00    -0.084 HD
ENDROOT
BRANCH   1   4
ATOM      4  C   UNL     1       1.238  -4.125  -1.452  0.00  0.00    +0.047 C 
BRANCH   4   5
ATOM      5  C   UNL     1       1.605  -4.340  -2.897  0.00  0.00    +0.206 C 
ATOM      6  O   UNL     1       1.648  -3.398  -3.659  0.00  0.00    -0.277 OA
ATOM      7  N   UNL     1       1.887  -5.581  -3.344  0.00  0.00    -0.303 N 
ATOM      8  C   UNL     1       1.780  -6.819  -2.558  0.00  0.00    +0.108 C 
ATOM      9  C   UNL     1       2.225  -7.981  -3.471  0.00  0.00    +0.020 C 
ATOM     10  C   UNL     1       3.103  -7.268  -4.534  0.00  0.00    +0.020 C 
ATOM     11  C   UNL     1       2.358  -5.920  -4.699  0.00  0.00    +0.108 C 
ENDBRANCH   4   5
BRANCH   4  15
ATOM     12  C   UNL     1      -2.927  -4.907  -0.910  0.00  0.00    +0.000 A 
ATOM     13  C   UNL     1      -1.988  -5.794  -0.419  0.00  0.00    +0.000 A 
ATOM     14  C   UNL     1      -0.640  -5.541  -0.594  0.00  0.00    +0.002 A 
ATOM     15  C   UNL     1      -0.232  -4.401  -1.261  0.00  0.00    -0.053 A 
ATOM     16  C   UNL     1      -1.171  -3.511  -1.748  0.00  0.00    +0.002 A 
ATOM     17  C   UNL     1      -2.519  -3.767  -1.577  0.00  0.00    +0.000 A 
ENDBRANCH   4  15
ENDBRANCH   1   4
BRANCH   1  18
ATOM     18  C   UNL     1       1.758  -2.620   0.371  0.00  0.00    -0.045 C 
BRANCH  18  19
ATOM     19  C   UNL     1       2.052  -1.183   0.720  0.00  0.00    -0.064 A 
ATOM     20  C   UNL     1       1.019  -0.327   1.050  0.00  0.00    +0.002 A 
ATOM     21  C   UNL     1       1.289   0.991   1.371  0.00  0.00    +0.005 A 
ATOM     22  C   UNL     1       2.592   1.451   1.361  0.00  0.00    -0.025 A 
ATOM     23  C   UNL     1       3.625   0.595   1.029  0.00  0.00    +0.005 A 
ATOM     24  C   UNL     1       3.356  -0.722   0.709  0.00  0.00    +0.002 A 
BRANCH  22  25
ATOM     25  C   UNL     1       2.886   2.888   1.709  0.00  0.00    +0.219 C 
BRANCH  25  26
ATOM     26  S   UNL     1       3.170   3.031   3.495  0.00  0.00    +0.031 S 
ATOM     27  O   UNL     1       1.965   2.776   4.204  0.00  0.00    -0.158 OA
ATOM     28  O   UNL     1       4.375   2.368   3.853  0.00  0.00    -0.158 OA
BRANCH  26  29
ATOM     29  N   UNL     1       3.479   4.637   3.750  0.00  0.00    -0.208 NA
ATOM     30  H   UNL     1       3.664   4.810   4.820  0.00  0.00    +0.144 HD
ATOM     31  H   UNL     1       2.613   5.233   3.426  0.00  0.00    +0.144 HD
ENDBRANCH  26  29
ENDBRANCH  25  26
ENDBRANCH  22  25
ENDBRANCH  18  19
ENDBRANCH   1  18
TORSDOF 8
