REMARK  Name = ZINC48574161
REMARK  10 active torsions:
REMARK  status: ('A' for Active; 'I' for Inactive)
REMARK    1  A    between atoms: C_1  and  C_2
REMARK    2  A    between atoms: C_2  and  C_3
REMARK    3  A    between atoms: C_3  and  C_4
REMARK    4  A    between atoms: C_4  and  N_5
REMARK    5  A    between atoms: N_5  and  C_6
REMARK    6  A    between atoms: N_5  and  C_10
REMARK    7  A    between atoms: C_6  and  C_7
REMARK    8  A    between atoms: C_10  and  C_11
REMARK    9  A    between atoms: N_13  and  C_14
REMARK   10  A    between atoms: C_14  and  C_15
REMARK                            x       y       z     vdW  Elec       q    Type
REMARK                         _______ _______ _______ _____ _____    ______ ____
ROOT
ATOM      1  N   UNL     1      -2.840  -2.652   0.080  0.00  0.00    +0.391 N 
ATOM      2  H   UNL     1      -3.481  -2.224   0.731  0.00  0.00    -0.080 HD
ENDROOT
BRANCH   1   3
ATOM      3  C   UNL     1      -1.469  -2.224   0.391  0.00  0.00    -0.078 C 
BRANCH   3   4
ATOM      4  C   UNL     1      -1.408  -0.696   0.428  0.00  0.00    -0.019 C 
BRANCH   4   6
ATOM      5  C   UNL     1       0.080   1.278   0.789  0.00  0.00    +0.004 C 
ATOM      6  C   UNL     1       0.019  -0.250   0.752  0.00  0.00    -0.005 C 
ENDBRANCH   4   6
ENDBRANCH   3   4
ENDBRANCH   1   3
BRANCH   1   7
ATOM      7  C   UNL     1      -3.183  -2.241  -1.288  0.00  0.00    +0.019 C 
BRANCH   7   8
ATOM      8  C   UNL     1      -2.261  -2.925  -2.264  0.00  0.00    +0.194 C 
ATOM      9  O   UNL     1      -1.342  -3.603  -1.857  0.00  0.00    -0.278 OA
ATOM     10  N   UNL     1      -2.459  -2.784  -3.590  0.00  0.00    -0.331 N 
ATOM     11  H   UNL     1      -3.194  -2.241  -3.915  0.00  0.00    +0.145 HD
ATOM     12  H   UNL     1      -1.866  -3.224  -4.218  0.00  0.00    +0.145 HD
ENDBRANCH   7   8
ENDBRANCH   1   7
BRANCH   1  13
ATOM     13  C   UNL     1      -2.933  -4.114   0.190  0.00  0.00    +0.019 C 
BRANCH  13  14
ATOM     14  C   UNL     1      -4.370  -4.539   0.030  0.00  0.00    +0.197 C 
ATOM     15  O   UNL     1      -5.230  -3.707  -0.170  0.00  0.00    -0.278 OA
ATOM     16  N   UNL     1      -4.700  -5.843   0.108  0.00  0.00    -0.312 N 
ATOM     17  H   UNL     1      -4.012  -6.509   0.268  0.00  0.00    +0.149 HD
BRANCH  16  18
ATOM     18  C   UNL     1      -6.097  -6.257  -0.047  0.00  0.00    +0.146 C 
BRANCH  18  19
ATOM     19  C   UNL     1      -6.195  -7.755   0.082  0.00  0.00    +0.008 A 
ATOM     20  C   UNL     1      -6.401  -8.504   1.193  0.00  0.00    +0.028 A 
ATOM     21  C   UNL     1      -6.455  -9.880   1.073  0.00  0.00    +0.025 A 
ATOM     22  C   UNL     1      -6.300 -10.440  -0.153  0.00  0.00    +0.060 A 
ATOM     23  S   UNL     1      -6.077  -9.003  -1.189  0.00  0.00    -0.099 S 
ATOM     24 BR   UNL     1      -6.740 -10.966   2.594  0.00  0.00    -0.050 Br
ENDBRANCH  18  19
ENDBRANCH  16  18
ENDBRANCH  13  14
ENDBRANCH   1  13
TORSDOF 9
