REMARK  Name = ZINC39663303
REMARK  7 active torsions:
REMARK  status: ('A' for Active; 'I' for Inactive)
REMARK    1  A    between atoms: C_1  and  C_2
REMARK    2  A    between atoms: C_2  and  C_3
REMARK    3  A    between atoms: C_3  and  C_5
REMARK    4  A    between atoms: C_3  and  C_6
REMARK    5  A    between atoms: C_6  and  C_7
REMARK    6  A    between atoms: C_11  and  C_20
REMARK    7  A    between atoms: N_22  and  C_23
REMARK                            x       y       z     vdW  Elec       q    Type
REMARK                         _______ _______ _______ _____ _____    ______ ____
ROOT
ATOM      1  C   UNL     1      -2.538  -2.612   0.135  0.00  0.00    +0.216 C 
ATOM      2  O   UNL     1      -3.404  -1.763   0.091  0.00  0.00    -0.276 OA
ATOM      3  N   UNL     1      -2.871  -3.907   0.298  0.00  0.00    -0.300 N 
ATOM      4  C   UNL     1      -1.963  -5.075   0.381  0.00  0.00    +0.121 C 
ATOM      5  C   UNL     1      -2.586  -5.977   1.470  0.00  0.00    +0.100 C 
ATOM      6  C   UNL     1      -4.073  -5.587   1.500  0.00  0.00    -0.004 C 
ATOM      7  C   UNL     1      -4.229  -4.485   0.442  0.00  0.00    +0.115 C 
ATOM      8  C   UNL     1      -4.942  -6.789   1.144  0.00  0.00    -0.010 C 
ATOM      9  C   UNL     1      -6.418  -6.392   1.236  0.00  0.00    -0.082 C 
ATOM     10  N   UNL     1      -6.718  -5.932   2.598  0.00  0.00    +0.379 N 
ATOM     11  C   UNL     1      -5.946  -4.720   2.898  0.00  0.00    -0.082 C 
ATOM     12  C   UNL     1      -4.450  -5.047   2.876  0.00  0.00    -0.010 C 
ATOM     13  H   UNL     1      -7.704  -5.728   2.673  0.00  0.00    -0.086 HD
ATOM     14  H   UNL     1      -6.476  -6.656   3.257  0.00  0.00    -0.086 HD
ENDROOT
BRANCH   5  15
ATOM     15  C   UNL     1      -1.944  -5.707   2.806  0.00  0.00    +0.218 C 
ATOM     16  O   UNL     1      -1.512  -4.602   3.059  0.00  0.00    -0.275 OA
ATOM     17  N   UNL     1      -1.848  -6.692   3.720  0.00  0.00    -0.314 N 
ATOM     18  H   UNL     1      -2.193  -7.576   3.518  0.00  0.00    +0.149 HD
BRANCH  17  19
ATOM     19  C   UNL     1      -1.224  -6.429   5.019  0.00  0.00    +0.059 C 
ATOM     20  C   UNL     1       0.292  -6.600   4.903  0.00  0.00    -0.056 C 
ATOM     21  N   UNL     1       0.750  -7.653   5.814  0.00  0.00    +0.381 N 
ATOM     22  C   UNL     1       0.136  -8.937   5.467  0.00  0.00    -0.078 C 
ATOM     23  C   UNL     1      -1.386  -8.843   5.602  0.00  0.00    -0.014 C 
ATOM     24  C   UNL     1      -1.759  -7.424   6.058  0.00  0.00    +0.004 C 
ATOM     25  C   UNL     1      -1.061  -7.148   7.396  0.00  0.00    -0.014 C 
ATOM     26  C   UNL     1       0.453  -7.298   7.203  0.00  0.00    -0.078 C 
ATOM     27  H   UNL     1       1.749  -7.748   5.715  0.00  0.00    -0.082 HD
ENDBRANCH  17  19
ENDBRANCH   5  15
BRANCH   1  28
ATOM     28  C   UNL     1      -1.089  -2.217   0.006  0.00  0.00    +0.099 C 
BRANCH  28  29
ATOM     29  C   UNL     1      -0.987  -0.700  -0.168  0.00  0.00    -0.006 C 
ATOM     30  C   UNL     1      -1.636  -0.294  -1.492  0.00  0.00    +0.008 C 
BRANCH  29  32
ATOM     31  C   UNL     1       0.585   1.241  -0.222  0.00  0.00    +0.004 C 
ATOM     32  C   UNL     1       0.485  -0.285  -0.173  0.00  0.00    +0.000 C 
ENDBRANCH  29  32
ENDBRANCH  28  29
ENDBRANCH   1  28
TORSDOF 5
