REMARK  Name = ZINC39941774
REMARK  6 active torsions:
REMARK  status: ('A' for Active; 'I' for Inactive)
REMARK    1  A    between atoms: C_7  and  C_10
REMARK    2  A    between atoms: N_11  and  N_12
REMARK    3  A    between atoms: C_13  and  C_15
REMARK    4  A    between atoms: N_17  and  C_18
REMARK    5  A    between atoms: C_23  and  C_24
REMARK    6  A    between atoms: N_26  and  C_27
REMARK                            x       y       z     vdW  Elec       q    Type
REMARK                         _______ _______ _______ _____ _____    ______ ____
ROOT
ATOM      1  C   UNL     1      -0.212  -7.854  -0.043  0.00  0.00    +0.305 C 
ATOM      2  O   UNL     1      -1.411  -7.662  -0.041  0.00  0.00    -0.265 OA
ATOM      3  N   UNL     1       0.268  -9.114  -0.050  0.00  0.00    -0.277 N 
ATOM      4  H   UNL     1       1.222  -9.268  -0.133  0.00  0.00    +0.155 HD
ENDROOT
BRANCH   3   5
ATOM      5  C   UNL     1      -0.604 -10.191   0.061  0.00  0.00    +0.046 A 
ATOM      6  C   UNL     1      -1.835 -10.032   0.684  0.00  0.00    +0.024 A 
ATOM      7  C   UNL     1      -2.699 -11.103   0.792  0.00  0.00    +0.002 A 
ATOM      8  C   UNL     1      -2.347 -12.342   0.284  0.00  0.00    +0.001 A 
ATOM      9  C   UNL     1      -1.130 -12.520  -0.337  0.00  0.00    +0.015 A 
ATOM     10  C   UNL     1      -0.247 -11.444  -0.460  0.00  0.00    +0.058 A 
BRANCH  10  11
ATOM     11  C   UNL     1       1.055 -11.626  -1.129  0.00  0.00    +0.250 C 
ATOM     12  O   UNL     1       1.860 -10.714  -1.151  0.00  0.00    -0.270 OA
ATOM     13  N   UNL     1       1.353 -12.802  -1.715  0.00  0.00    -0.281 N 
ATOM     14  H   UNL     1       0.742 -13.551  -1.639  0.00  0.00    +0.155 HD
BRANCH  13  15
ATOM     15  C   UNL     1       2.545 -12.943  -2.435  0.00  0.00    +0.034 A 
ATOM     16  C   UNL     1       3.694 -12.288  -2.013  0.00  0.00    +0.025 A 
ATOM     17  C   UNL     1       4.869 -12.428  -2.725  0.00  0.00    +0.022 A 
ATOM     18  C   UNL     1       4.901 -13.221  -3.859  0.00  0.00    +0.041 A 
ATOM     19  C   UNL     1       3.757 -13.875  -4.282  0.00  0.00    +0.022 A 
ATOM     20  C   UNL     1       2.582 -13.743  -3.570  0.00  0.00    +0.025 A 
ATOM     21 CL   UNL     1       6.380 -13.395  -4.752  0.00  0.00    -0.084 Cl
ENDBRANCH  13  15
ENDBRANCH  10  11
ENDBRANCH   3   5
BRANCH   1  23
ATOM     22  N   UNL     1       0.248  -5.438  -0.030  0.00  0.00    -0.199 N 
ATOM     23  C   UNL     1       0.729  -6.697  -0.037  0.00  0.00    +0.318 C 
ATOM     24  O   UNL     1       1.927  -6.889  -0.039  0.00  0.00    -0.263 OA
ATOM     25  H   UNL     1      -0.710  -5.284  -0.029  0.00  0.00    +0.178 HD
BRANCH  22  27
ATOM     26  C   UNL     1       0.665  -3.127  -0.017  0.00  0.00    +0.136 C 
ATOM     27  N   UNL     1       1.132  -4.351  -0.024  0.00  0.00    -0.188 NA
BRANCH  26  34
ATOM     28  C   UNL     1      -0.039   1.351   0.007  0.00  0.00    +0.001 A 
ATOM     29  C   UNL     1       1.140   2.103   0.011  0.00  0.00    +0.002 A 
ATOM     30  C   UNL     1       2.362   1.518   0.007  0.00  0.00    +0.026 A 
ATOM     31  C   UNL     1       2.466   0.101  -0.001  0.00  0.00    +0.043 A 
ATOM     32  N   UNL     1       3.513  -0.695  -0.006  0.00  0.00    -0.380 N 
ATOM     33  C   UNL     1       3.061  -2.090  -0.013  0.00  0.00    +0.150 C 
ATOM     34  C   UNL     1       1.549  -2.039  -0.012  0.00  0.00    +0.000 C 
ATOM     35  C   UNL     1       1.220  -0.686  -0.004  0.00  0.00    +0.004 A 
ATOM     36  C   UNL     1      -0.018  -0.005   0.000  0.00  0.00    +0.010 A 
ATOM     37  H   UNL     1       4.439  -0.405  -0.005  0.00  0.00    +0.160 HD
ENDBRANCH  26  34
ENDBRANCH  22  27
ENDBRANCH   1  23
TORSDOF 6
