REMARK  Name = ZINC46751354
REMARK  12 active torsions:
REMARK  status: ('A' for Active; 'I' for Inactive)
REMARK    1  A    between atoms: C_1  and  C_2
REMARK    2  A    between atoms: C_5  and  C_29
REMARK    3  A    between atoms: C_6  and  O_8
REMARK    4  A    between atoms: O_8  and  C_9
REMARK    5  A    between atoms: C_9  and  C_10
REMARK    6  A    between atoms: N_12  and  N_13
REMARK    7  A    between atoms: N_16  and  C_17
REMARK    8  A    between atoms: C_17  and  C_18
REMARK    9  A    between atoms: C_18  and  C_19
REMARK   10  A    between atoms: C_19  and  C_20
REMARK   11  A    between atoms: C_20  and  N_21
REMARK   12  A    between atoms: C_26  and  C_28
REMARK                            x       y       z     vdW  Elec       q    Type
REMARK                         _______ _______ _______ _____ _____    ______ ____
ROOT
ATOM      1  N   UNL     1       0.078  -3.286   7.105  0.00  0.00    -0.218 N 
ATOM      2  C   UNL     1       0.077  -2.780   8.354  0.00  0.00    +0.316 C 
ATOM      3  O   UNL     1       0.092  -3.527   9.313  0.00  0.00    -0.251 OA
ATOM      4  N   UNL     1       0.060  -1.445   8.540  0.00  0.00    -0.298 N 
ATOM      5  H   UNL     1       0.090  -4.247   6.971  0.00  0.00    +0.174 HD
ATOM      6  H   UNL     1       0.049  -0.849   7.775  0.00  0.00    +0.150 HD
ENDROOT
BRANCH   1   9
ATOM      7  C   UNL     1       0.063  -2.932   4.751  0.00  0.00    +0.267 C 
ATOM      8  O   UNL     1       0.078  -4.133   4.584  0.00  0.00    -0.271 OA
ATOM      9  N   UNL     1       0.062  -2.425   6.000  0.00  0.00    -0.230 N 
ATOM     10  H   UNL     1       0.050  -1.465   6.134  0.00  0.00    +0.173 HD
BRANCH   7  11
ATOM     11  C   UNL     1       0.045  -2.006   3.562  0.00  0.00    +0.326 C 
BRANCH  11  12
ATOM     12  O   UNL     1       0.050  -2.776   2.358  0.00  0.00    -0.482 OA
BRANCH  12  18
ATOM     13  C   UNL     1      -0.018   1.503   0.010  0.00  0.00    +0.044 C 
ATOM     14  C   UNL     1       0.002  -0.004   0.002  0.00  0.00    -0.047 A 
ATOM     15  C   UNL     1       0.006  -0.688  -1.200  0.00  0.00    +0.004 A 
ATOM     16  C   UNL     1       0.024  -2.071  -1.211  0.00  0.00    +0.007 A 
ATOM     17  C   UNL     1       0.039  -2.772  -0.020  0.00  0.00    -0.009 A 
ATOM     18  C   UNL     1       0.035  -2.088   1.186  0.00  0.00    +0.124 A 
ATOM     19  C   UNL     1       0.023  -0.700   1.195  0.00  0.00    +0.049 A 
ATOM     20  C   UNL     1       0.059  -4.279  -0.033  0.00  0.00    +0.047 C 
ENDBRANCH  12  18
ENDBRANCH  11  12
ENDBRANCH   7  11
ENDBRANCH   1   9
BRANCH   4  21
ATOM     21  C   UNL     1       0.059  -0.894   9.898  0.00  0.00    +0.106 C 
BRANCH  21  22
ATOM     22  C   UNL     1       0.039   0.634   9.828  0.00  0.00    +0.017 C 
BRANCH  22  23
ATOM     23  C   UNL     1       0.037   1.209  11.246  0.00  0.00    -0.017 C 
BRANCH  23  24
ATOM     24  C   UNL     1       0.017   2.737  11.177  0.00  0.00    -0.078 C 
BRANCH  24  25
ATOM     25  N   UNL     1       0.016   3.289  12.538  0.00  0.00    +0.381 N 
ATOM     26  C   UNL     1       1.274   2.939  13.207  0.00  0.00    -0.078 C 
ATOM     27  C   UNL     1       1.245   3.442  14.652  0.00  0.00    -0.019 C 
ATOM     28  C   UNL     1       1.069   4.964  14.654  0.00  0.00    -0.003 C 
ATOM     29  C   UNL     1      -0.208   5.321  13.889  0.00  0.00    -0.016 C 
ATOM     30  C   UNL     1      -0.125   4.749  12.472  0.00  0.00    -0.072 C 
ATOM     31  C   UNL     1      -1.399   5.104  11.704  0.00  0.00    -0.013 C 
ATOM     32  H   UNL     1      -0.758   2.901  13.057  0.00  0.00    -0.081 HD
ENDBRANCH  24  25
ENDBRANCH  23  24
ENDBRANCH  22  23
ENDBRANCH  21  22
ENDBRANCH   4  21
TORSDOF 9
