REMARK  Name = ZINC43033574
REMARK  6 active torsions:
REMARK  status: ('A' for Active; 'I' for Inactive)
REMARK    1  A    between atoms: C_1  and  C_2
REMARK    2  A    between atoms: C_7  and  C_8
REMARK    3  A    between atoms: C_8  and  C_10
REMARK    4  A    between atoms: C_8  and  N_14
REMARK    5  A    between atoms: C_10  and  C_12
REMARK    6  A    between atoms: C_10  and  N_13
REMARK                            x       y       z     vdW  Elec       q    Type
REMARK                         _______ _______ _______ _____ _____    ______ ____
ROOT
ATOM      1  C   UNL     1       0.222  -0.049   2.554  0.00  0.00    +0.073 C 
ENDROOT
BRANCH   1   2
ATOM      2  N   UNL     1       1.128  -0.700   3.510  0.00  0.00    -0.287 NA
ATOM      3  C   UNL     1       2.501  -0.757   2.981  0.00  0.00    +0.104 C 
ATOM      4  C   UNL     1       3.448  -1.152   4.115  0.00  0.00    +0.119 C 
ATOM      5  N   UNL     1       2.944  -2.340   4.798  0.00  0.00    -0.313 N 
ATOM      6  C   UNL     1       1.676  -2.752   4.699  0.00  0.00    +0.227 C 
ATOM      7  O   UNL     1       1.333  -3.732   5.325  0.00  0.00    -0.274 OA
ATOM      8  C   UNL     1       0.657  -2.050   3.845  0.00  0.00    +0.181 C 
ATOM      9  H   UNL     1       3.557  -2.853   5.347  0.00  0.00    +0.149 HD
ENDBRANCH   1   2
BRANCH   1  16
ATOM     10  C   UNL     1       1.975   0.095   0.262  0.00  0.00    +0.044 C 
ATOM     11  C   UNL     1       0.835  -0.891   0.279  0.00  0.00    -0.046 A 
ATOM     12  C   UNL     1       0.632  -1.731  -0.801  0.00  0.00    +0.003 A 
ATOM     13  C   UNL     1      -0.413  -2.635  -0.786  0.00  0.00    +0.000 A 
ATOM     14  C   UNL     1      -1.255  -2.700   0.309  0.00  0.00    +0.000 A 
ATOM     15  C   UNL     1      -1.052  -1.861   1.388  0.00  0.00    +0.005 A 
ATOM     16  C   UNL     1      -0.003  -0.960   1.375  0.00  0.00    -0.029 A 
ENDBRANCH   1  16
BRANCH   1  17
ATOM     17  C   UNL     1      -1.116   0.242   3.237  0.00  0.00    -0.056 C 
ATOM     18  C   UNL     1      -0.878   1.111   4.474  0.00  0.00    -0.012 C 
BRANCH  17  19
ATOM     19  N   UNL     1      -1.998   0.953   2.302  0.00  0.00    +0.381 N 
ATOM     20  H   UNL     1      -2.230   0.346   1.531  0.00  0.00    -0.090 HD
ATOM     21  H   UNL     1      -2.843   1.228   2.780  0.00  0.00    -0.090 HD
ATOM     22  H   UNL     1      -1.527   1.774   1.953  0.00  0.00    -0.090 HD
ENDBRANCH  17  19
ENDBRANCH   1  17
TORSDOF 4
