REMARK  Name = ZINC44234320
REMARK  7 active torsions:
REMARK  status: ('A' for Active; 'I' for Inactive)
REMARK    1  A    between atoms: C_1  and  O_2
REMARK    2  A    between atoms: O_2  and  C_3
REMARK    3  A    between atoms: C_4  and  C_11
REMARK    4  A    between atoms: C_11  and  C_13
REMARK    5  A    between atoms: C_11  and  N_16
REMARK    6  A    between atoms: C_13  and  C_14
REMARK    7  A    between atoms: C_14  and  O_15
REMARK                            x       y       z     vdW  Elec       q    Type
REMARK                         _______ _______ _______ _____ _____    ______ ____
ROOT
ATOM      1  C   UNL     1       0.584  -0.452  -0.850  0.00  0.00    +0.136 A 
ATOM      2  C   UNL     1       0.053  -0.851  -2.068  0.00  0.00    -0.018 A 
ATOM      3  C   UNL     1       0.850  -1.507  -2.986  0.00  0.00    +0.021 A 
ATOM      4  C   UNL     1       2.177  -1.766  -2.692  0.00  0.00    +0.019 A 
ATOM      5  C   UNL     1       2.709  -1.370  -1.478  0.00  0.00    +0.034 A 
ATOM      6  C   UNL     1       1.917  -0.708  -0.559  0.00  0.00    +0.061 A 
ATOM      7 BR   UNL     1       2.646  -0.159   1.097  0.00  0.00    -0.046 Br
ATOM      8 BR   UNL     1       3.265  -2.664  -3.952  0.00  0.00    -0.050 Br
ENDROOT
BRANCH   1  10
ATOM      9  C   UNL     1      -0.820  -0.606   1.062  0.00  0.00    +0.277 C 
ATOM     10  O   UNL     1      -0.198   0.194   0.055  0.00  0.00    -0.494 OA
ENDBRANCH   1  10
BRANCH   2  11
ATOM     11  C   UNL     1      -1.392  -0.569  -2.389  0.00  0.00    -0.038 C 
BRANCH  11  12
ATOM     12  N   UNL     1      -1.876  -1.550  -3.369  0.00  0.00    +0.383 N 
ATOM     13  H   UNL     1      -1.325  -1.484  -4.212  0.00  0.00    -0.089 HD
ATOM     14  H   UNL     1      -1.792  -2.479  -2.985  0.00  0.00    -0.089 HD
ATOM     15  H   UNL     1      -2.844  -1.362  -3.584  0.00  0.00    -0.089 HD
ENDBRANCH  11  12
BRANCH  11  16
ATOM     16  C   UNL     1      -1.520   0.840  -2.971  0.00  0.00    +0.016 C 
BRANCH  16  17
ATOM     17  C   UNL     1      -2.999   1.180  -3.164  0.00  0.00    +0.154 C 
BRANCH  17  18
ATOM     18  O   UNL     1      -3.119   2.496  -3.708  0.00  0.00    -0.395 OA
ATOM     19  H   UNL     1      -4.032   2.778  -3.856  0.00  0.00    +0.209 HD
ENDBRANCH  17  18
ENDBRANCH  16  17
ENDBRANCH  11  16
ENDBRANCH   2  11
TORSDOF 6
