REMARK  Name = ZINC60369166
REMARK  10 active torsions:
REMARK  status: ('A' for Active; 'I' for Inactive)
REMARK    1  A    between atoms: C_1  and  C_2
REMARK    2  A    between atoms: C_2  and  C_3
REMARK    3  A    between atoms: C_2  and  C_4
REMARK    4  A    between atoms: C_2  and  C_5
REMARK    5  A    between atoms: C_12  and  C_14
REMARK    6  A    between atoms: N_16  and  C_17
REMARK    7  A    between atoms: C_17  and  C_18
REMARK    8  A    between atoms: C_18  and  C_19
REMARK    9  A    between atoms: C_19  and  N_20
REMARK   10  A    between atoms: C_24  and  C_27
REMARK                            x       y       z     vdW  Elec       q    Type
REMARK                         _______ _______ _______ _____ _____    ______ ____
ROOT
ATOM      1  C   UNL     1       6.007  -0.739  -4.545  0.00  0.00    +0.251 C 
ATOM      2  O   UNL     1       6.936  -0.498  -3.797  0.00  0.00    -0.270 OA
ATOM      3  N   UNL     1       6.246  -1.084  -5.826  0.00  0.00    -0.311 N 
ATOM      4  H   UNL     1       5.505  -1.276  -6.423  0.00  0.00    +0.149 HD
ENDROOT
BRANCH   1  11
ATOM      5  C   UNL     1       0.718  -0.497  -1.257  0.00  0.00    -0.001 C 
ATOM      6  C   UNL     1      -0.026   0.007  -2.496  0.00  0.00    +0.009 C 
ATOM      7  C   UNL     1       0.533  -0.709  -3.733  0.00  0.00    +0.043 C 
ATOM      8  C   UNL     1       2.032  -0.643  -3.684  0.00  0.00    -0.006 A 
ATOM      9  C   UNL     1       2.798  -0.317  -2.603  0.00  0.00    -0.036 A 
ATOM     10  C   UNL     1       4.173  -0.320  -2.792  0.00  0.00    +0.024 A 
ATOM     11  C   UNL     1       4.629  -0.652  -4.054  0.00  0.00    +0.074 A 
ATOM     12  S   UNL     1       3.103  -0.949  -4.927  0.00  0.00    -0.088 S 
ATOM     13  C   UNL     1       2.154   0.029  -1.264  0.00  0.00    +0.040 C 
BRANCH   5  15
ATOM     14  C   UNL     1      -0.019   1.526   0.010  0.00  0.00    +0.011 C 
ATOM     15  C   UNL     1       0.002  -0.004   0.002  0.00  0.00    -0.035 C 
ATOM     16  C   UNL     1       0.742  -0.511   1.242  0.00  0.00    +0.011 C 
ATOM     17  C   UNL     1      -1.433  -0.534   0.013  0.00  0.00    +0.011 C 
ENDBRANCH   5  15
ENDBRANCH   1  11
BRANCH   3  18
ATOM     18  C   UNL     1       7.623  -1.171  -6.317  0.00  0.00    +0.102 C 
BRANCH  18  19
ATOM     19  C   UNL     1       7.614  -1.579  -7.792  0.00  0.00    +0.000 C 
BRANCH  19  20
ATOM     20  C   UNL     1       9.053  -1.669  -8.305  0.00  0.00    -0.077 C 
BRANCH  20  21
ATOM     21  N   UNL     1       9.044  -2.061  -9.720  0.00  0.00    +0.380 N 
ATOM     22  C   UNL     1       8.492  -3.415  -9.848  0.00  0.00    -0.079 C 
ATOM     23  C   UNL     1       8.405  -3.796 -11.328  0.00  0.00    -0.018 C 
ATOM     24  C   UNL     1       9.807  -3.755 -11.943  0.00  0.00    +0.009 C 
ATOM     25  C   UNL     1      10.403  -2.359 -11.738  0.00  0.00    +0.058 C 
ATOM     26  C   UNL     1      10.415  -2.031 -10.243  0.00  0.00    -0.066 C 
ATOM     27  H   UNL     1       8.472  -1.415 -10.243  0.00  0.00    -0.082 HD
BRANCH  25  28
ATOM     28  C   UNL     1      11.812  -2.330 -12.272  0.00  0.00    +0.212 C 
ATOM     29  O   UNL     1      12.736  -2.068 -11.532  0.00  0.00    -0.276 OA
ATOM     30  N   UNL     1      12.045  -2.595 -13.573  0.00  0.00    -0.329 N 
ATOM     31  H   UNL     1      11.306  -2.804 -14.165  0.00  0.00    +0.145 HD
ATOM     32  H   UNL     1      12.951  -2.576 -13.917  0.00  0.00    +0.145 HD
ENDBRANCH  25  28
ENDBRANCH  20  21
ENDBRANCH  19  20
ENDBRANCH  18  19
ENDBRANCH   3  18
TORSDOF 7
