REMARK  Name = ZINC39154854
REMARK  11 active torsions:
REMARK  status: ('A' for Active; 'I' for Inactive)
REMARK    1  A    between atoms: C_1  and  C_2
REMARK    2  A    between atoms: C_2  and  C_3
REMARK    3  A    between atoms: C_2  and  C_4
REMARK    4  A    between atoms: C_4  and  C_5
REMARK    5  A    between atoms: C_5  and  C_7
REMARK    6  A    between atoms: C_5  and  N_29
REMARK    7  A    between atoms: C_7  and  O_9
REMARK    8  A    between atoms: O_9  and  C_10
REMARK    9  A    between atoms: C_10  and  C_11
REMARK   10  A    between atoms: C_11  and  C_13
REMARK   11  A    between atoms: C_21  and  C_23
REMARK                            x       y       z     vdW  Elec       q    Type
REMARK                         _______ _______ _______ _____ _____    ______ ____
ROOT
ATOM      1  C   UNL     1      -5.147  -3.342   2.717  0.00  0.00    +0.199 C 
ATOM      2  O   UNL     1      -4.396  -3.006   3.610  0.00  0.00    -0.289 OA
ENDROOT
BRANCH   1   3
ATOM      3  C   UNL     1      -6.438  -3.822   3.025  0.00  0.00    +0.034 C 
ATOM      4  C   UNL     1      -7.407  -4.248   2.135  0.00  0.00    +0.007 A 
ATOM      5  C   UNL     1      -7.442  -4.343   0.724  0.00  0.00    +0.010 A 
ATOM      6  C   UNL     1      -8.548  -4.806   0.099  0.00  0.00    +0.001 A 
ATOM      7  C   UNL     1      -9.696  -5.208   0.799  0.00  0.00    +0.002 A 
ATOM      8  C   UNL     1      -9.766  -5.157   2.147  0.00  0.00    +0.026 A 
ATOM      9  C   UNL     1      -8.604  -4.665   2.905  0.00  0.00    +0.044 A 
ATOM     10  N   UNL     1      -8.401  -4.512   4.183  0.00  0.00    -0.373 N 
ATOM     11  C   UNL     1      -7.050  -3.985   4.400  0.00  0.00    +0.144 C 
ATOM     12  H   UNL     1      -9.041  -4.719   4.881  0.00  0.00    +0.161 HD
BRANCH  11  13
ATOM     13  C   UNL     1      -7.123  -2.650   5.096  0.00  0.00    -0.021 A 
ATOM     14  C   UNL     1      -8.146  -1.770   4.798  0.00  0.00    +0.006 A 
ATOM     15  C   UNL     1      -8.213  -0.546   5.436  0.00  0.00    +0.000 A 
ATOM     16  C   UNL     1      -7.257  -0.202   6.374  0.00  0.00    +0.000 A 
ATOM     17  C   UNL     1      -6.235  -1.083   6.673  0.00  0.00    +0.000 A 
ATOM     18  C   UNL     1      -6.170  -2.309   6.038  0.00  0.00    +0.006 A 
ENDBRANCH  11  13
ENDBRANCH   1   3
BRANCH   1  19
ATOM     19  C   UNL     1      -4.702  -3.247   1.281  0.00  0.00    +0.311 C 
BRANCH  19  20
ATOM     20  O   UNL     1      -3.368  -2.737   1.229  0.00  0.00    -0.455 OA
BRANCH  20  21
ATOM     21  C   UNL     1      -2.819  -2.590   0.013  0.00  0.00    +0.328 C 
ATOM     22  O   UNL     1      -3.450  -2.885  -0.975  0.00  0.00    -0.249 OA
BRANCH  21  23
ATOM     23  C   UNL     1      -1.416  -2.058  -0.121  0.00  0.00    +0.183 C 
BRANCH  23  24
ATOM     24  N   UNL     1      -0.876  -2.426  -1.433  0.00  0.00    -0.286 N 
ATOM     25  C   UNL     1      -1.492  -2.008  -2.556  0.00  0.00    +0.298 C 
ATOM     26  O   UNL     1      -2.495  -1.324  -2.481  0.00  0.00    -0.253 OA
ATOM     27  N   UNL     1      -0.996  -2.347  -3.763  0.00  0.00    -0.313 N 
ATOM     28  H   UNL     1      -0.076  -2.972  -1.492  0.00  0.00    +0.151 HD
ATOM     29  H   UNL     1      -0.196  -2.892  -3.822  0.00  0.00    +0.146 HD
ATOM     30  H   UNL     1      -1.439  -2.046  -4.571  0.00  0.00    +0.146 HD
ENDBRANCH  23  24
BRANCH  23  31
ATOM     31  C   UNL     1      -1.433  -0.534   0.013  0.00  0.00    +0.036 C 
BRANCH  31  33
ATOM     32  C   UNL     1      -0.019   1.526   0.010  0.00  0.00    +0.007 C 
ATOM     33  C   UNL     1       0.002  -0.004   0.002  0.00  0.00    -0.015 C 
ATOM     34  C   UNL     1       0.742  -0.511   1.242  0.00  0.00    +0.007 C 
ENDBRANCH  31  33
ENDBRANCH  23  31
ENDBRANCH  21  23
ENDBRANCH  20  21
ENDBRANCH  19  20
ENDBRANCH   1  19
TORSDOF 9
