REMARK  Name = ZINC51101054
REMARK  11 active torsions:
REMARK  status: ('A' for Active; 'I' for Inactive)
REMARK    1  A    between atoms: C_1  and  C_2
REMARK    2  A    between atoms: C_2  and  C_3
REMARK    3  A    between atoms: C_2  and  S_4
REMARK    4  A    between atoms: S_4  and  N_7
REMARK    5  A    between atoms: N_7  and  C_8
REMARK    6  A    between atoms: C_8  and  C_9
REMARK    7  A    between atoms: N_13  and  C_15
REMARK    8  A    between atoms: C_15  and  C_16
REMARK    9  A    between atoms: C_15  and  C_17
REMARK   10  A    between atoms: N_22  and  C_23
REMARK   11  A    between atoms: C_23  and  C_24
REMARK                            x       y       z     vdW  Elec       q    Type
REMARK                         _______ _______ _______ _____ _____    ______ ____
ROOT
ATOM      1  C   UNL     1      -1.976   1.134  -4.381  0.00  0.00    -0.012 C 
ATOM      2  C   UNL     1      -1.619   2.459  -5.060  0.00  0.00    +0.001 C 
ATOM      3  C   UNL     1      -2.615   2.726  -6.192  0.00  0.00    -0.018 C 
ATOM      4  C   UNL     1      -2.593   1.550  -7.171  0.00  0.00    -0.078 C 
ATOM      5  N   UNL     1      -2.968   0.317  -6.468  0.00  0.00    +0.387 N 
ATOM      6  C   UNL     1      -1.977   0.016  -5.427  0.00  0.00    -0.073 C 
ATOM      7  H   UNL     1      -3.875   0.435  -6.043  0.00  0.00    -0.081 HD
ENDROOT
BRANCH   5   8
ATOM      8  C   UNL     1      -3.021  -0.795  -7.426  0.00  0.00    +0.017 C 
ATOM      9  C   UNL     1      -3.356  -2.091  -6.686  0.00  0.00    -0.004 C 
BRANCH   8  10
ATOM     10  C   UNL     1      -4.083  -0.517  -8.459  0.00  0.00    +0.207 C 
ATOM     11  O   UNL     1      -5.030   0.185  -8.180  0.00  0.00    -0.277 OA
ATOM     12  N   UNL     1      -3.978  -1.050  -9.693  0.00  0.00    -0.242 N 
ATOM     13  C   UNL     1      -4.928  -0.802 -10.617  0.00  0.00    +0.306 C 
ATOM     14  O   UNL     1      -5.878  -0.097 -10.337  0.00  0.00    -0.252 OA
ATOM     15  N   UNL     1      -4.824  -1.335 -11.850  0.00  0.00    -0.296 N 
ATOM     16  H   UNL     1      -3.220  -1.612  -9.916  0.00  0.00    +0.159 HD
ATOM     17  H   UNL     1      -4.065  -1.897 -12.073  0.00  0.00    +0.151 HD
BRANCH  15  18
ATOM     18  C   UNL     1      -5.856  -1.065 -12.854  0.00  0.00    +0.132 C 
BRANCH  18  19
ATOM     19  C   UNL     1      -5.505  -1.772 -14.138  0.00  0.00    -0.016 C 
ATOM     20  C   UNL     1      -6.364  -2.593 -14.689  0.00  0.00    +0.005 C 
ENDBRANCH  18  19
ENDBRANCH  15  18
ENDBRANCH   8  10
ENDBRANCH   5   8
BRANCH   1  21
ATOM     21  C   UNL     1      -0.941   0.819  -3.299  0.00  0.00    +0.107 C 
BRANCH  21  22
ATOM     22  N   UNL     1      -1.022   1.826  -2.238  0.00  0.00    -0.194 NA
ATOM     23  H   UNL     1      -1.501   2.655  -2.392  0.00  0.00    +0.148 HD
BRANCH  22  24
ATOM     24  S   UNL     1      -0.297   1.548  -0.775  0.00  0.00    +0.032 S 
ATOM     25  O   UNL     1      -0.763   0.266  -0.378  0.00  0.00    -0.158 OA
ATOM     26  O   UNL     1      -0.595   2.700   0.001  0.00  0.00    -0.158 OA
BRANCH  24  28
ATOM     27  C   UNL     1       1.924   2.814  -1.749  0.00  0.00    +0.033 C 
ATOM     28  C   UNL     1       1.478   1.482  -1.140  0.00  0.00    +0.142 C 
ATOM     29  C   UNL     1       2.256   1.227   0.152  0.00  0.00    +0.033 C 
ENDBRANCH  24  28
ENDBRANCH  22  24
ENDBRANCH  21  22
ENDBRANCH   1  21
TORSDOF 8
