REMARK  Name = ZINC50602072
REMARK  5 active torsions:
REMARK  status: ('A' for Active; 'I' for Inactive)
REMARK    1  A    between atoms: C_1  and  C_2
REMARK    2  A    between atoms: C_5  and  N_9
REMARK    3  A    between atoms: C_6  and  N_8
REMARK    4  A    between atoms: N_9  and  C_10
REMARK    5  A    between atoms: C_10  and  C_11
REMARK                            x       y       z     vdW  Elec       q    Type
REMARK                         _______ _______ _______ _____ _____    ______ ____
ROOT
ATOM      1  C   UNL     1      -0.018   1.503   0.010  0.00  0.00    +0.084 C 
ATOM      2  C   UNL     1       0.002  -0.004   0.002  0.00  0.00    +0.084 A 
ATOM      3  N   UNL     1       0.008  -0.790  -1.108  0.00  0.00    -0.331 N 
ATOM      4  H   UNL     1      -0.001  -0.487  -2.030  0.00  0.00    +0.168 HD
ATOM      5  C   UNL     1       0.027  -2.095  -0.679  0.00  0.00    +0.136 A 
ATOM      6  C   UNL     1       0.033  -2.058   0.678  0.00  0.00    +0.134 A 
ATOM      7  N   UNL     1       0.023  -0.770   1.059  0.00  0.00    -0.331 N 
ATOM      8  H   UNL     1       0.028  -0.458   1.978  0.00  0.00    +0.168 HD
ENDROOT
BRANCH   6   9
ATOM      9  N   UNL     1       0.052  -3.177   1.538  0.00  0.00    -0.342 N 
ATOM     10  H   UNL     1       0.063  -4.073   1.167  0.00  0.00    +0.144 HD
ATOM     11  H   UNL     1       0.055  -3.050   2.499  0.00  0.00    +0.144 HD
ENDBRANCH   6   9
BRANCH   5  12
ATOM     12  N   UNL     1       0.039  -3.242  -1.485  0.00  0.00    -0.328 N 
ATOM     13  H   UNL     1       0.052  -4.121  -1.077  0.00  0.00    +0.148 HD
BRANCH  12  14
ATOM     14  C   UNL     1       0.030  -3.111  -2.944  0.00  0.00    +0.108 C 
BRANCH  14  15
ATOM     15  C   UNL     1       0.046  -4.503  -3.580  0.00  0.00    +0.029 C 
ATOM     16  C   UNL     1      -1.263  -5.234  -3.240  0.00  0.00    +0.029 C 
ATOM     17  C   UNL     1      -1.360  -6.498  -4.142  0.00  0.00    +0.166 C 
ATOM     18  S   UNL     1      -0.747  -5.818  -5.741  0.00  0.00    -0.031 S 
ATOM     19  O   UNL     1      -1.856  -5.361  -6.504  0.00  0.00    -0.174 OA
ATOM     20  O   UNL     1       0.164  -6.743  -6.318  0.00  0.00    -0.174 OA
ATOM     21  C   UNL     1       0.187  -4.364  -5.116  0.00  0.00    +0.171 C 
ENDBRANCH  14  15
ENDBRANCH  12  14
ENDBRANCH   5  12
TORSDOF 4
