REMARK  Name = ZINC04478225
REMARK  3 active torsions:
REMARK  status: ('A' for Active; 'I' for Inactive)
REMARK    1  A    between atoms: C_4  and  C_7
REMARK    2  A    between atoms: C_10  and  C_12
REMARK    3  A    between atoms: C_10  and  O_16
REMARK                            x       y       z     vdW  Elec       q    Type
REMARK                         _______ _______ _______ _____ _____    ______ ____
ROOT
ATOM      1  C   UNL     1       1.124  -0.102   0.253  0.00  0.00    +0.071 C 
ATOM      2  N   UNL     1       1.524  -1.314   0.068  0.00  0.00    -0.178 NA
ATOM      3  N   UNL     1       2.898  -1.489   0.216  0.00  0.00    -0.149 N 
ATOM      4  C   UNL     1       3.508  -0.196   0.561  0.00  0.00    +0.257 C 
ATOM      5  C   UNL     1       2.309   0.773   0.593  0.00  0.00    +0.124 C 
ATOM      6  C   UNL     1       3.578  -2.686   0.067  0.00  0.00    +0.258 C 
ATOM      7  N   UNL     1       4.835  -2.611   0.255  0.00  0.00    -0.143 NA
ATOM      8  N   UNL     1       5.707  -3.688   0.275  0.00  0.00    -0.223 N 
ATOM      9  C   UNL     1       5.538  -4.789  -0.498  0.00  0.00    +0.093 C 
ATOM     10  C   UNL     1       4.408  -5.739  -0.242  0.00  0.00    +0.146 C 
ATOM     11  C   UNL     1       3.082  -5.057  -0.454  0.00  0.00    +0.143 A 
ATOM     12  N   UNL     1       2.783  -3.762  -0.255  0.00  0.00    -0.183 N 
ATOM     13  N   UNL     1       1.391  -3.651  -0.494  0.00  0.00    -0.151 NA
ATOM     14  C   UNL     1       0.971  -4.826  -0.869  0.00  0.00    +0.245 A 
ATOM     15  N   UNL     1       1.997  -5.674  -0.866  0.00  0.00    -0.218 NA
ATOM     16  H   UNL     1       6.472  -3.652   0.869  0.00  0.00    +0.176 HD
ATOM     17  H   UNL     1       7.128  -4.470  -1.718  0.00  0.00    +0.157 HD
ATOM     18  N   UNL     1       6.342  -5.082  -1.499  0.00  0.00    -0.389 N 
ATOM     19  H   UNL     1       6.178  -5.927  -2.059  0.00  0.00    +0.157 HD
ENDROOT
BRANCH   1  23
ATOM     20  C   UNL     1      -2.898   1.222  -0.030  0.00  0.00    +0.000 A 
ATOM     21  C   UNL     1      -2.592  -0.107  -0.264  0.00  0.00    +0.001 A 
ATOM     22  C   UNL     1      -1.288  -0.546  -0.168  0.00  0.00    +0.010 A 
ATOM     23  C   UNL     1      -0.273   0.358   0.154  0.00  0.00    -0.002 A 
ATOM     24  C   UNL     1      -0.588   1.700   0.384  0.00  0.00    +0.010 A 
ATOM     25  C   UNL     1      -1.897   2.123   0.290  0.00  0.00    +0.001 A 
ENDBRANCH   1  23
BRANCH   4  26
ATOM     26  C   UNL     1       4.181  -0.264   1.934  0.00  0.00    +0.438 C 
ATOM     27  F   UNL     1       3.259  -0.715   2.884  0.00  0.00    -0.166 F 
ATOM     28  F   UNL     1       5.264  -1.148   1.879  0.00  0.00    -0.166 F 
ATOM     29  F   UNL     1       4.636   1.009   2.294  0.00  0.00    -0.166 F 
ENDBRANCH   4  26
BRANCH   4  30
ATOM     30  O   UNL     1       4.449   0.200  -0.439  0.00  0.00    -0.363 OA
ATOM     31  H   UNL     1       5.223  -0.376  -0.501  0.00  0.00    +0.212 HD
ENDBRANCH   4  30
TORSDOF 3
