REMARK  Name = ZINC43674400
REMARK  7 active torsions:
REMARK  status: ('A' for Active; 'I' for Inactive)
REMARK    1  A    between atoms: C_1  and  O_2
REMARK    2  A    between atoms: O_2  and  C_3
REMARK    3  A    between atoms: C_5  and  C_18
REMARK    4  A    between atoms: C_8  and  O_9
REMARK    5  A    between atoms: O_9  and  C_10
REMARK    6  A    between atoms: C_10  and  C_11
REMARK    7  A    between atoms: C_18  and  N_19
REMARK                            x       y       z     vdW  Elec       q    Type
REMARK                         _______ _______ _______ _____ _____    ______ ____
ROOT
ATOM      1  C   UNL     1      -1.201  -0.638   0.010  0.00  0.00    +0.163 A 
ATOM      2  C   UNL     1      -2.374   0.100   0.019  0.00  0.00    +0.051 A 
ATOM      3  C   UNL     1      -3.597  -0.546   0.028  0.00  0.00    -0.060 A 
ATOM      4  C   UNL     1      -3.653  -1.927   0.028  0.00  0.00    +0.021 A 
ATOM      5  C   UNL     1      -2.486  -2.669   0.018  0.00  0.00    +0.063 A 
ATOM      6  C   UNL     1      -1.257  -2.028   0.003  0.00  0.00    +0.176 A 
ATOM      7 BR   UNL     1      -2.567  -4.559   0.019  0.00  0.00    -0.046 Br
ENDROOT
BRANCH   1   9
ATOM      8  C   UNL     1      -0.017   1.425   0.010  0.00  0.00    +0.277 C 
ATOM      9  O   UNL     1       0.002  -0.004   0.002  0.00  0.00    -0.491 OA
ENDBRANCH   1   9
BRANCH   6  10
ATOM     10  O   UNL     1      -0.108  -2.756  -0.012  0.00  0.00    -0.482 OA
BRANCH  10  11
ATOM     11  C   UNL     1       0.452  -3.110   1.254  0.00  0.00    +0.273 C 
BRANCH  11  12
ATOM     12  C   UNL     1       1.712  -3.909   1.040  0.00  0.00    +0.041 A 
ATOM     13  C   UNL     1       2.990  -3.472   0.924  0.00  0.00    +0.031 A 
ATOM     14  C   UNL     1       4.000  -4.397   0.731  0.00  0.00    +0.023 A 
ATOM     15  C   UNL     1       3.681  -5.713   0.662  0.00  0.00    +0.046 A 
ATOM     16  S   UNL     1       1.910  -5.676   0.882  0.00  0.00    -0.097 S 
ATOM     17 BR   UNL     1       3.387  -1.626   1.025  0.00  0.00    -0.049 Br
ENDBRANCH  11  12
ENDBRANCH  10  11
ENDBRANCH   6  10
BRANCH   3  18
ATOM     18  C   UNL     1      -4.871   0.258   0.039  0.00  0.00    -0.050 C 
BRANCH  18  19
ATOM     19  N   UNL     1      -5.296   0.521  -1.342  0.00  0.00    +0.381 N 
ATOM     20  H   UNL     1      -6.150   1.059  -1.335  0.00  0.00    -0.090 HD
ATOM     21  H   UNL     1      -4.576   1.039  -1.823  0.00  0.00    -0.090 HD
ATOM     22  H   UNL     1      -5.455  -0.355  -1.818  0.00  0.00    -0.090 HD
ENDBRANCH  18  19
ENDBRANCH   3  18
TORSDOF 6
