REMARK  Name = ZINC25677454
REMARK  9 active torsions:
REMARK  status: ('A' for Active; 'I' for Inactive)
REMARK    1  A    between atoms: C_1  and  C_2
REMARK    2  A    between atoms: C_5  and  S_9
REMARK    3  A    between atoms: C_6  and  C_8
REMARK    4  A    between atoms: S_9  and  N_12
REMARK    5  A    between atoms: N_15  and  C_18
REMARK    6  A    between atoms: C_18  and  C_20
REMARK    7  A    between atoms: C_18  and  C_21
REMARK    8  A    between atoms: N_23  and  C_24
REMARK    9  A    between atoms: C_25  and  C_29
REMARK                            x       y       z     vdW  Elec       q    Type
REMARK                         _______ _______ _______ _____ _____    ______ ____
ROOT
ATOM      1  N   UNL     1      -4.183  -0.108  -0.983  0.00  0.00    -0.180 NA
ATOM      2  C   UNL     1      -4.220   0.706   0.241  0.00  0.00    +0.091 C 
ATOM      3  C   UNL     1      -3.357   1.954   0.023  0.00  0.00    -0.060 C 
ATOM      4  N   UNL     1      -2.014   1.547  -0.412  0.00  0.00    +0.389 N 
ATOM      5  C   UNL     1      -2.061   0.852  -1.705  0.00  0.00    -0.060 C 
ATOM      6  C   UNL     1      -2.870  -0.441  -1.557  0.00  0.00    +0.091 C 
ATOM      7  H   UNL     1      -1.621   0.841   0.334  0.00  0.00    -0.081 HD
ENDROOT
BRANCH   1   8
ATOM      8  S   UNL     1      -5.581  -0.636  -1.696  0.00  0.00    +0.061 S 
ATOM      9  O   UNL     1      -5.266  -1.854  -2.355  0.00  0.00    -0.153 OA
ATOM     10  O   UNL     1      -6.599  -0.544  -0.709  0.00  0.00    -0.153 OA
BRANCH   8  15
ATOM     11  C   UNL     1      -6.999   3.341  -6.007  0.00  0.00    +0.044 C 
ATOM     12  C   UNL     1      -6.644   2.348  -4.930  0.00  0.00    -0.050 A 
ATOM     13  C   UNL     1      -6.272   1.060  -5.272  0.00  0.00    +0.005 A 
ATOM     14  C   UNL     1      -5.947   0.150  -4.284  0.00  0.00    +0.029 A 
ATOM     15  C   UNL     1      -5.995   0.526  -2.955  0.00  0.00    +0.108 A 
ATOM     16  C   UNL     1      -6.371   1.811  -2.613  0.00  0.00    -0.024 A 
ATOM     17  C   UNL     1      -6.691   2.723  -3.601  0.00  0.00    +0.008 A 
ATOM     18  C   UNL     1      -6.428   2.219  -1.163  0.00  0.00    +0.046 C 
ENDBRANCH   8  15
ENDBRANCH   1   8
BRANCH   4  19
ATOM     19  C   UNL     1      -1.107   2.701  -0.467  0.00  0.00    +0.017 C 
ATOM     20  C   UNL     1      -1.584   3.674  -1.546  0.00  0.00    -0.004 C 
BRANCH  19  21
ATOM     21  C   UNL     1       0.286   2.229  -0.796  0.00  0.00    +0.204 C 
ATOM     22  O   UNL     1       0.501   1.048  -0.968  0.00  0.00    -0.277 OA
ATOM     23  N   UNL     1       1.291   3.120  -0.905  0.00  0.00    -0.281 N 
ATOM     24  H   UNL     1       1.096   4.191  -0.749  0.00  0.00    +0.155 HD
BRANCH  23  25
ATOM     25  C   UNL     1       2.572   2.686  -1.213  0.00  0.00    +0.084 A 
ATOM     26  C   UNL     1       3.725   3.445  -1.372  0.00  0.00    +0.065 A 
ATOM     27  C   UNL     1       4.936   2.727  -1.692  0.00  0.00    +0.022 A 
ATOM     28  C   UNL     1       4.842   1.391  -1.818  0.00  0.00    +0.048 A 
ATOM     29  S   UNL     1       3.120   1.069  -1.500  0.00  0.00    -0.081 S 
BRANCH  26  30
ATOM     30  C   UNL     1       3.714   4.903  -1.219  0.00  0.00    +0.244 C 
ATOM     31  O   UNL     1       2.676   5.478  -0.947  0.00  0.00    -0.270 OA
ATOM     32  N   UNL     1       4.852   5.607  -1.381  0.00  0.00    -0.325 N 
ATOM     33  H   UNL     1       4.843   6.701  -1.266  0.00  0.00    +0.145 HD
ATOM     34  H   UNL     1       5.790   5.087  -1.628  0.00  0.00    +0.145 HD
ENDBRANCH  26  30
ENDBRANCH  23  25
ENDBRANCH  19  21
ENDBRANCH   4  19
TORSDOF 6
