REMARK  Name = ZINC62533906
REMARK  10 active torsions:
REMARK  status: ('A' for Active; 'I' for Inactive)
REMARK    1  A    between atoms: C_1  and  C_2
REMARK    2  A    between atoms: C_2  and  C_3
REMARK    3  A    between atoms: C_2  and  N_4
REMARK    4  A    between atoms: N_4  and  C_5
REMARK    5  A    between atoms: C_5  and  C_7
REMARK    6  A    between atoms: C_5  and  C_19
REMARK    7  A    between atoms: C_7  and  C_8
REMARK    8  A    between atoms: C_8  and  N_9
REMARK    9  A    between atoms: N_12  and  S_15
REMARK   10  A    between atoms: S_15  and  C_18
REMARK                            x       y       z     vdW  Elec       q    Type
REMARK                         _______ _______ _______ _____ _____    ______ ____
ROOT
ATOM      1  C   UNL     1      -2.050  -0.126  -1.234  0.00  0.00    +0.017 C 
ENDROOT
BRANCH   1   2
ATOM      2  C   UNL     1      -1.382  -0.810  -2.399  0.00  0.00    +0.197 C 
ATOM      3  O   UNL     1      -0.437  -1.546  -2.210  0.00  0.00    -0.278 OA
ATOM      4  N   UNL     1      -1.834  -0.603  -3.652  0.00  0.00    -0.331 N 
ATOM      5  H   UNL     1      -2.589  -0.013  -3.804  0.00  0.00    +0.145 HD
ATOM      6  H   UNL     1      -1.404  -1.042  -4.402  0.00  0.00    +0.145 HD
ENDBRANCH   1   2
BRANCH   1   7
ATOM      7  N   UNL     1      -1.376  -0.512   0.012  0.00  0.00    +0.388 N 
ATOM      8  H   UNL     1      -1.363  -1.518   0.090  0.00  0.00    -0.084 HD
ATOM      9  H   UNL     1      -1.873  -0.121   0.799  0.00  0.00    -0.084 HD
BRANCH   7  11
ATOM     10  C   UNL     1      -0.019   1.526   0.010  0.00  0.00    -0.014 C 
ATOM     11  C   UNL     1       0.002  -0.004   0.002  0.00  0.00    -0.077 C 
ATOM     12  C   UNL     1       0.742  -0.511   1.242  0.00  0.00    -0.014 C 
ENDBRANCH   7  11
ENDBRANCH   1   7
BRANCH   1  13
ATOM     13  C   UNL     1      -3.520  -0.547  -1.171  0.00  0.00    +0.009 C 
BRANCH  13  14
ATOM     14  C   UNL     1      -4.228   0.241  -0.067  0.00  0.00    +0.083 C 
BRANCH  14  15
ATOM     15  N   UNL     1      -5.639  -0.163  -0.006  0.00  0.00    -0.300 NA
ATOM     16  C   UNL     1      -6.351   0.223  -1.232  0.00  0.00    +0.101 C 
ATOM     17  C   UNL     1      -7.763  -0.371  -1.208  0.00  0.00    +0.124 C 
ATOM     18  N   UNL     1      -8.419   0.033   0.044  0.00  0.00    -0.179 NA
ATOM     19  C   UNL     1      -7.705  -0.197   1.310  0.00  0.00    +0.124 C 
ATOM     20  C   UNL     1      -6.295   0.391   1.186  0.00  0.00    +0.101 C 
BRANCH  18  21
ATOM     21  S   UNL     1      -9.922   0.729   0.031  0.00  0.00    +0.029 S 
ATOM     22  O   UNL     1      -9.969   1.512   1.216  0.00  0.00    -0.158 OA
ATOM     23  O   UNL     1     -10.026   1.341  -1.247  0.00  0.00    -0.158 OA
ATOM     24  C   UNL     1     -11.080  -0.662   0.155  0.00  0.00    +0.215 C 
ENDBRANCH  18  21
ENDBRANCH  14  15
ENDBRANCH  13  14
ENDBRANCH   1  13
TORSDOF 7
