REMARK  Name = ZINC08666648
REMARK  15 active torsions:
REMARK  status: ('A' for Active; 'I' for Inactive)
REMARK    1  A    between atoms: C_1  and  C_2
REMARK    2  A    between atoms: C_2  and  C_3
REMARK    3  A    between atoms: C_3  and  C_4
REMARK    4  A    between atoms: C_4  and  S_5
REMARK    5  A    between atoms: S_5  and  C_6
REMARK    6  A    between atoms: C_6  and  S_27
REMARK    7  A    between atoms: C_7  and  C_25
REMARK    8  A    between atoms: C_8  and  C_24
REMARK    9  A    between atoms: C_9  and  C_23
REMARK   10  A    between atoms: C_10  and  C_17
REMARK   11  A    between atoms: C_12  and  C_15
REMARK   12  A    between atoms: S_27  and  C_28
REMARK   13  A    between atoms: C_28  and  C_29
REMARK   14  A    between atoms: C_29  and  C_30
REMARK   15  A    between atoms: C_30  and  C_31
REMARK                            x       y       z     vdW  Elec       q    Type
REMARK                         _______ _______ _______ _____ _____    ______ ____
ROOT
ATOM      1  C   UNL     1      -5.255   1.478   3.807  0.00  0.00    +0.157 C 
ATOM      2  C   UNL     1      -6.645   0.929   4.135  0.00  0.00    +0.148 C 
ATOM      3  C   UNL     1      -6.705  -0.405   4.822  0.00  0.00    -0.032 C 
ATOM      4  C   UNL     1      -7.824  -0.587   5.539  0.00  0.00    -0.014 C 
ATOM      5  C   UNL     1      -8.511   1.829   5.462  0.00  0.00    +0.113 C 
ATOM      6  C   UNL     1      -7.019   1.946   5.264  0.00  0.00    +0.156 C 
ATOM      7  C   UNL     1      -6.430   3.218   4.764  0.00  0.00    +0.092 C 
ATOM      8  N   UNL     1      -6.867   4.476   5.084  0.00  0.00    -0.347 N 
ATOM      9  C   UNL     1      -8.013  -1.872   6.303  0.00  0.00    +0.059 C 
ATOM     10  C   UNL     1      -5.614  -1.439   4.716  0.00  0.00    +0.042 C 
ATOM     11  H   UNL     1      -6.423   5.253   4.711  0.00  0.00    +0.143 HD
ATOM     12  H   UNL     1      -7.621   4.590   5.684  0.00  0.00    +0.143 HD
ATOM     13  N   UNL     1      -8.898   0.360   5.600  0.00  0.00    -0.401 NA
ATOM     14  H   UNL     1      -9.367   0.242   6.506  0.00  0.00    +0.124 HD
ATOM     15  H   UNL     1      -9.555   0.135   4.843  0.00  0.00    +0.124 HD
ATOM     16  N   UNL     1      -5.422   2.950   3.966  0.00  0.00    -0.351 N 
ATOM     17  H   UNL     1      -4.831   3.658   3.513  0.00  0.00    +0.163 HD
ENDROOT
BRANCH   5  18
ATOM     18  C   UNL     1      -8.923   2.553   6.718  0.00  0.00    -0.027 A 
ATOM     19  C   UNL     1      -8.758   1.948   7.950  0.00  0.00    +0.005 A 
ATOM     20  C   UNL     1      -9.132   2.614   9.102  0.00  0.00    +0.000 A 
ATOM     21  C   UNL     1      -9.678   3.881   9.022  0.00  0.00    +0.000 A 
ATOM     22  C   UNL     1      -9.847   4.484   7.789  0.00  0.00    +0.000 A 
ATOM     23  C   UNL     1      -9.469   3.820   6.637  0.00  0.00    +0.005 A 
ENDBRANCH   5  18
BRANCH   6  24
ATOM     24  C   UNL     1      -6.331   1.545   6.502  0.00  0.00    +0.081 C 
ATOM     25  N   UNL     1      -5.800   1.236   7.458  0.00  0.00    -0.195 NA
ENDBRANCH   6  24
BRANCH   2  26
ATOM     26  C   UNL     1      -7.556   1.007   2.982  0.00  0.00    +0.080 C 
ATOM     27  N   UNL     1      -8.259   1.066   2.091  0.00  0.00    -0.195 NA
ENDBRANCH   2  26
BRANCH   1  28
ATOM     28  S   UNL     1      -4.792   1.075   2.100  0.00  0.00    -0.120 S 
BRANCH  28  29
ATOM     29  C   UNL     1      -4.098   2.622   1.456  0.00  0.00    +0.072 C 
BRANCH  29  30
ATOM     30  C   UNL     1      -3.607   2.404   0.024  0.00  0.00    +0.010 C 
BRANCH  30  32
ATOM     31  C   UNL     1      -2.531   3.491  -1.952  0.00  0.00    +0.004 C 
ATOM     32  C   UNL     1      -3.022   3.709  -0.519  0.00  0.00    -0.003 C 
ENDBRANCH  30  32
ENDBRANCH  29  30
ENDBRANCH  28  29
ENDBRANCH   1  28
BRANCH   1  33
ATOM     33  S   UNL     1      -4.017   0.845   4.972  0.00  0.00    -0.120 S 
BRANCH  33  34
ATOM     34  C   UNL     1      -2.445   1.486   4.334  0.00  0.00    +0.072 C 
BRANCH  34  35
ATOM     35  C   UNL     1      -1.304   1.045   5.253  0.00  0.00    +0.010 C 
BRANCH  35  36
ATOM     36  C   UNL     1       0.022   1.586   4.715  0.00  0.00    -0.003 C 
ATOM     37  C   UNL     1       1.164   1.145   5.633  0.00  0.00    +0.004 C 
ENDBRANCH  35  36
ENDBRANCH  34  35
ENDBRANCH  33  34
ENDBRANCH   1  33
TORSDOF 11
