REMARK  Name = ZINC11422736
REMARK  9 active torsions:
REMARK  status: ('A' for Active; 'I' for Inactive)
REMARK    1  A    between atoms: C_1  and  C_2
REMARK    2  A    between atoms: C_6  and  C_8
REMARK    3  A    between atoms: N_14  and  C_15
REMARK    4  A    between atoms: C_15  and  C_16
REMARK    5  A    between atoms: N_18  and  C_19
REMARK    6  A    between atoms: C_21  and  C_26
REMARK    7  A    between atoms: C_21  and  C_27
REMARK    8  A    between atoms: C_22  and  C_24
REMARK    9  A    between atoms: C_22  and  C_25
REMARK                            x       y       z     vdW  Elec       q    Type
REMARK                         _______ _______ _______ _____ _____    ______ ____
ROOT
ATOM      1  C   UNL     1      -4.168   3.227  -1.866  0.00  0.00    +0.233 C 
ATOM      2  O   UNL     1      -4.011   2.320  -2.656  0.00  0.00    -0.274 OA
ATOM      3  N   UNL     1      -4.440   4.469  -2.312  0.00  0.00    -0.311 N 
ATOM      4  H   UNL     1      -4.566   5.194  -1.680  0.00  0.00    +0.149 HD
ENDROOT
BRANCH   3   5
ATOM      5  C   UNL     1      -4.545   4.725  -3.754  0.00  0.00    +0.070 C 
ATOM      6  C   UNL     1      -3.154   5.016  -4.316  0.00  0.00    +0.009 C 
ATOM      7  C   UNL     1      -3.237   5.307  -5.813  0.00  0.00    -0.072 C 
ATOM      8  C   UNL     1      -5.538   6.254  -5.477  0.00  0.00    -0.072 C 
ATOM      9  C   UNL     1      -5.429   5.950  -3.985  0.00  0.00    +0.009 C 
ATOM     10  C   UNL     1      -6.482   5.243  -6.138  0.00  0.00    -0.010 C 
ATOM     11  C   UNL     1      -6.188   7.648  -5.621  0.00  0.00    -0.010 C 
ATOM     12  C   UNL     1      -3.458   3.996  -6.578  0.00  0.00    -0.010 C 
ATOM     13  C   UNL     1      -1.866   5.868  -6.254  0.00  0.00    -0.010 C 
ATOM     14  N   UNL     1      -4.239   6.337  -6.197  0.00  0.00    +0.386 N 
ATOM     15  H   UNL     1      -4.425   6.240  -7.202  0.00  0.00    -0.084 HD
ATOM     16  H   UNL     1      -3.831   7.261  -6.011  0.00  0.00    -0.084 HD
ENDBRANCH   3   5
BRANCH   1  17
ATOM     17  C   UNL     1      -4.060   2.964  -0.386  0.00  0.00    +0.221 C 
BRANCH  17  24
ATOM     18  C   UNL     1      -2.502   1.002  -0.009  0.00  0.00    +0.163 A 
ATOM     19  N   UNL     1      -2.627  -0.282   0.178  0.00  0.00    -0.153 NA
ATOM     20  N   UNL     1      -3.993  -0.595   0.143  0.00  0.00    -0.254 N 
ATOM     21  H   UNL     1      -4.382  -1.476   0.253  0.00  0.00    +0.191 HD
ATOM     22  C   UNL     1      -4.666   0.554  -0.072  0.00  0.00    +0.176 A 
ATOM     23  S   UNL     1      -6.365   0.720  -0.199  0.00  0.00    -0.011 S 
ATOM     24  N   UNL     1      -3.761   1.548  -0.162  0.00  0.00    -0.294 N 
BRANCH  18  30
ATOM     25  C   UNL     1       2.340   1.339   1.156  0.00  0.00    +0.044 C 
ATOM     26  C   UNL     1       1.105   1.916   0.513  0.00  0.00    -0.050 A 
ATOM     27  C   UNL     1       1.165   3.145  -0.119  0.00  0.00    +0.003 A 
ATOM     28  C   UNL     1       0.036   3.681  -0.712  0.00  0.00    +0.001 A 
ATOM     29  C   UNL     1      -1.159   2.992  -0.676  0.00  0.00    +0.011 A 
ATOM     30  C   UNL     1      -1.225   1.749  -0.045  0.00  0.00    +0.019 A 
ATOM     31  C   UNL     1      -0.084   1.217   0.556  0.00  0.00    +0.015 A 
ENDBRANCH  18  30
ENDBRANCH  17  24
ENDBRANCH   1  17
TORSDOF 4
