REMARK  Name = ZINC43286379
REMARK  7 active torsions:
REMARK  status: ('A' for Active; 'I' for Inactive)
REMARK    1  A    between atoms: C_1  and  C_2
REMARK    2  A    between atoms: C_2  and  C_4
REMARK    3  A    between atoms: C_2  and  N_20
REMARK    4  A    between atoms: C_4  and  C_6
REMARK    5  A    between atoms: C_4  and  N_12
REMARK    6  A    between atoms: C_16  and  C_18
REMARK    7  A    between atoms: C_18  and  O_19
REMARK                            x       y       z     vdW  Elec       q    Type
REMARK                         _______ _______ _______ _____ _____    ______ ____
ROOT
ATOM      1  C   UNL     1       0.778  -0.387  -1.260  0.00  0.00    +0.079 C 
ENDROOT
BRANCH   1   2
ATOM      2  C   UNL     1       0.731  -1.889  -1.364  0.00  0.00    +0.006 A 
ATOM      3  C   UNL     1       1.684  -2.797  -1.040  0.00  0.00    +0.028 A 
ATOM      4  C   UNL     1       1.418  -4.142  -1.221  0.00  0.00    +0.025 A 
ATOM      5  C   UNL     1       0.211  -4.512  -1.717  0.00  0.00    +0.060 A 
ATOM      6  S   UNL     1      -0.597  -2.936  -1.936  0.00  0.00    -0.099 S 
ATOM      7 BR   UNL     1       2.717  -5.445  -0.785  0.00  0.00    -0.050 Br
ENDBRANCH   1   2
BRANCH   1   8
ATOM      8  N   UNL     1       0.125   0.206  -2.435  0.00  0.00    -0.291 NA
ATOM      9  C   UNL     1       0.173   1.682  -2.379  0.00  0.00    +0.085 C 
ATOM     10  C   UNL     1       1.374   2.073  -3.276  0.00  0.00    +0.017 C 
ATOM     11  C   UNL     1       1.268   1.026  -4.416  0.00  0.00    +0.022 C 
ATOM     12  C   UNL     1       0.775  -0.239  -3.681  0.00  0.00    +0.083 C 
BRANCH  12  13
ATOM     13  C   UNL     1      -0.232  -0.989  -4.555  0.00  0.00    +0.174 C 
BRANCH  13  14
ATOM     14  O   UNL     1      -1.263  -0.091  -4.971  0.00  0.00    -0.393 OA
ATOM     15  H   UNL     1      -1.938  -0.499  -5.530  0.00  0.00    +0.209 HD
ENDBRANCH  13  14
ENDBRANCH  12  13
ENDBRANCH   1   8
BRANCH   1  17
ATOM     16  C   UNL     1       0.730  -0.555   1.232  0.00  0.00    -0.012 C 
ATOM     17  C   UNL     1       0.048   0.060   0.009  0.00  0.00    -0.056 C 
BRANCH  17  18
ATOM     18  N   UNL     1      -1.350  -0.386  -0.048  0.00  0.00    +0.381 N 
ATOM     19  H   UNL     1      -1.831  -0.091   0.788  0.00  0.00    -0.090 HD
ATOM     20  H   UNL     1      -1.800   0.020  -0.855  0.00  0.00    -0.090 HD
ATOM     21  H   UNL     1      -1.380  -1.392  -0.117  0.00  0.00    -0.090 HD
ENDBRANCH  17  18
ENDBRANCH   1  17
TORSDOF 6
