REMARK  Name = ZINC39533353
REMARK  12 active torsions:
REMARK  status: ('A' for Active; 'I' for Inactive)
REMARK    1  A    between atoms: C_1  and  C_2
REMARK    2  A    between atoms: C_2  and  C_3
REMARK    3  A    between atoms: C_2  and  C_4
REMARK    4  A    between atoms: C_4  and  C_5
REMARK    5  A    between atoms: C_8  and  C_11
REMARK    6  A    between atoms: C_11  and  C_13
REMARK    7  A    between atoms: C_11  and  N_22
REMARK    8  A    between atoms: C_13  and  N_14
REMARK    9  A    between atoms: N_14  and  C_15
REMARK   10  A    between atoms: C_15  and  C_16
REMARK   11  A    between atoms: C_26  and  O_29
REMARK   12  A    between atoms: O_29  and  C_30
REMARK                            x       y       z     vdW  Elec       q    Type
REMARK                         _______ _______ _______ _____ _____    ______ ____
ROOT
ATOM      1  C   UNL     1      -1.367  -6.290  -0.493  0.00  0.00    -0.023 C 
ENDROOT
BRANCH   1   2
ATOM      2  N   UNL     1      -0.460  -6.735   0.572  0.00  0.00    +0.388 N 
ATOM      3  C   UNL     1       0.860  -6.119   0.380  0.00  0.00    -0.062 C 
ATOM      4  C   UNL     1       1.800  -6.567   1.501  0.00  0.00    +0.065 C 
ATOM      5  N   UNL     1       1.917  -8.032   1.482  0.00  0.00    -0.295 NA
ATOM      6  C   UNL     1       0.600  -8.663   1.648  0.00  0.00    +0.169 C 
ATOM      7  C   UNL     1      -0.330  -8.197   0.526  0.00  0.00    -0.030 C 
ATOM      8  H   UNL     1       2.365  -8.348   0.635  0.00  0.00    +0.124 HD
ATOM      9  H   UNL     1      -0.832  -6.458   1.468  0.00  0.00    -0.081 HD
BRANCH   6  10
ATOM     10  O   UNL     1       0.742 -10.084   1.592  0.00  0.00    -0.367 OA
ATOM     11  C   UNL     1       1.305 -10.659   2.773  0.00  0.00    +0.196 C 
ENDBRANCH   6  10
ENDBRANCH   1   2
BRANCH   1  15
ATOM     12  C   UNL     1      -1.410  -2.021  -0.639  0.00  0.00    -0.047 A 
ATOM     13  C   UNL     1      -1.417  -2.752  -1.812  0.00  0.00    +0.004 A 
ATOM     14  C   UNL     1      -1.403  -4.134  -1.765  0.00  0.00    +0.002 A 
ATOM     15  C   UNL     1      -1.381  -4.784  -0.545  0.00  0.00    -0.060 A 
ATOM     16  C   UNL     1      -1.374  -4.052   0.628  0.00  0.00    +0.002 A 
ATOM     17  C   UNL     1      -1.384  -2.671   0.581  0.00  0.00    +0.004 A 
BRANCH  12  18
ATOM     18  C   UNL     1      -1.425  -0.515  -0.691  0.00  0.00    +0.038 C 
BRANCH  18  20
ATOM     19  C   UNL     1      -0.004   1.528  -0.909  0.00  0.00    +0.007 C 
ATOM     20  C   UNL     1       0.012   0.009  -0.732  0.00  0.00    -0.013 C 
ATOM     21  C   UNL     1       0.721  -0.344   0.577  0.00  0.00    +0.007 C 
ENDBRANCH  18  20
ENDBRANCH  12  18
ENDBRANCH   1  15
BRANCH   1  22
ATOM     22  C   UNL     1      -2.780  -6.804  -0.208  0.00  0.00    +0.070 C 
BRANCH  22  23
ATOM     23  N   UNL     1      -2.801  -8.268  -0.326  0.00  0.00    -0.313 NA
ATOM     24  H   UNL     1      -2.470  -8.563  -1.232  0.00  0.00    +0.122 HD
BRANCH  23  25
ATOM     25  C   UNL     1      -4.145  -8.798  -0.058  0.00  0.00    +0.116 C 
BRANCH  25  26
ATOM     26  C   UNL     1      -4.127 -10.299  -0.188  0.00  0.00    -0.034 A 
ATOM     27  C   UNL     1      -4.384 -10.890  -1.410  0.00  0.00    +0.005 A 
ATOM     28  C   UNL     1      -4.368 -12.268  -1.529  0.00  0.00    +0.000 A 
ATOM     29  C   UNL     1      -4.095 -13.053  -0.426  0.00  0.00    +0.000 A 
ATOM     30  C   UNL     1      -3.838 -12.462   0.797  0.00  0.00    +0.000 A 
ATOM     31  C   UNL     1      -3.849 -11.085   0.915  0.00  0.00    +0.005 A 
ENDBRANCH  25  26
ENDBRANCH  23  25
ENDBRANCH  22  23
ENDBRANCH   1  22
TORSDOF 9
