REMARK  Name = ZINC47629431
REMARK  8 active torsions:
REMARK  status: ('A' for Active; 'I' for Inactive)
REMARK    1  A    between atoms: C_1  and  N_2
REMARK    2  A    between atoms: N_2  and  C_3
REMARK    3  A    between atoms: N_2  and  C_7
REMARK    4  A    between atoms: C_3  and  C_4
REMARK    5  A    between atoms: C_7  and  C_8
REMARK    6  A    between atoms: N_10  and  C_11
REMARK    7  A    between atoms: C_16  and  S_17
REMARK    8  A    between atoms: S_17  and  C_18
REMARK                            x       y       z     vdW  Elec       q    Type
REMARK                         _______ _______ _______ _____ _____    ______ ____
ROOT
ATOM      1  C   UNL     1      -2.361   0.298   1.018  0.00  0.00    +0.201 C 
ATOM      2  O   UNL     1      -2.042   1.321   1.586  0.00  0.00    -0.278 OA
ATOM      3  N   UNL     1      -3.320  -0.491   1.542  0.00  0.00    -0.286 N 
ATOM      4  H   UNL     1      -3.633  -1.266   1.049  0.00  0.00    +0.155 HD
ENDROOT
BRANCH   3   5
ATOM      5  C   UNL     1      -3.866  -0.193   2.797  0.00  0.00    +0.047 A 
ATOM      6  C   UNL     1      -3.133   0.543   3.716  0.00  0.00    +0.024 A 
ATOM      7  C   UNL     1      -3.674   0.837   4.955  0.00  0.00    +0.002 A 
ATOM      8  C   UNL     1      -4.944   0.399   5.281  0.00  0.00    +0.001 A 
ATOM      9  C   UNL     1      -5.682  -0.335   4.372  0.00  0.00    +0.017 A 
ATOM     10  C   UNL     1      -5.150  -0.630   3.124  0.00  0.00    +0.034 A 
BRANCH  10  11
ATOM     11  S   UNL     1      -6.090  -1.560   1.960  0.00  0.00    -0.088 S 
BRANCH  11  12
ATOM     12  C   UNL     1      -7.657  -1.761   2.741  0.00  0.00    +0.013 A 
ATOM     13  C   UNL     1      -8.625  -0.771   2.623  0.00  0.00    +0.016 A 
ATOM     14  C   UNL     1      -9.852  -0.931   3.236  0.00  0.00    +0.021 A 
ATOM     15  C   UNL     1     -10.117  -2.076   3.967  0.00  0.00    +0.041 A 
ATOM     16  C   UNL     1      -9.155  -3.063   4.087  0.00  0.00    +0.021 A 
ATOM     17  C   UNL     1      -7.928  -2.912   3.471  0.00  0.00    +0.016 A 
ATOM     18 CL   UNL     1     -11.661  -2.274   4.737  0.00  0.00    -0.084 Cl
ENDBRANCH  11  12
ENDBRANCH  10  11
ENDBRANCH   3   5
BRANCH   1  19
ATOM     19  C   UNL     1      -1.687  -0.090  -0.272  0.00  0.00    +0.019 C 
BRANCH  19  21
ATOM     20  C   UNL     1      -1.364   2.200  -0.910  0.00  0.00    -0.095 C 
ATOM     21  N   UNL     1      -0.688   0.927  -0.627  0.00  0.00    +0.389 N 
ATOM     22  H   UNL     1      -0.046   1.050   0.141  0.00  0.00    -0.081 HD
BRANCH  21  23
ATOM     23  C   UNL     1       0.052   0.490  -1.819  0.00  0.00    +0.019 C 
BRANCH  23  24
ATOM     24  C   UNL     1       1.157   1.472  -2.111  0.00  0.00    +0.194 C 
ATOM     25  O   UNL     1       1.313   2.441  -1.397  0.00  0.00    -0.278 OA
ATOM     26  N   UNL     1       1.973   1.275  -3.166  0.00  0.00    -0.331 N 
ATOM     27  H   UNL     1       1.848   0.501  -3.737  0.00  0.00    +0.145 HD
ATOM     28  H   UNL     1       2.684   1.907  -3.354  0.00  0.00    +0.145 HD
ENDBRANCH  23  24
ENDBRANCH  21  23
ENDBRANCH  19  21
ENDBRANCH   1  19
TORSDOF 7
