REMARK  Name = ZINC21321879
REMARK  8 active torsions:
REMARK  status: ('A' for Active; 'I' for Inactive)
REMARK    1  A    between atoms: C_3  and  C_8
REMARK    2  A    between atoms: N_9  and  N_10
REMARK    3  A    between atoms: C_14  and  S_17
REMARK    4  A    between atoms: N_15  and  N_16
REMARK    5  A    between atoms: S_17  and  C_18
REMARK    6  A    between atoms: C_18  and  C_19
REMARK    7  A    between atoms: N_21  and  C_22
REMARK    8  A    between atoms: C_25  and  N_28
REMARK                            x       y       z     vdW  Elec       q    Type
REMARK                         _______ _______ _______ _____ _____    ______ ____
ROOT
ATOM      1  N   UNL     1       3.595   5.955  -0.028  0.00  0.00    -0.204 N 
ATOM      2  C   UNL     1       3.572   7.343  -0.018  0.00  0.00    +0.254 A 
ATOM      3  N   UNL     1       2.498   8.095  -0.015  0.00  0.00    -0.109 NA
ATOM      4  N   UNL     1       2.909   9.435  -0.001  0.00  0.00    -0.119 NA
ATOM      5  C   UNL     1       4.220   9.457  -0.004  0.00  0.00    +0.210 A 
ATOM      6  N   UNL     1       4.664   8.165  -0.015  0.00  0.00    -0.211 N 
ATOM      7  H   UNL     1       4.557   5.422  -0.035  0.00  0.00    +0.177 HD
ENDROOT
BRANCH   6   8
ATOM      8  N   UNL     1       5.970   7.765  -0.020  0.00  0.00    -0.294 N 
ATOM      9  H   UNL     1       6.775   8.515  -0.017  0.00  0.00    +0.163 HD
ATOM     10  H   UNL     1       6.217   6.693  -0.029  0.00  0.00    +0.163 HD
ENDBRANCH   6   8
BRANCH   1  12
ATOM     11  C   UNL     1       2.416   3.936  -0.041  0.00  0.00    +0.138 C 
ATOM     12  N   UNL     1       2.394   5.235  -0.031  0.00  0.00    -0.188 NA
BRANCH  11  15
ATOM     13  C   UNL     1      -0.014   1.077  -0.056  0.00  0.00    +0.002 A 
ATOM     14  C   UNL     1       1.172   1.781  -0.054  0.00  0.00    +0.009 A 
ATOM     15  C   UNL     1       1.152   3.178  -0.043  0.00  0.00    -0.004 A 
ATOM     16  C   UNL     1      -0.071   3.852  -0.035  0.00  0.00    +0.029 A 
ATOM     17  C   UNL     1      -1.251   3.135  -0.037  0.00  0.00    +0.042 A 
ATOM     18  C   UNL     1      -1.223   1.750  -0.053  0.00  0.00    +0.020 A 
ATOM     19 CL   UNL     1      -2.773   3.970  -0.028  0.00  0.00    -0.084 Cl
ENDBRANCH  11  15
ENDBRANCH   1  12
BRANCH   5  20
ATOM     20  S   UNL     1       5.232  10.899   0.005  0.00  0.00    -0.075 S 
BRANCH  20  21
ATOM     21  C   UNL     1       4.043  12.269   0.017  0.00  0.00    +0.173 C 
BRANCH  21  22
ATOM     22  C   UNL     1       4.786  13.580   0.025  0.00  0.00    +0.227 C 
ATOM     23  O   UNL     1       5.999  13.589   0.023  0.00  0.00    -0.275 OA
ATOM     24  N   UNL     1       4.103  14.742   0.036  0.00  0.00    -0.285 N 
ATOM     25  H   UNL     1       3.006  14.736  -0.039  0.00  0.00    +0.155 HD
BRANCH  24  26
ATOM     26  C   UNL     1       4.791  15.956   0.141  0.00  0.00    +0.034 A 
ATOM     27  C   UNL     1       4.229  17.015   0.843  0.00  0.00    +0.025 A 
ATOM     28  C   UNL     1       4.913  18.210   0.950  0.00  0.00    +0.034 A 
ATOM     29  C   UNL     1       6.150  18.357   0.349  0.00  0.00    +0.126 A 
ATOM     30  C   UNL     1       6.709  17.307  -0.355  0.00  0.00    +0.034 A 
ATOM     31  C   UNL     1       6.033  16.107  -0.461  0.00  0.00    +0.025 A 
BRANCH  29  32
ATOM     32  N   UNL     1       6.877  19.642   0.460  0.00  0.00    +0.056 N 
ATOM     33  O   UNL     1       7.966  19.773  -0.068  0.00  0.00    -0.126 OA
ATOM     34  O   UNL     1       6.385  20.568   1.080  0.00  0.00    -0.126 OA
ENDBRANCH  29  32
ENDBRANCH  24  26
ENDBRANCH  21  22
ENDBRANCH  20  21
ENDBRANCH   5  20
TORSDOF 8
