REMARK  Name = ZINC49041990
REMARK  12 active torsions:
REMARK  status: ('A' for Active; 'I' for Inactive)
REMARK    1  A    between atoms: C_1  and  C_2
REMARK    2  A    between atoms: C_2  and  C_3
REMARK    3  A    between atoms: C_2  and  N_4
REMARK    4  A    between atoms: N_4  and  C_5
REMARK    5  A    between atoms: N_4  and  S_6
REMARK    6  A    between atoms: S_6  and  N_9
REMARK    7  A    between atoms: N_13  and  C_16
REMARK    8  A    between atoms: C_16  and  C_17
REMARK    9  A    between atoms: C_17  and  C_18
REMARK   10  A    between atoms: C_18  and  C_19
REMARK   11  A    between atoms: C_19  and  C_20
REMARK   12  A    between atoms: C_20  and  N_21
REMARK                            x       y       z     vdW  Elec       q    Type
REMARK                         _______ _______ _______ _____ _____    ______ ____
ROOT
ATOM      1  N   UNL     1       1.555  -2.991  -1.028  0.00  0.00    -0.168 NA
ATOM      2  C   UNL     1       1.249  -3.629   0.224  0.00  0.00    +0.108 C 
ATOM      3  C   UNL     1       2.419  -4.368   0.916  0.00  0.00    -0.001 C 
ATOM      4  C   UNL     1       3.247  -5.150  -0.131  0.00  0.00    -0.077 C 
ATOM      5  N   UNL     1       2.366  -5.731  -1.117  0.00  0.00    +0.381 N 
ATOM      6  C   UNL     1       2.452  -4.827  -2.259  0.00  0.00    -0.061 C 
ATOM      7  C   UNL     1       1.413  -3.780  -2.299  0.00  0.00    +0.092 C 
ATOM      8  H   UNL     1       1.421  -5.768  -0.767  0.00  0.00    -0.082 HD
ENDROOT
BRANCH   1   9
ATOM      9  S   UNL     1       2.048  -1.411  -1.069  0.00  0.00    +0.099 S 
ATOM     10  O   UNL     1       2.776  -1.244  -2.278  0.00  0.00    -0.141 OA
ATOM     11  O   UNL     1       2.612  -1.128   0.204  0.00  0.00    -0.141 OA
BRANCH   9  12
ATOM     12  N   UNL     1       0.688  -0.476  -1.203  0.00  0.00    -0.167 NA
ATOM     13  C   UNL     1       0.170  -0.122  -2.527  0.00  0.00    +0.133 C 
BRANCH  12  15
ATOM     14  C   UNL     1      -0.019   1.526   0.010  0.00  0.00    +0.025 C 
ATOM     15  C   UNL     1       0.002  -0.004   0.002  0.00  0.00    +0.074 C 
ATOM     16  C   UNL     1      -1.433  -0.534   0.013  0.00  0.00    +0.025 C 
ENDBRANCH  12  15
ENDBRANCH   9  12
ENDBRANCH   1   9
BRANCH   5  17
ATOM     17  C   UNL     1       2.830  -7.074  -1.490  0.00  0.00    -0.079 C 
BRANCH  17  18
ATOM     18  C   UNL     1       2.730  -8.003  -0.279  0.00  0.00    -0.019 C 
BRANCH  18  19
ATOM     19  C   UNL     1       3.213  -9.402  -0.667  0.00  0.00    -0.004 C 
BRANCH  19  20
ATOM     20  C   UNL     1       3.114 -10.331   0.544  0.00  0.00    -0.020 C 
BRANCH  20  21
ATOM     21  C   UNL     1       3.596 -11.730   0.155  0.00  0.00    -0.086 C 
BRANCH  21  22
ATOM     22  N   UNL     1       3.501 -12.622   1.319  0.00  0.00    +0.378 N 
ATOM     23  H   UNL     1       3.819 -13.544   1.062  0.00  0.00    -0.090 HD
ATOM     24  H   UNL     1       4.077 -12.263   2.066  0.00  0.00    -0.090 HD
ATOM     25  H   UNL     1       2.541 -12.670   1.628  0.00  0.00    -0.090 HD
ENDBRANCH  21  22
ENDBRANCH  20  21
ENDBRANCH  19  20
ENDBRANCH  18  19
ENDBRANCH  17  18
ENDBRANCH   5  17
TORSDOF 9
