REMARK  Name = ZINC08234475
REMARK  2 active torsions:
REMARK  status: ('A' for Active; 'I' for Inactive)
REMARK    1  A    between atoms: C_4  and  N_6
REMARK    2  A    between atoms: C_8  and  C_13
REMARK                            x       y       z     vdW  Elec       q    Type
REMARK                         _______ _______ _______ _____ _____    ______ ____
ROOT
ATOM      1  N   UNL     1      -1.514   3.234   0.730  0.00  0.00    -0.298 N 
ATOM      2  C   UNL     1      -0.817   2.038   1.220  0.00  0.00    +0.121 C 
ATOM      3  C   UNL     1      -0.018   1.503   0.010  0.00  0.00    +0.101 C 
ATOM      4  C   UNL     1      -0.840   2.052  -1.179  0.00  0.00    +0.110 C 
ATOM      5  C   UNL     1      -1.546   3.264  -0.614  0.00  0.00    +0.217 C 
ATOM      6  O   UNL     1      -2.067   4.137  -1.276  0.00  0.00    -0.276 OA
ENDROOT
BRANCH   3   7
ATOM      7  C   UNL     1       0.002  -0.004   0.002  0.00  0.00    +0.221 C 
ATOM      8  O   UNL     1      -0.517  -0.623   0.907  0.00  0.00    -0.275 OA
ATOM      9  N   UNL     1       0.598  -0.664  -1.011  0.00  0.00    -0.301 N 
ATOM     10  C   UNL     1       1.256  -0.043  -2.169  0.00  0.00    +0.108 C 
ATOM     11  C   UNL     1       1.768  -1.184  -3.073  0.00  0.00    +0.020 C 
ATOM     12  C   UNL     1       0.866  -2.379  -2.663  0.00  0.00    +0.020 C 
ATOM     13  C   UNL     1       0.690  -2.130  -1.144  0.00  0.00    +0.108 C 
ENDBRANCH   3   7
BRANCH   1  17
ATOM     14  C   UNL     1      -3.871   5.930   1.435  0.00  0.00    +0.002 C 
ATOM     15  C   UNL     1      -2.591   6.559   0.829  0.00  0.00    +0.002 C 
ATOM     16  C   UNL     1      -1.454   5.628   1.298  0.00  0.00    +0.022 C 
ATOM     17  C   UNL     1      -2.098   4.262   1.594  0.00  0.00    +0.076 C 
ATOM     18  C   UNL     1      -3.604   4.410   1.296  0.00  0.00    +0.022 C 
ENDBRANCH   1  17
TORSDOF 2
