REMARK  Name = ZINC02955460
REMARK  9 active torsions:
REMARK  status: ('A' for Active; 'I' for Inactive)
REMARK    1  A    between atoms: C_1  and  C_2
REMARK    2  A    between atoms: C_5  and  N_8
REMARK    3  A    between atoms: C_10  and  C_22
REMARK    4  A    between atoms: C_13  and  C_20
REMARK    5  A    between atoms: C_16  and  C_19
REMARK    6  A    between atoms: C_20  and  O_21
REMARK    7  A    between atoms: N_24  and  C_25
REMARK    8  A    between atoms: C_30  and  O_31
REMARK    9  A    between atoms: O_31  and  C_32
REMARK                            x       y       z     vdW  Elec       q    Type
REMARK                         _______ _______ _______ _____ _____    ______ ____
ROOT
ATOM      1  N   UNL     1       0.422  -4.546  -0.694  0.00  0.00    -0.325 N 
ATOM      2  C   UNL     1       0.978  -4.841   0.460  0.00  0.00    +0.212 A 
ATOM      3  C   UNL     1       0.739  -6.149   1.104  0.00  0.00    +0.098 A 
ATOM      4  C   UNL     1       1.716  -6.622   1.953  0.00  0.00    +0.030 A 
ATOM      5  C   UNL     1       2.902  -5.785   2.143  0.00  0.00    +0.027 A 
ATOM      6  C   UNL     1       4.056  -6.274   2.767  0.00  0.00    +0.007 A 
ATOM      7  C   UNL     1       5.136  -5.428   2.908  0.00  0.00    +0.117 A 
ATOM      8  N   UNL     1       5.092  -4.184   2.469  0.00  0.00    -0.256 NA
ATOM      9  C   UNL     1       4.030  -3.677   1.877  0.00  0.00    +0.081 A 
ATOM     10  C   UNL     1       2.894  -4.452   1.691  0.00  0.00    +0.159 A 
ATOM     11  O   UNL     1       1.792  -3.955   1.089  0.00  0.00    -0.437 OA
ATOM     12  C   UNL     1       4.048  -2.248   1.400  0.00  0.00    +0.069 C 
ATOM     13  H   UNL     1      -0.060  -5.227  -1.189  0.00  0.00    +0.169 HD
ENDROOT
BRANCH   1  18
ATOM     14  C   UNL     1       0.837   0.686  -2.770  0.00  0.00    +0.044 C 
ATOM     15  C   UNL     1       0.726  -0.711  -2.216  0.00  0.00    -0.050 A 
ATOM     16  C   UNL     1       0.942  -1.799  -3.043  0.00  0.00    +0.005 A 
ATOM     17  C   UNL     1       0.842  -3.080  -2.542  0.00  0.00    +0.026 A 
ATOM     18  C   UNL     1       0.523  -3.278  -1.197  0.00  0.00    +0.042 A 
ATOM     19  C   UNL     1       0.306  -2.175  -0.368  0.00  0.00    +0.026 A 
ATOM     20  C   UNL     1       0.414  -0.899  -0.880  0.00  0.00    +0.005 A 
ENDBRANCH   1  18
BRANCH   3  21
ATOM     21  C   UNL     1      -0.494  -6.916   0.850  0.00  0.00    +0.253 C 
ATOM     22  O   UNL     1      -0.621  -8.034   1.312  0.00  0.00    -0.270 OA
ATOM     23  N   UNL     1      -1.480  -6.378   0.105  0.00  0.00    -0.278 N 
ATOM     24  H   UNL     1      -1.360  -5.506  -0.303  0.00  0.00    +0.155 HD
BRANCH  23  25
ATOM     25  C   UNL     1      -2.679  -7.078  -0.080  0.00  0.00    +0.077 A 
ATOM     26  C   UNL     1      -2.719  -8.452   0.112  0.00  0.00    +0.047 A 
ATOM     27  C   UNL     1      -3.904  -9.141  -0.072  0.00  0.00    +0.043 A 
ATOM     28  C   UNL     1      -5.051  -8.463  -0.446  0.00  0.00    +0.024 A 
ATOM     29  C   UNL     1      -5.018  -7.095  -0.638  0.00  0.00    +0.049 A 
ATOM     30  C   UNL     1      -3.836  -6.397  -0.451  0.00  0.00    +0.141 A 
ATOM     31 CL   UNL     1      -3.952 -10.860   0.167  0.00  0.00    -0.083 Cl
BRANCH  30  32
ATOM     32  O   UNL     1      -3.804  -5.049  -0.633  0.00  0.00    -0.493 OA
ATOM     33  C   UNL     1      -5.028  -4.417  -1.013  0.00  0.00    +0.277 C 
ENDBRANCH  30  32
ENDBRANCH  23  25
ENDBRANCH   3  21
BRANCH   6  34
ATOM     34  C   UNL     1       4.117  -7.693   3.272  0.00  0.00    +0.193 C 
BRANCH  34  35
ATOM     35  O   UNL     1       5.397  -7.934   3.861  0.00  0.00    -0.390 OA
ATOM     36  H   UNL     1       5.507  -8.830   4.208  0.00  0.00    +0.210 HD
ENDBRANCH  34  35
ENDBRANCH   6  34
TORSDOF 6
