REMARK  Name = ZINC18935169
REMARK  14 active torsions:
REMARK  status: ('A' for Active; 'I' for Inactive)
REMARK    1  A    between atoms: C_1  and  C_2
REMARK    2  A    between atoms: C_2  and  C_3
REMARK    3  A    between atoms: C_3  and  C_4
REMARK    4  A    between atoms: C_4  and  N_5
REMARK    5  A    between atoms: N_5  and  C_6
REMARK    6  A    between atoms: C_7  and  N_19
REMARK    7  A    between atoms: N_8  and  C_15
REMARK    8  A    between atoms: C_15  and  C_16
REMARK    9  A    between atoms: C_16  and  C_17
REMARK   10  A    between atoms: C_16  and  C_18
REMARK   11  A    between atoms: C_20  and  C_22
REMARK   12  A    between atoms: C_22  and  N_70
REMARK   13  A    between atoms: C_23  and  N_70
REMARK   14  A    between atoms: C_24  and  N_70
REMARK                            x       y       z     vdW  Elec       q    Type
REMARK                         _______ _______ _______ _____ _____    ______ ____
ROOT
ATOM      1  N   UNL     1      -0.650   0.716   2.203  0.00  0.00    -0.266 N 
ATOM      2  C   UNL     1      -1.132   1.163   1.025  0.00  0.00    +0.203 C 
ATOM      3  O   UNL     1      -2.231   1.676   0.975  0.00  0.00    -0.277 OA
ENDROOT
BRANCH   1   4
ATOM      4  C   UNL     1      -1.464   0.742   3.354  0.00  0.00    +0.140 A 
ATOM      5  C   UNL     1      -1.900   1.942   3.879  0.00  0.00    +0.127 A 
ATOM      6  N   UNL     1      -2.693   1.935   5.003  0.00  0.00    -0.280 N 
ATOM      7  C   UNL     1      -3.040   0.772   5.584  0.00  0.00    +0.331 A 
ATOM      8  O   UNL     1      -3.741   0.787   6.577  0.00  0.00    -0.246 OA
ATOM      9  N   UNL     1      -2.625  -0.407   5.087  0.00  0.00    -0.273 N 
ATOM     10  H   UNL     1      -2.893  -1.257   5.541  0.00  0.00    +0.173 HD
ATOM     11  C   UNL     1      -1.851  -0.456   3.985  0.00  0.00    +0.277 A 
ATOM     12  O   UNL     1      -1.484  -1.530   3.539  0.00  0.00    -0.266 OA
BRANCH   5  13
ATOM     13  N   UNL     1      -1.546   3.129   3.285  0.00  0.00    -0.343 N 
ATOM     14  H   UNL     1      -1.040   3.126   2.458  0.00  0.00    +0.144 HD
ATOM     15  H   UNL     1      -1.801   3.971   3.694  0.00  0.00    +0.144 HD
ENDBRANCH   5  13
BRANCH   6  16
ATOM     16  C   UNL     1      -3.162   3.201   5.571  0.00  0.00    +0.131 C 
BRANCH  16  17
ATOM     17  C   UNL     1      -4.503   3.578   4.937  0.00  0.00    +0.003 C 
ATOM     18  C   UNL     1      -5.560   2.543   5.327  0.00  0.00    +0.009 C 
ATOM     19  C   UNL     1      -4.933   4.959   5.437  0.00  0.00    +0.009 C 
ENDBRANCH  16  17
ENDBRANCH   6  16
ENDBRANCH   1   4
BRANCH   1  20
ATOM     20  C   UNL     1       0.720   0.203   2.286  0.00  0.00    +0.114 C 
BRANCH  20  21
ATOM     21  C   UNL     1       1.658   1.324   2.736  0.00  0.00    +0.019 C 
BRANCH  21  23
ATOM     22  C   UNL     1       4.027   1.910   3.273  0.00  0.00    +0.004 C 
ATOM     23  C   UNL     1       3.089   0.789   2.823  0.00  0.00    -0.002 C 
ENDBRANCH  21  23
ENDBRANCH  20  21
ENDBRANCH   1  20
BRANCH   2  24
ATOM     24  C   UNL     1      -0.307   1.027  -0.229  0.00  0.00    +0.020 C 
BRANCH  24  26
ATOM     25  C   UNL     1      -1.013   3.054  -1.349  0.00  0.00    -0.095 C 
ATOM     26  N   UNL     1      -1.076   1.577  -1.364  0.00  0.00    +0.388 N 
ATOM     27  H   UNL     1      -2.056   1.284  -1.276  0.00  0.00    -0.081 HD
BRANCH  26  28
ATOM     28  C   UNL     1      -0.534   1.061  -2.639  0.00  0.00    -0.037 C 
ATOM     29  C   UNL     1       0.980   1.256  -2.688  0.00  0.00    -0.010 C 
ATOM     30  C   UNL     1       1.524   0.513  -3.914  0.00  0.00    +0.003 C 
ATOM     31  C   UNL     1       1.402  -0.988  -3.661  0.00  0.00    +0.035 C 
ATOM     32  C   UNL     1       0.004  -1.340  -3.226  0.00  0.00    -0.046 A 
ATOM     33  C   UNL     1      -0.884  -0.399  -2.753  0.00  0.00    -0.058 A 
ATOM     34  C   UNL     1      -2.157  -0.791  -2.361  0.00  0.00    +0.002 A 
ATOM     35  C   UNL     1      -2.540  -2.114  -2.445  0.00  0.00    +0.000 A 
ATOM     36  C   UNL     1      -1.651  -3.057  -2.923  0.00  0.00    +0.000 A 
ATOM     37  C   UNL     1      -0.385  -2.670  -3.312  0.00  0.00    +0.004 A 
ENDBRANCH  26  28
ENDBRANCH  24  26
ENDBRANCH   2  24
TORSDOF 10
