REMARK  Name = ZINC28537329
REMARK  8 active torsions:
REMARK  status: ('A' for Active; 'I' for Inactive)
REMARK    1  A    between atoms: C_1  and  C_2
REMARK    2  A    between atoms: C_2  and  C_3
REMARK    3  A    between atoms: C_8  and  N_9
REMARK    4  A    between atoms: N_13  and  C_26
REMARK    5  A    between atoms: C_14  and  S_17
REMARK    6  A    between atoms: S_17  and  C_18
REMARK    7  A    between atoms: C_18  and  C_19
REMARK    8  A    between atoms: C_26  and  C_27
REMARK                            x       y       z     vdW  Elec       q    Type
REMARK                         _______ _______ _______ _____ _____    ______ ____
ROOT
ATOM      1  N   UNL     1      -2.850   2.115  -4.622  0.00  0.00    -0.293 N 
ATOM      2  C   UNL     1      -2.883   1.503  -3.368  0.00  0.00    +0.211 A 
ATOM      3  C   UNL     1      -2.054   1.977  -2.316  0.00  0.00    +0.296 A 
ATOM      4  O   UNL     1      -1.302   2.921  -2.486  0.00  0.00    -0.264 OA
ATOM      5  N   UNL     1      -2.120   1.345  -1.121  0.00  0.00    -0.280 N 
ATOM      6  C   UNL     1      -2.984   0.297  -0.985  0.00  0.00    +0.194 A 
ATOM      7  N   UNL     1      -3.732  -0.093  -1.999  0.00  0.00    -0.122 NA
ATOM      8  N   UNL     1      -3.686   0.485  -3.145  0.00  0.00    -0.126 NA
ATOM      9  H   UNL     1      -2.251   3.025  -4.775  0.00  0.00    +0.154 HD
ENDROOT
BRANCH   1  15
ATOM     10  C   UNL     1      -3.973   2.380  -6.742  0.00  0.00    -0.026 A 
ATOM     11  C   UNL     1      -4.693   1.840  -7.789  0.00  0.00    +0.005 A 
ATOM     12  C   UNL     1      -5.022   0.497  -7.785  0.00  0.00    +0.000 A 
ATOM     13  C   UNL     1      -4.631  -0.310  -6.732  0.00  0.00    +0.002 A 
ATOM     14  C   UNL     1      -3.906   0.222  -5.684  0.00  0.00    +0.023 A 
ATOM     15  C   UNL     1      -3.579   1.572  -5.683  0.00  0.00    +0.036 A 
BRANCH  10  17
ATOM     16  C   UNL     1      -2.210   4.024  -7.326  0.00  0.00    +0.009 C 
ATOM     17  C   UNL     1      -3.615   3.844  -6.748  0.00  0.00    +0.033 C 
ENDBRANCH  10  17
ENDBRANCH   1  15
BRANCH   6  18
ATOM     18  S   UNL     1      -3.100  -0.544   0.560  0.00  0.00    -0.081 S 
BRANCH  18  19
ATOM     19  C   UNL     1      -4.353  -1.784   0.149  0.00  0.00    +0.112 C 
BRANCH  19  20
ATOM     20  C   UNL     1      -4.622  -2.645   1.356  0.00  0.00    -0.037 A 
ATOM     21  C   UNL     1      -3.887  -3.798   1.561  0.00  0.00    +0.005 A 
ATOM     22  C   UNL     1      -4.131  -4.585   2.671  0.00  0.00    +0.015 A 
ATOM     23  C   UNL     1      -5.117  -4.224   3.571  0.00  0.00    +0.018 A 
ATOM     24  C   UNL     1      -5.856  -3.073   3.363  0.00  0.00    +0.015 A 
ATOM     25  C   UNL     1      -5.608  -2.284   2.256  0.00  0.00    +0.005 A 
ATOM     26 BR   UNL     1      -5.455  -5.304   5.086  0.00  0.00    -0.050 Br
ENDBRANCH  19  20
ENDBRANCH  18  19
ENDBRANCH   6  18
BRANCH   5  27
ATOM     27  C   UNL     1      -1.288   1.780   0.003  0.00  0.00    +0.154 C 
BRANCH  27  28
ATOM     28  C   UNL     1       0.021   1.033  -0.022  0.00  0.00    -0.013 C 
ATOM     29  C   UNL     1       1.152   1.694  -0.037  0.00  0.00    +0.005 C 
ENDBRANCH  27  28
ENDBRANCH   5  27
TORSDOF 7
