REMARK  Name = ZINC08309949
REMARK  8 active torsions:
REMARK  status: ('A' for Active; 'I' for Inactive)
REMARK    1  A    between atoms: C_1  and  C_2
REMARK    2  A    between atoms: C_6  and  C_7
REMARK    3  A    between atoms: C_7  and  N_48
REMARK    4  A    between atoms: C_8  and  N_48
REMARK    5  A    between atoms: C_9  and  C_10
REMARK    6  A    between atoms: C_9  and  N_48
REMARK    7  A    between atoms: N_12  and  C_13
REMARK    8  A    between atoms: C_14  and  C_22
REMARK                            x       y       z     vdW  Elec       q    Type
REMARK                         _______ _______ _______ _____ _____    ______ ____
ROOT
ATOM      1  C   UNL     1       1.141   2.072   0.002  0.00  0.00    +0.201 C 
ATOM      2  O   UNL     1       2.200   1.480  -0.011  0.00  0.00    -0.278 OA
ATOM      3  N   UNL     1      -0.017   1.382   0.010  0.00  0.00    -0.281 N 
ATOM      4  H   UNL     1      -0.863   1.856   0.016  0.00  0.00    +0.155 HD
ENDROOT
BRANCH   3   5
ATOM      5  C   UNL     1       0.002  -0.004   0.002  0.00  0.00    +0.084 A 
ATOM      6  C   UNL     1      -1.073  -0.881   0.013  0.00  0.00    +0.068 A 
ATOM      7  C   UNL     1      -0.780  -2.304  -0.003  0.00  0.00    -0.023 A 
ATOM      8  C   UNL     1       0.533  -2.620  -0.016  0.00  0.00    -0.004 A 
ATOM      9  S   UNL     1       1.374  -1.062  -0.016  0.00  0.00    -0.077 S 
ATOM     10  C   UNL     1       1.132  -3.993  -0.028  0.00  0.00    +0.043 C 
ATOM     11  C   UNL     1       0.038  -5.000   0.356  0.00  0.00    +0.005 C 
ATOM     12  C   UNL     1      -1.218  -4.703  -0.467  0.00  0.00    +0.005 C 
ATOM     13  C   UNL     1      -1.848  -3.390   0.002  0.00  0.00    +0.037 C 
BRANCH   6  14
ATOM     14  C   UNL     1      -2.455  -0.390   0.036  0.00  0.00    +0.244 C 
ATOM     15  O   UNL     1      -3.044  -0.181  -1.008  0.00  0.00    -0.270 OA
ATOM     16  N   UNL     1      -3.072  -0.170   1.214  0.00  0.00    -0.325 N 
ATOM     17  H   UNL     1      -2.603  -0.337   2.046  0.00  0.00    +0.145 HD
ATOM     18  H   UNL     1      -3.986   0.155   1.229  0.00  0.00    +0.145 HD
ENDBRANCH   6  14
ENDBRANCH   3   5
BRANCH   1  19
ATOM     19  C   UNL     1       1.121   3.579   0.011  0.00  0.00    +0.019 C 
BRANCH  19  21
ATOM     20  C   UNL     1       3.197   3.740   1.245  0.00  0.00    -0.095 C 
ATOM     21  N   UNL     1       2.513   4.075  -0.022  0.00  0.00    +0.387 N 
ATOM     22  H   UNL     1       3.010   3.623  -0.798  0.00  0.00    -0.081 HD
BRANCH  21  23
ATOM     23  C   UNL     1       2.523   5.538  -0.231  0.00  0.00    -0.035 C 
BRANCH  23  29
ATOM     24  C   UNL     1       3.948   5.689  -2.948  0.00  0.00    +0.044 C 
ATOM     25  C   UNL     1       4.616   6.069  -1.651  0.00  0.00    -0.042 A 
ATOM     26  C   UNL     1       5.925   6.513  -1.641  0.00  0.00    +0.011 A 
ATOM     27  C   UNL     1       6.498   6.840  -0.457  0.00  0.00    +0.045 A 
ATOM     28  S   UNL     1       5.170   6.529   0.695  0.00  0.00    -0.103 S 
ATOM     29  C   UNL     1       3.941   5.984  -0.479  0.00  0.00    -0.024 A 
ENDBRANCH  23  29
ENDBRANCH  21  23
ENDBRANCH  19  21
ENDBRANCH   1  19
TORSDOF 6
