REMARK  Name = ZINC14182937
REMARK  12 active torsions:
REMARK  status: ('A' for Active; 'I' for Inactive)
REMARK    1  A    between atoms: C_1  and  N_55
REMARK    2  A    between atoms: C_2  and  C_3
REMARK    3  A    between atoms: C_2  and  N_55
REMARK    4  A    between atoms: N_5  and  C_6
REMARK    5  A    between atoms: C_14  and  C_15
REMARK    6  A    between atoms: C_14  and  N_55
REMARK    7  A    between atoms: N_17  and  C_18
REMARK    8  A    between atoms: N_17  and  C_23
REMARK    9  A    between atoms: C_18  and  C_19
REMARK   10  A    between atoms: C_19  and  C_20
REMARK   11  A    between atoms: C_26  and  O_29
REMARK   12  A    between atoms: O_29  and  C_30
REMARK                            x       y       z     vdW  Elec       q    Type
REMARK                         _______ _______ _______ _____ _____    ______ ____
ROOT
ATOM      1  C   UNL     1       0.675  -3.540  -1.967  0.00  0.00    +0.203 C 
ATOM      2  O   UNL     1      -0.295  -2.977  -2.427  0.00  0.00    -0.277 OA
ATOM      3  N   UNL     1       1.911  -3.053  -2.197  0.00  0.00    -0.272 N 
ENDROOT
BRANCH   3   4
ATOM      4  C   UNL     1       2.068  -1.838  -2.877  0.00  0.00    +0.036 A 
ATOM      5  C   UNL     1       1.657  -0.651  -2.285  0.00  0.00    +0.027 A 
ATOM      6  C   UNL     1       1.813   0.545  -2.957  0.00  0.00    +0.047 A 
ATOM      7  C   UNL     1       2.381   0.562  -4.222  0.00  0.00    +0.120 A 
ATOM      8  C   UNL     1       2.793  -0.623  -4.814  0.00  0.00    +0.047 A 
ATOM      9  C   UNL     1       2.637  -1.820  -4.144  0.00  0.00    +0.027 A 
BRANCH   7  10
ATOM     10  O   UNL     1       2.534   1.741  -4.883  0.00  0.00    -0.495 OA
ATOM     11  C   UNL     1       3.126   1.684  -6.182  0.00  0.00    +0.277 C 
ENDBRANCH   7  10
ENDBRANCH   3   4
BRANCH   1  12
ATOM     12  C   UNL     1       0.500  -4.786  -1.137  0.00  0.00    +0.019 C 
BRANCH  12  14
ATOM     13  C   UNL     1      -1.648  -4.079  -0.274  0.00  0.00    -0.095 C 
ATOM     14  N   UNL     1      -0.940  -5.110  -1.061  0.00  0.00    +0.389 N 
ATOM     15  H   UNL     1      -1.328  -5.128  -2.012  0.00  0.00    -0.081 HD
BRANCH  14  16
ATOM     16  C   UNL     1      -1.128  -6.438  -0.440  0.00  0.00    +0.019 C 
BRANCH  16  17
ATOM     17  C   UNL     1      -2.575  -6.837  -0.574  0.00  0.00    +0.201 C 
ATOM     18  O   UNL     1      -3.363  -6.089  -1.112  0.00  0.00    -0.278 OA
ATOM     19  N   UNL     1      -2.993  -8.026  -0.096  0.00  0.00    -0.285 N 
ATOM     20  H   UNL     1      -2.382  -8.589   0.405  0.00  0.00    +0.155 HD
BRANCH  19  21
ATOM     21  C   UNL     1      -4.308  -8.448  -0.322  0.00  0.00    +0.070 A 
ATOM     22  C   UNL     1      -5.372  -7.615   0.002  0.00  0.00    +0.064 A 
ATOM     23  C   UNL     1      -6.670  -8.033  -0.227  0.00  0.00    +0.022 A 
ATOM     24  C   UNL     1      -6.910  -9.283  -0.768  0.00  0.00    +0.003 A 
ATOM     25  C   UNL     1      -5.854 -10.117  -1.087  0.00  0.00    +0.022 A 
ATOM     26  C   UNL     1      -4.553  -9.703  -0.865  0.00  0.00    +0.064 A 
ATOM     27 CL   UNL     1      -3.228 -10.751  -1.265  0.00  0.00    -0.082 Cl
ATOM     28 CL   UNL     1      -5.072  -6.048   0.687  0.00  0.00    -0.082 Cl
ENDBRANCH  19  21
ENDBRANCH  16  17
ENDBRANCH  14  16
ENDBRANCH  12  14
ENDBRANCH   1  12
BRANCH   3  29
ATOM     29  C   UNL     1       3.088  -3.792  -1.736  0.00  0.00    +0.123 C 
BRANCH  29  30
ATOM     30  C   UNL     1       3.452  -3.340  -0.320  0.00  0.00    +0.115 C 
BRANCH  30  31
ATOM     31  C   UNL     1       4.663  -4.101   0.155  0.00  0.00    +0.212 C 
ATOM     32  O   UNL     1       5.184  -4.923  -0.568  0.00  0.00    -0.276 OA
ATOM     33  N   UNL     1       5.167  -3.867   1.383  0.00  0.00    -0.329 N 
ATOM     34  H   UNL     1       4.750  -3.209   1.961  0.00  0.00    +0.145 HD
ATOM     35  H   UNL     1       5.947  -4.356   1.688  0.00  0.00    +0.145 HD
ENDBRANCH  30  31
ENDBRANCH  29  30
ENDBRANCH   3  29
TORSDOF 10
