REMARK  Name = ZINC08772557
REMARK  12 active torsions:
REMARK  status: ('A' for Active; 'I' for Inactive)
REMARK    1  A    between atoms: C_1  and  C_2
REMARK    2  A    between atoms: C_5  and  C_8
REMARK    3  A    between atoms: C_8  and  N_9
REMARK    4  A    between atoms: C_10  and  C_12
REMARK    5  A    between atoms: C_17  and  N_18
REMARK    6  A    between atoms: C_19  and  C_21
REMARK    7  A    between atoms: C_21  and  N_60
REMARK    8  A    between atoms: C_22  and  C_24
REMARK    9  A    between atoms: C_22  and  C_25
REMARK   10  A    between atoms: C_22  and  N_60
REMARK   11  A    between atoms: C_30  and  O_31
REMARK   12  A    between atoms: O_31  and  C_32
REMARK                            x       y       z     vdW  Elec       q    Type
REMARK                         _______ _______ _______ _____ _____    ______ ____
ROOT
ATOM      1  C   UNL     1       3.838  -5.316   3.225  0.00  0.00    +0.058 A 
ATOM      2  C   UNL     1       5.063  -5.809   3.680  0.00  0.00    +0.015 A 
ATOM      3  C   UNL     1       6.181  -5.003   3.652  0.00  0.00    +0.001 A 
ATOM      4  C   UNL     1       6.097  -3.705   3.175  0.00  0.00    +0.002 A 
ATOM      5  C   UNL     1       4.894  -3.206   2.716  0.00  0.00    +0.024 A 
ATOM      6  C   UNL     1       3.756  -4.001   2.742  0.00  0.00    +0.045 A 
ENDROOT
BRANCH   1   8
ATOM      7  N   UNL     1       2.694  -7.395   3.817  0.00  0.00    -0.307 N 
ATOM      8  C   UNL     1       2.637  -6.172   3.252  0.00  0.00    +0.246 C 
ATOM      9  O   UNL     1       1.596  -5.776   2.764  0.00  0.00    -0.270 OA
ATOM     10  H   UNL     1       3.524  -7.711   4.206  0.00  0.00    +0.149 HD
BRANCH   7  11
ATOM     11  C   UNL     1       1.502  -8.245   3.843  0.00  0.00    +0.139 C 
BRANCH  11  16
ATOM     12  C   UNL     1       2.759 -13.243   6.457  0.00  0.00    +0.044 C 
ATOM     13  C   UNL     1       2.430 -11.940   5.776  0.00  0.00    -0.050 A 
ATOM     14  C   UNL     1       1.967 -10.870   6.517  0.00  0.00    +0.003 A 
ATOM     15  C   UNL     1       1.666  -9.674   5.892  0.00  0.00    +0.005 A 
ATOM     16  C   UNL     1       1.830  -9.549   4.525  0.00  0.00    -0.030 A 
ATOM     17  C   UNL     1       2.288 -10.621   3.783  0.00  0.00    +0.005 A 
ATOM     18  C   UNL     1       2.593 -11.815   4.409  0.00  0.00    +0.003 A 
ENDBRANCH  11  16
ENDBRANCH   7  11
ENDBRANCH   1   8
BRANCH   6  19
ATOM     19  N   UNL     1       2.540  -3.498   2.285  0.00  0.00    -0.286 N 
ATOM     20  C   UNL     1       2.513  -2.645   1.242  0.00  0.00    +0.200 C 
ATOM     21  O   UNL     1       3.551  -2.252   0.753  0.00  0.00    -0.278 OA
ATOM     22  H   UNL     1       1.713  -3.761   2.718  0.00  0.00    +0.155 HD
BRANCH  20  23
ATOM     23  C   UNL     1       1.193  -2.178   0.684  0.00  0.00    +0.016 C 
BRANCH  23  24
ATOM     24  N   UNL     1       1.443  -1.259  -0.442  0.00  0.00    +0.389 N 
ATOM     25  H   UNL     1       1.974  -1.752  -1.170  0.00  0.00    -0.084 HD
ATOM     26  H   UNL     1       1.984  -0.453  -0.108  0.00  0.00    -0.084 HD
BRANCH  24  27
ATOM     27  C   UNL     1       0.166  -0.786  -1.009  0.00  0.00    -0.040 C 
ATOM     28  C   UNL     1      -0.346  -1.802  -2.033  0.00  0.00    -0.009 C 
BRANCH  27  29
ATOM     29  C   UNL     1       0.387   0.542  -1.687  0.00  0.00    -0.020 A 
ATOM     30  C   UNL     1       1.642   0.877  -2.156  0.00  0.00    +0.005 A 
ATOM     31  C   UNL     1       1.846   2.095  -2.778  0.00  0.00    +0.000 A 
ATOM     32  C   UNL     1       0.795   2.980  -2.932  0.00  0.00    +0.004 A 
ATOM     33  C   UNL     1      -0.462   2.650  -2.464  0.00  0.00    +0.046 A 
ATOM     34  C   UNL     1      -0.670   1.426  -1.844  0.00  0.00    +0.122 A 
BRANCH  34  35
ATOM     35  O   UNL     1      -1.907   1.095  -1.388  0.00  0.00    -0.495 OA
ATOM     36  C   UNL     1      -2.948   2.054  -1.585  0.00  0.00    +0.277 C 
ENDBRANCH  34  35
ENDBRANCH  27  29
ENDBRANCH  24  27
ENDBRANCH  23  24
ENDBRANCH  20  23
ENDBRANCH   6  19
TORSDOF 9
