REMARK  Name = ZINC65515329
REMARK  3 active torsions:
REMARK  status: ('A' for Active; 'I' for Inactive)
REMARK    1  A    between atoms: C_9  and  C_11
REMARK    2  A    between atoms: N_17  and  C_20
REMARK    3  A    between atoms: C_20  and  C_21
REMARK                            x       y       z     vdW  Elec       q    Type
REMARK                         _______ _______ _______ _____ _____    ______ ____
ROOT
ATOM      1  C   UNL     1       1.401  -2.385   0.056  0.00  0.00    +0.249 C 
ATOM      2  O   UNL     1       2.385  -3.099   0.024  0.00  0.00    -0.270 OA
ATOM      3  N   UNL     1       0.172  -2.935   0.110  0.00  0.00    -0.299 N 
ATOM      4  C   UNL     1      -1.008  -2.050   0.026  0.00  0.00    +0.106 C 
ATOM      5  C   UNL     1      -2.099  -2.666  -0.869  0.00  0.00    +0.000 C 
ATOM      6  C   UNL     1      -1.454  -3.324  -2.069  0.00  0.00    -0.077 C 
ATOM      7  N   UNL     1      -1.230  -4.739  -1.780  0.00  0.00    +0.386 N 
ATOM      8  C   UNL     1       0.000  -5.030  -1.150  0.00  0.00    -0.059 C 
ATOM      9  C   UNL     1       0.054  -4.372   0.243  0.00  0.00    +0.089 C 
ATOM     10  H   UNL     1      -1.977  -5.064  -1.186  0.00  0.00    -0.081 HD
ENDROOT
BRANCH   1  19
ATOM     11  C   UNL     1       1.080   1.239   1.000  0.00  0.00    +0.001 A 
ATOM     12  C   UNL     1       1.825   1.860   0.020  0.00  0.00    +0.010 A 
ATOM     13  C   UNL     1       2.447   1.100  -0.972  0.00  0.00    +0.004 A 
ATOM     14  C   UNL     1       3.286   1.419  -2.124  0.00  0.00    -0.019 A 
ATOM     15  C   UNL     1       3.596   0.256  -2.726  0.00  0.00    +0.020 A 
ATOM     16  N   UNL     1       3.020  -0.780  -2.046  0.00  0.00    -0.357 N 
ATOM     17  H   UNL     1       3.098  -1.716  -2.287  0.00  0.00    +0.166 HD
ATOM     18  C   UNL     1       2.314  -0.301  -0.971  0.00  0.00    +0.059 A 
ATOM     19  C   UNL     1       1.553  -0.918   0.035  0.00  0.00    +0.061 A 
ATOM     20  C   UNL     1       0.941  -0.137   1.014  0.00  0.00    +0.015 A 
ATOM     21  C   UNL     1       4.454   0.158  -3.967  0.00  0.00    +0.053 C 
ATOM     22  C   UNL     1       4.528   1.543  -4.618  0.00  0.00    +0.006 C 
ATOM     23  C   UNL     1       4.914   2.584  -3.564  0.00  0.00    +0.005 C 
ATOM     24  C   UNL     1       3.746   2.776  -2.589  0.00  0.00    +0.037 C 
ENDBRANCH   1  19
BRANCH   7  25
ATOM     25  C   UNL     1      -1.292  -5.485  -3.044  0.00  0.00    +0.018 C 
BRANCH  25  26
ATOM     26  C   UNL     1      -2.696  -5.435  -3.589  0.00  0.00    +0.194 C 
ATOM     27  O   UNL     1      -3.584  -4.934  -2.931  0.00  0.00    -0.278 OA
ATOM     28  N   UNL     1      -2.965  -5.946  -4.806  0.00  0.00    -0.331 N 
ATOM     29  H   UNL     1      -2.255  -6.346  -5.332  0.00  0.00    +0.145 HD
ATOM     30  H   UNL     1      -3.869  -5.914  -5.157  0.00  0.00    +0.145 HD
ENDBRANCH  25  26
ENDBRANCH   7  25
TORSDOF 3
