REMARK  Name = ZINC03666125
REMARK  12 active torsions:
REMARK  status: ('A' for Active; 'I' for Inactive)
REMARK    1  A    between atoms: C_1  and  C_2
REMARK    2  A    between atoms: C_2  and  C_3
REMARK    3  A    between atoms: C_3  and  C_4
REMARK    4  A    between atoms: C_4  and  O_5
REMARK    5  A    between atoms: O_5  and  C_6
REMARK    6  A    between atoms: C_9  and  N_12
REMARK    7  A    between atoms: C_13  and  C_15
REMARK    8  A    between atoms: C_15  and  S_16
REMARK    9  A    between atoms: S_16  and  C_17
REMARK   10  A    between atoms: C_22  and  N_26
REMARK   11  A    between atoms: C_27  and  C_29
REMARK   12  A    between atoms: C_33  and  C_35
REMARK                            x       y       z     vdW  Elec       q    Type
REMARK                         _______ _______ _______ _____ _____    ______ ____
ROOT
ATOM      1  C   UNL     1       0.251   0.545  -2.137  0.00  0.00    +0.136 A 
ATOM      2  N   UNL     1       1.335  -0.180  -1.981  0.00  0.00    -0.233 NA
ATOM      3  C   UNL     1       2.051  -0.651  -3.027  0.00  0.00    +0.080 A 
ATOM      4  C   UNL     1       3.226  -1.437  -2.997  0.00  0.00    +0.031 A 
ATOM      5  C   UNL     1       3.832  -1.834  -4.148  0.00  0.00    +0.025 A 
ATOM      6  C   UNL     1       3.323  -1.485  -5.397  0.00  0.00    +0.035 A 
ATOM      7  C   UNL     1       2.170  -0.713  -5.467  0.00  0.00    +0.040 A 
ATOM      8  C   UNL     1       1.557  -0.312  -4.307  0.00  0.00    +0.042 A 
ATOM      9  S   UNL     1       0.111   0.643  -3.916  0.00  0.00    -0.061 S 
ENDROOT
BRANCH   6  10
ATOM     10  N   UNL     1       3.966  -1.907  -6.567  0.00  0.00    -0.281 N 
ATOM     11  C   UNL     1       3.940  -1.131  -7.668  0.00  0.00    +0.248 C 
ATOM     12  O   UNL     1       3.439  -0.024  -7.620  0.00  0.00    -0.270 OA
ATOM     13  H   UNL     1       4.431  -2.758  -6.585  0.00  0.00    +0.155 HD
BRANCH  11  14
ATOM     14  C   UNL     1       4.519  -1.625  -8.935  0.00  0.00    +0.037 A 
ATOM     15  C   UNL     1       5.095  -2.895  -8.994  0.00  0.00    +0.013 A 
ATOM     16  C   UNL     1       5.634  -3.350 -10.180  0.00  0.00    +0.001 A 
ATOM     17  C   UNL     1       5.605  -2.550 -11.309  0.00  0.00    +0.003 A 
ATOM     18  C   UNL     1       5.035  -1.291 -11.257  0.00  0.00    -0.050 A 
ATOM     19  C   UNL     1       4.488  -0.826 -10.079  0.00  0.00    +0.016 A 
ATOM     20  C   UNL     1       5.007  -0.427 -12.492  0.00  0.00    +0.044 C 
ENDBRANCH  11  14
ENDBRANCH   6  10
BRANCH   1  21
ATOM     21  S   UNL     1      -0.801   1.238  -0.906  0.00  0.00    -0.089 S 
BRANCH  21  22
ATOM     22  C   UNL     1       0.042   0.664   0.589  0.00  0.00    +0.172 C 
BRANCH  22  24
ATOM     23  N   UNL     1      -0.254   0.843   3.038  0.00  0.00    -0.285 N 
ATOM     24  C   UNL     1      -0.702   1.151   1.805  0.00  0.00    +0.227 C 
ATOM     25  O   UNL     1      -1.705   1.822   1.674  0.00  0.00    -0.275 OA
ATOM     26  H   UNL     1       0.587   0.371   3.145  0.00  0.00    +0.155 HD
BRANCH  23  30
ATOM     27  C   UNL     1      -2.482   1.915   6.396  0.00  0.00    +0.121 A 
ATOM     28  C   UNL     1      -3.127   1.574   5.216  0.00  0.00    +0.047 A 
ATOM     29  C   UNL     1      -2.390   1.219   4.104  0.00  0.00    +0.027 A 
ATOM     30  C   UNL     1      -1.003   1.204   4.166  0.00  0.00    +0.034 A 
ATOM     31  C   UNL     1      -0.358   1.541   5.349  0.00  0.00    +0.027 A 
ATOM     32  C   UNL     1      -1.097   1.901   6.459  0.00  0.00    +0.047 A 
BRANCH  27  33
ATOM     33  O   UNL     1      -3.209   2.265   7.490  0.00  0.00    -0.492 OA
BRANCH  33  34
ATOM     34  C   UNL     1      -2.480   2.605   8.671  0.00  0.00    +0.229 C 
BRANCH  34  35
ATOM     35  C   UNL     1      -3.460   2.967   9.789  0.00  0.00    +0.041 C 
BRANCH  35  37
ATOM     36  C   UNL     1      -3.659   3.693  12.172  0.00  0.00    +0.004 C 
ATOM     37  C   UNL     1      -2.679   3.331  11.054  0.00  0.00    -0.000 C 
ENDBRANCH  35  37
ENDBRANCH  34  35
ENDBRANCH  33  34
ENDBRANCH  27  33
ENDBRANCH  23  30
ENDBRANCH  22  24
ENDBRANCH  21  22
ENDBRANCH   1  21
TORSDOF 10
