REMARK  Name = ZINC39772051
REMARK  12 active torsions:
REMARK  status: ('A' for Active; 'I' for Inactive)
REMARK    1  A    between atoms: C_1  and  C_2
REMARK    2  A    between atoms: C_2  and  C_4
REMARK    3  A    between atoms: C_2  and  N_25
REMARK    4  A    between atoms: C_7  and  S_10
REMARK    5  A    between atoms: N_8  and  C_9
REMARK    6  A    between atoms: S_10  and  C_11
REMARK    7  A    between atoms: C_11  and  C_13
REMARK    8  A    between atoms: C_11  and  C_14
REMARK    9  A    between atoms: N_16  and  C_17
REMARK   10  A    between atoms: C_20  and  O_23
REMARK   11  A    between atoms: O_23  and  C_24
REMARK   12  A    between atoms: C_26  and  C_28
REMARK                            x       y       z     vdW  Elec       q    Type
REMARK                         _______ _______ _______ _____ _____    ______ ____
ROOT
ATOM      1  C   UNL     1      -1.409  -0.541   0.033  0.00  0.00    +0.154 A 
ATOM      2  N   UNL     1      -2.220  -0.560   1.053  0.00  0.00    -0.132 NA
ATOM      3  N   UNL     1      -3.349  -1.069   0.709  0.00  0.00    -0.122 NA
ATOM      4  C   UNL     1      -3.318  -1.406  -0.560  0.00  0.00    +0.192 A 
ATOM      5  N   UNL     1      -2.080  -1.075  -1.032  0.00  0.00    -0.308 N 
ATOM      6  C   UNL     1      -1.576  -1.256  -2.395  0.00  0.00    +0.152 C 
ENDROOT
BRANCH   1   8
ATOM      7  C   UNL     1      -0.012   1.508   0.047  0.00  0.00    +0.036 C 
ATOM      8  C   UNL     1       0.006  -0.022   0.028  0.00  0.00    +0.138 C 
BRANCH   8   9
ATOM      9  N   UNL     1       0.713  -0.517   1.212  0.00  0.00    -0.302 N 
ATOM     10  C   UNL     1       2.056  -0.630   1.197  0.00  0.00    +0.245 C 
ATOM     11  O   UNL     1       2.681  -0.321   0.201  0.00  0.00    -0.270 OA
ATOM     12  H   UNL     1       0.214  -0.764   2.006  0.00  0.00    +0.150 HD
BRANCH  10  13
ATOM     13  C   UNL     1       2.769  -1.130   2.391  0.00  0.00    +0.038 A 
ATOM     14  C   UNL     1       2.053  -1.491   3.534  0.00  0.00    +0.014 A 
ATOM     15  C   UNL     1       2.723  -1.956   4.646  0.00  0.00    +0.022 A 
ATOM     16  C   UNL     1       4.104  -2.066   4.631  0.00  0.00    +0.059 A 
ATOM     17  C   UNL     1       4.820  -1.709   3.499  0.00  0.00    +0.060 A 
ATOM     18  C   UNL     1       4.160  -1.247   2.378  0.00  0.00    +0.034 A 
ATOM     19 CL   UNL     1       6.550  -1.849   3.489  0.00  0.00    -0.082 Cl
ATOM     20 CL   UNL     1       4.940  -2.651   6.035  0.00  0.00    -0.082 Cl
ENDBRANCH  10  13
ENDBRANCH   8   9
ENDBRANCH   1   8
BRANCH   4  21
ATOM     21  S   UNL     1      -4.628  -2.140  -1.481  0.00  0.00    -0.074 S 
BRANCH  21  22
ATOM     22  C   UNL     1      -5.974  -2.304  -0.276  0.00  0.00    +0.137 C 
ATOM     23  C   UNL     1      -5.562  -3.289   0.819  0.00  0.00    +0.029 C 
BRANCH  22  24
ATOM     24  C   UNL     1      -7.211  -2.812  -0.970  0.00  0.00    +0.230 C 
ATOM     25  O   UNL     1      -7.111  -3.458  -1.992  0.00  0.00    -0.274 OA
ATOM     26  N   UNL     1      -8.429  -2.550  -0.455  0.00  0.00    -0.285 N 
ATOM     27  H   UNL     1      -8.507  -2.093   0.396  0.00  0.00    +0.155 HD
BRANCH  26  28
ATOM     28  C   UNL     1      -9.582  -2.939  -1.150  0.00  0.00    +0.034 A 
ATOM     29  C   UNL     1     -10.718  -2.142  -1.111  0.00  0.00    +0.027 A 
ATOM     30  C   UNL     1     -11.854  -2.525  -1.797  0.00  0.00    +0.047 A 
ATOM     31  C   UNL     1     -11.860  -3.707  -2.524  0.00  0.00    +0.120 A 
ATOM     32  C   UNL     1     -10.725  -4.504  -2.563  0.00  0.00    +0.047 A 
ATOM     33  C   UNL     1      -9.587  -4.118  -1.883  0.00  0.00    +0.027 A 
BRANCH  31  34
ATOM     34  O   UNL     1     -12.979  -4.084  -3.199  0.00  0.00    -0.495 OA
ATOM     35  C   UNL     1     -12.914  -5.312  -3.926  0.00  0.00    +0.277 C 
ENDBRANCH  31  34
ENDBRANCH  26  28
ENDBRANCH  22  24
ENDBRANCH  21  22
ENDBRANCH   4  21
TORSDOF 8
