REMARK  Name = ZINC43262456
REMARK  7 active torsions:
REMARK  status: ('A' for Active; 'I' for Inactive)
REMARK    1  A    between atoms: C_1  and  C_2
REMARK    2  A    between atoms: C_2  and  C_4
REMARK    3  A    between atoms: C_2  and  N_23
REMARK    4  A    between atoms: C_4  and  C_6
REMARK    5  A    between atoms: C_4  and  N_12
REMARK    6  A    between atoms: C_17  and  C_19
REMARK    7  A    between atoms: N_21  and  C_22
REMARK                            x       y       z     vdW  Elec       q    Type
REMARK                         _______ _______ _______ _____ _____    ______ ____
ROOT
ATOM      1  C   UNL     1       0.568  -1.300   1.834  0.00  0.00    +0.080 C 
ENDROOT
BRANCH   1   2
ATOM      2  C   UNL     1       0.383  -1.679   0.387  0.00  0.00    +0.006 A 
ATOM      3  C   UNL     1       1.300  -2.136  -0.499  0.00  0.00    +0.014 A 
ATOM      4  C   UNL     1       0.899  -2.424  -1.791  0.00  0.00    +0.023 A 
ATOM      5  C   UNL     1      -0.400  -2.240  -2.132  0.00  0.00    +0.055 A 
ATOM      6  S   UNL     1      -1.104  -1.650  -0.601  0.00  0.00    -0.085 S 
ATOM      7 BR   UNL     1      -1.248  -2.537  -3.796  0.00  0.00    -0.043 Br
ENDBRANCH   1   2
BRANCH   1   8
ATOM      8  N   UNL     1       0.065   0.063   2.051  0.00  0.00    -0.286 NA
ATOM      9  C   UNL     1      -1.403   0.093   2.026  0.00  0.00    +0.086 C 
ATOM     10  C   UNL     1      -1.887   1.542   2.109  0.00  0.00    +0.015 C 
ATOM     11  C   UNL     1      -1.367   2.175   3.403  0.00  0.00    +0.003 C 
ATOM     12  C   UNL     1       0.161   2.088   3.426  0.00  0.00    +0.028 C 
ATOM     13  C   UNL     1       0.586   0.623   3.305  0.00  0.00    +0.143 C 
BRANCH  13  14
ATOM     14  C   UNL     1       2.090   0.534   3.307  0.00  0.00    +0.230 C 
ATOM     15  O   UNL     1       2.703   0.591   2.262  0.00  0.00    -0.274 OA
ATOM     16  N   UNL     1       2.755   0.392   4.471  0.00  0.00    -0.317 N 
ATOM     17  C   UNL     1       4.217   0.306   4.473  0.00  0.00    +0.128 C 
ATOM     18  H   UNL     1       2.265   0.347   5.307  0.00  0.00    +0.148 HD
ENDBRANCH  13  14
ENDBRANCH   1   8
BRANCH   1  20
ATOM     19  C   UNL     1      -1.549  -2.606   2.064  0.00  0.00    -0.012 C 
ATOM     20  C   UNL     1      -0.207  -2.277   2.720  0.00  0.00    -0.056 C 
BRANCH  20  21
ATOM     21  N   UNL     1       0.573  -3.510   2.887  0.00  0.00    +0.381 N 
ATOM     22  H   UNL     1       0.061  -4.155   3.472  0.00  0.00    -0.090 HD
ATOM     23  H   UNL     1       0.734  -3.931   1.984  0.00  0.00    -0.090 HD
ATOM     24  H   UNL     1       1.458  -3.293   3.320  0.00  0.00    -0.090 HD
ENDBRANCH  20  21
ENDBRANCH   1  20
TORSDOF 5
