REMARK  Name = ZINC67446874
REMARK  7 active torsions:
REMARK  status: ('A' for Active; 'I' for Inactive)
REMARK    1  A    between atoms: C_1  and  C_2
REMARK    2  A    between atoms: C_2  and  C_3
REMARK    3  A    between atoms: C_2  and  C_4
REMARK    4  A    between atoms: C_4  and  C_5
REMARK    5  A    between atoms: C_5  and  C_7
REMARK    6  A    between atoms: C_5  and  N_17
REMARK    7  A    between atoms: C_18  and  C_20
REMARK                            x       y       z     vdW  Elec       q    Type
REMARK                         _______ _______ _______ _____ _____    ______ ____
ROOT
ATOM      1  C   UNL     1      -1.416  -2.058  -0.121  0.00  0.00    +0.142 C 
ENDROOT
BRANCH   1   2
ATOM      2  C   UNL     1      -2.819  -2.590   0.013  0.00  0.00    +0.154 A 
ATOM      3  N   UNL     1      -3.763  -2.529  -0.891  0.00  0.00    -0.132 NA
ATOM      4  N   UNL     1      -4.831  -3.092  -0.443  0.00  0.00    -0.134 NA
ATOM      5  C   UNL     1      -4.615  -3.538   0.759  0.00  0.00    +0.132 A 
ATOM      6  N   UNL     1      -3.337  -3.224   1.085  0.00  0.00    -0.315 N 
ATOM      7  C   UNL     1      -2.685  -3.511   2.363  0.00  0.00    +0.106 C 
ATOM      8  C   UNL     1      -3.333  -4.752   2.985  0.00  0.00    -0.061 C 
ATOM      9  N   UNL     1      -4.457  -4.355   3.838  0.00  0.00    +0.380 N 
ATOM     10  C   UNL     1      -5.500  -3.686   3.060  0.00  0.00    -0.075 C 
ATOM     11  C   UNL     1      -5.571  -4.283   1.656  0.00  0.00    +0.057 C 
ATOM     12  H   UNL     1      -4.846  -5.177   4.276  0.00  0.00    -0.086 HD
ATOM     13  H   UNL     1      -4.123  -3.727   4.554  0.00  0.00    -0.086 HD
ENDBRANCH   1   2
BRANCH   1  14
ATOM     14  N   UNL     1      -0.876  -2.426  -1.433  0.00  0.00    -0.300 N 
ATOM     15  C   UNL     1       0.456  -2.525  -1.610  0.00  0.00    +0.265 C 
ATOM     16  O   UNL     1       1.210  -2.307  -0.682  0.00  0.00    -0.268 OA
ATOM     17  H   UNL     1      -1.478  -2.600  -2.173  0.00  0.00    +0.150 HD
BRANCH  15  18
ATOM     18  C   UNL     1       1.000  -2.896  -2.932  0.00  0.00    +0.150 A 
ATOM     19  C   UNL     1       2.364  -3.044  -3.270  0.00  0.00    +0.005 A 
ATOM     20  C   UNL     1       2.384  -3.389  -4.576  0.00  0.00    +0.040 A 
ATOM     21  N   UNL     1       1.098  -3.443  -4.992  0.00  0.00    -0.281 N 
ATOM     22  H   UNL     1       0.815  -3.667  -5.892  0.00  0.00    +0.189 HD
ATOM     23  N   UNL     1       0.305  -3.159  -4.021  0.00  0.00    -0.169 NA
ATOM     24  C   UNL     1       3.809  -3.575  -5.045  0.00  0.00    +0.055 C 
ATOM     25  C   UNL     1       4.678  -2.882  -3.971  0.00  0.00    +0.011 C 
ATOM     26  C   UNL     1       3.769  -2.960  -2.724  0.00  0.00    +0.039 C 
ENDBRANCH  15  18
ENDBRANCH   1  14
BRANCH   1  27
ATOM     27  C   UNL     1      -1.433  -0.534   0.013  0.00  0.00    +0.033 C 
BRANCH  27  29
ATOM     28  C   UNL     1      -0.019   1.526   0.010  0.00  0.00    +0.007 C 
ATOM     29  C   UNL     1       0.002  -0.004   0.002  0.00  0.00    -0.015 C 
ATOM     30  C   UNL     1       0.742  -0.511   1.242  0.00  0.00    +0.007 C 
ENDBRANCH  27  29
ENDBRANCH   1  27
TORSDOF 5
