REMARK  Name = ZINC48605024
REMARK  10 active torsions:
REMARK  status: ('A' for Active; 'I' for Inactive)
REMARK    1  A    between atoms: C_1  and  C_2
REMARK    2  A    between atoms: C_2  and  C_26
REMARK    3  A    between atoms: C_4  and  N_10
REMARK    4  A    between atoms: C_6  and  C_8
REMARK    5  A    between atoms: C_6  and  C_9
REMARK    6  A    between atoms: C_11  and  C_13
REMARK    7  A    between atoms: N_15  and  C_16
REMARK    8  A    between atoms: C_21  and  N_22
REMARK    9  A    between atoms: N_22  and  C_23
REMARK   10  A    between atoms: N_22  and  C_24
REMARK                            x       y       z     vdW  Elec       q    Type
REMARK                         _______ _______ _______ _____ _____    ______ ____
ROOT
ATOM      1  N   UNL     1      -3.544  -0.908   0.994  0.00  0.00    -0.305 N 
ATOM      2  C   UNL     1      -4.549  -0.462   1.774  0.00  0.00    +0.300 C 
ATOM      3  O   UNL     1      -4.338   0.401   2.601  0.00  0.00    -0.265 OA
ATOM      4  H   UNL     1      -3.712  -1.597   0.333  0.00  0.00    +0.149 HD
ENDROOT
BRANCH   1   8
ATOM      5  C   UNL     1      -0.041   1.558  -0.026  0.00  0.00    -0.010 C 
ATOM      6  C   UNL     1      -0.011   0.027  -0.028  0.00  0.00    -0.072 C 
ATOM      7  C   UNL     1      -1.430  -0.516  -0.167  0.00  0.00    +0.009 C 
ATOM      8  C   UNL     1      -2.194  -0.350   1.146  0.00  0.00    +0.071 C 
ATOM      9  C   UNL     1      -1.448  -1.124   2.233  0.00  0.00    +0.009 C 
ATOM     10  C   UNL     1      -0.030  -0.586   2.390  0.00  0.00    -0.072 C 
ATOM     11  N   UNL     1       0.691  -0.490   1.133  0.00  0.00    +0.386 N 
ATOM     12  C   UNL     1       0.740  -1.573   3.299  0.00  0.00    -0.010 C 
ATOM     13  C   UNL     1      -0.064   0.762   3.118  0.00  0.00    -0.010 C 
ATOM     14  C   UNL     1       0.775  -0.410  -1.286  0.00  0.00    -0.010 C 
ATOM     15  H   UNL     1       1.055  -1.419   0.900  0.00  0.00    -0.084 HD
ATOM     16  H   UNL     1       1.526   0.085   1.285  0.00  0.00    -0.084 HD
ENDBRANCH   1   8
BRANCH   2  17
ATOM     17  C   UNL     1      -5.921  -1.029   1.620  0.00  0.00    +0.303 C 
ATOM     18  O   UNL     1      -6.132  -1.892   0.792  0.00  0.00    -0.265 OA
ATOM     19  N   UNL     1      -6.926  -0.583   2.399  0.00  0.00    -0.276 N 
ATOM     20  H   UNL     1      -6.743   0.047   3.114  0.00  0.00    +0.155 HD
BRANCH  19  21
ATOM     21  C   UNL     1      -8.234  -1.029   2.178  0.00  0.00    +0.056 A 
ATOM     22  C   UNL     1      -8.611  -1.484   0.922  0.00  0.00    +0.025 A 
ATOM     23  C   UNL     1      -9.903  -1.924   0.706  0.00  0.00    +0.003 A 
ATOM     24  C   UNL     1     -10.824  -1.912   1.737  0.00  0.00    +0.022 A 
ATOM     25  C   UNL     1     -10.458  -1.461   2.992  0.00  0.00    +0.064 A 
ATOM     26  C   UNL     1      -9.161  -1.023   3.220  0.00  0.00    +0.069 A 
ATOM     27 CL   UNL     1     -11.619  -1.449   4.283  0.00  0.00    -0.082 Cl
BRANCH  26  28
ATOM     28  N   UNL     1      -8.786  -0.570   4.490  0.00  0.00    -0.333 N 
ATOM     29  C   UNL     1      -8.938   0.845   4.838  0.00  0.00    +0.129 C 
ATOM     30  C   UNL     1      -8.242  -1.512   5.472  0.00  0.00    +0.129 C 
ENDBRANCH  26  28
ENDBRANCH  19  21
ENDBRANCH   2  17
TORSDOF 4
