REMARK  Name = ZINC35375029
REMARK  8 active torsions:
REMARK  status: ('A' for Active; 'I' for Inactive)
REMARK    1  A    between atoms: C_1  and  C_2
REMARK    2  A    between atoms: C_2  and  C_3
REMARK    3  A    between atoms: C_3  and  C_5
REMARK    4  A    between atoms: C_3  and  N_6
REMARK    5  A    between atoms: C_7  and  C_9
REMARK    6  A    between atoms: N_22  and  C_23
REMARK    7  A    between atoms: C_26  and  O_29
REMARK    8  A    between atoms: O_29  and  C_30
REMARK                            x       y       z     vdW  Elec       q    Type
REMARK                         _______ _______ _______ _____ _____    ______ ____
ROOT
ATOM      1  C   UNL     1       4.741   0.996  -2.022  0.00  0.00    +0.028 C 
ATOM      2  C   UNL     1       4.347   2.493  -1.838  0.00  0.00    +0.061 C 
ATOM      3  S   UNL     1       5.675   3.279  -2.850  0.00  0.00    -0.174 S 
ATOM      4  C   UNL     1       6.137   1.817  -3.860  0.00  0.00    -0.016 C 
ATOM      5  N   UNL     1       5.169   0.790  -3.421  0.00  0.00    +0.397 N 
ATOM      6  C   UNL     1       7.564   1.399  -3.540  0.00  0.00    +0.017 C 
ATOM      7  C   UNL     1       7.931   0.160  -4.366  0.00  0.00    +0.109 C 
ATOM      8  N   UNL     1       7.661   0.441  -5.782  0.00  0.00    -0.285 N 
ATOM      9  C   UNL     1       6.320   0.898  -6.171  0.00  0.00    +0.109 C 
ATOM     10  C   UNL     1       5.961   2.133  -5.337  0.00  0.00    +0.017 C 
ATOM     11  C   UNL     1       8.627   0.282  -6.709  0.00  0.00    +0.306 C 
ATOM     12  O   UNL     1       9.758  -0.001  -6.366  0.00  0.00    -0.252 OA
ATOM     13  N   UNL     1       8.338   0.438  -8.017  0.00  0.00    -0.269 N 
ATOM     14  H   UNL     1       5.599  -0.119  -3.502  0.00  0.00    -0.083 HD
ATOM     15  H   UNL     1       7.465   0.762  -8.285  0.00  0.00    +0.156 HD
ATOM     16  H   UNL     1       4.358   0.823  -4.020  0.00  0.00    -0.083 HD
ENDROOT
BRANCH  13  17
ATOM     17  C   UNL     1       9.301   0.130  -8.988  0.00  0.00    +0.035 A 
ATOM     18  C   UNL     1      10.195  -0.910  -8.774  0.00  0.00    +0.027 A 
ATOM     19  C   UNL     1      11.143  -1.213  -9.732  0.00  0.00    +0.047 A 
ATOM     20  C   UNL     1      11.201  -0.479 -10.907  0.00  0.00    +0.120 A 
ATOM     21  C   UNL     1      10.308   0.561 -11.121  0.00  0.00    +0.047 A 
ATOM     22  C   UNL     1       9.356   0.861 -10.167  0.00  0.00    +0.027 A 
BRANCH  20  23
ATOM     23  O   UNL     1      12.135  -0.778 -11.850  0.00  0.00    -0.495 OA
ATOM     24  C   UNL     1      12.137   0.019 -13.036  0.00  0.00    +0.277 C 
ENDBRANCH  20  23
ENDBRANCH  13  17
BRANCH   1  26
ATOM     25  N   UNL     1       2.996   0.137  -0.495  0.00  0.00    -0.314 N 
ATOM     26  C   UNL     1       3.554   0.118  -1.722  0.00  0.00    +0.200 C 
ATOM     27  O   UNL     1       3.101  -0.605  -2.583  0.00  0.00    -0.278 OA
ATOM     28  H   UNL     1       3.358   0.715   0.194  0.00  0.00    +0.149 HD
BRANCH  25  29
ATOM     29  C   UNL     1       1.842  -0.717  -0.202  0.00  0.00    +0.070 C 
ATOM     30  C   UNL     1       2.327  -2.111   0.200  0.00  0.00    +0.028 C 
BRANCH  29  32
ATOM     31  C   UNL     1       0.444   1.233   0.498  0.00  0.00    +0.005 C 
ATOM     32  C   UNL     1       1.034  -0.107   0.945  0.00  0.00    +0.018 C 
ENDBRANCH  29  32
ENDBRANCH  25  29
ENDBRANCH   1  26
TORSDOF 5
