REMARK  Name = ZINC59170494
REMARK  7 active torsions:
REMARK  status: ('A' for Active; 'I' for Inactive)
REMARK    1  A    between atoms: C_1  and  O_2
REMARK    2  A    between atoms: O_2  and  C_3
REMARK    3  A    between atoms: C_6  and  N_9
REMARK    4  A    between atoms: C_10  and  C_12
REMARK    5  A    between atoms: N_22  and  C_23
REMARK    6  A    between atoms: C_26  and  S_29
REMARK    7  A    between atoms: S_29  and  N_32
REMARK                            x       y       z     vdW  Elec       q    Type
REMARK                         _______ _______ _______ _____ _____    ______ ____
ROOT
ATOM      1  C   UNL     1       3.380  -4.421  -5.377  0.00  0.00    +0.098 A 
ATOM      2  C   UNL     1       3.431  -5.806  -5.475  0.00  0.00    +0.030 A 
ATOM      3  C   UNL     1       4.150  -6.373  -6.618  0.00  0.00    +0.020 A 
ATOM      4  C   UNL     1       4.027  -7.731  -6.939  0.00  0.00    +0.031 A 
ATOM      5  C   UNL     1       4.712  -8.239  -8.021  0.00  0.00    +0.042 A 
ATOM      6  C   UNL     1       5.520  -7.413  -8.791  0.00  0.00    +0.023 A 
ATOM      7  C   UNL     1       5.652  -6.073  -8.485  0.00  0.00    +0.048 A 
ATOM      8  C   UNL     1       4.973  -5.541  -7.399  0.00  0.00    +0.138 A 
ATOM      9  O   UNL     1       5.099  -4.229  -7.083  0.00  0.00    -0.439 OA
ATOM     10  C   UNL     1       4.052  -3.647  -6.440  0.00  0.00    +0.212 A 
ATOM     11  N   UNL     1       3.651  -2.433  -6.750  0.00  0.00    -0.325 N 
ATOM     12 CL   UNL     1       4.564  -9.921  -8.424  0.00  0.00    -0.084 Cl
ATOM     13  H   UNL     1       2.840  -2.075  -6.357  0.00  0.00    +0.169 HD
ENDROOT
BRANCH  11  14
ATOM     14  C   UNL     1       4.379  -1.676  -7.626  0.00  0.00    +0.042 A 
ATOM     15  C   UNL     1       5.770  -1.614  -7.513  0.00  0.00    +0.027 A 
ATOM     16  C   UNL     1       6.497  -0.848  -8.400  0.00  0.00    +0.030 A 
ATOM     17  C   UNL     1       5.852  -0.143  -9.401  0.00  0.00    +0.105 A 
ATOM     18  C   UNL     1       4.475  -0.200  -9.519  0.00  0.00    +0.030 A 
ATOM     19  C   UNL     1       3.735  -0.966  -8.643  0.00  0.00    +0.027 A 
BRANCH  17  20
ATOM     20  S   UNL     1       6.789   0.833 -10.530  0.00  0.00    +0.056 S 
ATOM     21  O   UNL     1       5.909   1.827 -11.035  0.00  0.00    -0.153 OA
ATOM     22  O   UNL     1       8.008   1.155  -9.873  0.00  0.00    -0.153 OA
BRANCH  20  23
ATOM     23  N   UNL     1       7.185  -0.143 -11.809  0.00  0.00    -0.204 NA
ATOM     24  H   UNL     1       6.895  -1.068 -11.820  0.00  0.00    +0.144 HD
ATOM     25  H   UNL     1       7.707   0.212 -12.546  0.00  0.00    +0.144 HD
ENDBRANCH  20  23
ENDBRANCH  17  20
ENDBRANCH  11  14
BRANCH   1  27
ATOM     26  N   UNL     1       2.764  -2.417  -4.122  0.00  0.00    -0.281 N 
ATOM     27  C   UNL     1       2.681  -3.755  -4.266  0.00  0.00    +0.253 C 
ATOM     28  O   UNL     1       2.029  -4.412  -3.476  0.00  0.00    -0.270 OA
ATOM     29  H   UNL     1       3.240  -1.888  -4.782  0.00  0.00    +0.155 HD
BRANCH  26  33
ATOM     30  C   UNL     1       0.976  -0.555  -0.849  0.00  0.00    +0.120 A 
ATOM     31  C   UNL     1       2.170  -0.065  -1.358  0.00  0.00    +0.047 A 
ATOM     32  C   UNL     1       2.763  -0.682  -2.443  0.00  0.00    +0.027 A 
ATOM     33  C   UNL     1       2.164  -1.792  -3.023  0.00  0.00    +0.034 A 
ATOM     34  C   UNL     1       0.969  -2.282  -2.512  0.00  0.00    +0.027 A 
ATOM     35  C   UNL     1       0.380  -1.667  -1.425  0.00  0.00    +0.047 A 
BRANCH  30  37
ATOM     36  C   UNL     1       1.062   1.193   0.761  0.00  0.00    +0.277 C 
ATOM     37  O   UNL     1       0.393   0.052   0.219  0.00  0.00    -0.495 OA
ENDBRANCH  30  37
ENDBRANCH  26  33
ENDBRANCH   1  27
TORSDOF 6
