REMARK  Name = ZINC14584265
REMARK  11 active torsions:
REMARK  status: ('A' for Active; 'I' for Inactive)
REMARK    1  A    between atoms: C_1  and  C_2
REMARK    2  A    between atoms: C_2  and  N_3
REMARK    3  A    between atoms: N_3  and  C_4
REMARK    4  A    between atoms: C_5  and  N_20
REMARK    5  A    between atoms: N_6  and  C_13
REMARK    6  A    between atoms: C_13  and  C_14
REMARK    7  A    between atoms: C_21  and  C_23
REMARK    8  A    between atoms: C_24  and  C_25
REMARK    9  A    between atoms: C_26  and  C_37
REMARK   10  A    between atoms: N_28  and  C_31
REMARK   11  A    between atoms: C_29  and  C_30
REMARK                            x       y       z     vdW  Elec       q    Type
REMARK                         _______ _______ _______ _____ _____    ______ ____
ROOT
ATOM      1  N   UNL     1       4.353   3.049   2.287  0.00  0.00    -0.261 N 
ATOM      2  C   UNL     1       3.785   3.057   3.509  0.00  0.00    +0.244 C 
ATOM      3  O   UNL     1       2.584   2.892   3.624  0.00  0.00    -0.270 OA
ENDROOT
BRANCH   1   4
ATOM      4  C   UNL     1       3.544   2.958   1.135  0.00  0.00    +0.140 A 
ATOM      5  C   UNL     1       3.592   1.839   0.330  0.00  0.00    +0.128 A 
ATOM      6  N   UNL     1       2.796   1.782  -0.790  0.00  0.00    -0.276 N 
ATOM      7  C   UNL     1       1.971   2.802  -1.092  0.00  0.00    +0.331 A 
ATOM      8  O   UNL     1       1.272   2.730  -2.084  0.00  0.00    -0.246 OA
ATOM      9  N   UNL     1       1.907   3.898  -0.316  0.00  0.00    -0.273 N 
ATOM     10  H   UNL     1       1.286   4.642  -0.563  0.00  0.00    +0.173 HD
ATOM     11  C   UNL     1       2.671   4.007   0.789  0.00  0.00    +0.277 A 
ATOM     12  O   UNL     1       2.605   5.006   1.485  0.00  0.00    -0.266 OA
BRANCH   5  13
ATOM     13  N   UNL     1       4.430   0.794   0.640  0.00  0.00    -0.343 N 
ATOM     14  H   UNL     1       4.527   0.050   0.025  0.00  0.00    +0.144 HD
ATOM     15  H   UNL     1       4.924   0.801   1.475  0.00  0.00    +0.144 HD
ENDBRANCH   5  13
BRANCH   6  16
ATOM     16  C   UNL     1       2.840   0.601  -1.657  0.00  0.00    +0.163 C 
BRANCH  16  17
ATOM     17  C   UNL     1       3.885   0.801  -2.724  0.00  0.00    -0.028 A 
ATOM     18  C   UNL     1       3.539   1.381  -3.930  0.00  0.00    +0.005 A 
ATOM     19  C   UNL     1       4.499   1.569  -4.908  0.00  0.00    +0.000 A 
ATOM     20  C   UNL     1       5.802   1.167  -4.683  0.00  0.00    +0.000 A 
ATOM     21  C   UNL     1       6.147   0.582  -3.478  0.00  0.00    +0.000 A 
ATOM     22  C   UNL     1       5.189   0.400  -2.499  0.00  0.00    +0.005 A 
ENDBRANCH  16  17
ENDBRANCH   6  16
ENDBRANCH   1   4
BRANCH   1  24
ATOM     23  C   UNL     1       6.236   4.604   2.155  0.00  0.00    +0.025 C 
ATOM     24  C   UNL     1       5.809   3.134   2.155  0.00  0.00    +0.111 C 
ENDBRANCH   1  24
BRANCH   2  25
ATOM     25  C   UNL     1       4.587   3.257   4.662  0.00  0.00    +0.068 C 
ATOM     26  C   UNL     1       4.019   3.265   5.887  0.00  0.00    +0.016 C 
BRANCH  26  27
ATOM     27  C   UNL     1       4.850   3.473   7.081  0.00  0.00    +0.019 A 
ATOM     28  C   UNL     1       6.043   2.786   7.404  0.00  0.00    +0.068 A 
ATOM     29  N   UNL     1       6.484   3.252   8.540  0.00  0.00    -0.171 NA
ATOM     30  N   UNL     1       5.609   4.245   8.995  0.00  0.00    -0.236 N 
ATOM     31  C   UNL     1       4.614   4.381   8.097  0.00  0.00    +0.049 A 
ATOM     32  C   UNL     1       3.457   5.342   8.186  0.00  0.00    +0.066 C 
ATOM     33  C   UNL     1       6.693   1.705   6.579  0.00  0.00    +0.068 C 
BRANCH  30  34
ATOM     34  C   UNL     1       5.748   4.978  10.182  0.00  0.00    +0.066 A 
ATOM     35  C   UNL     1       6.997   5.442  10.570  0.00  0.00    +0.028 A 
ATOM     36  C   UNL     1       7.130   6.169  11.737  0.00  0.00    +0.002 A 
ATOM     37  C   UNL     1       6.021   6.424  12.524  0.00  0.00    +0.000 A 
ATOM     38  C   UNL     1       4.777   5.958  12.142  0.00  0.00    +0.002 A 
ATOM     39  C   UNL     1       4.637   5.236  10.974  0.00  0.00    +0.028 A 
ENDBRANCH  30  34
ENDBRANCH  26  27
ENDBRANCH   2  25
TORSDOF 8
