REMARK  Name = ZINC65074625
REMARK  8 active torsions:
REMARK  status: ('A' for Active; 'I' for Inactive)
REMARK    1  A    between atoms: C_1  and  C_2
REMARK    2  A    between atoms: C_2  and  C_3
REMARK    3  A    between atoms: C_3  and  C_4
REMARK    4  A    between atoms: C_7  and  S_10
REMARK    5  A    between atoms: S_10  and  N_13
REMARK    6  A    between atoms: N_24  and  C_25
REMARK    7  A    between atoms: C_25  and  C_26
REMARK    8  A    between atoms: C_29  and  C_32
REMARK                            x       y       z     vdW  Elec       q    Type
REMARK                         _______ _______ _______ _____ _____    ______ ____
ROOT
ATOM      1  N   UNL     1       0.033  -7.038  -0.159  0.00  0.00    -0.176 NA
ATOM      2  C   UNL     1      -1.418  -7.274  -0.141  0.00  0.00    +0.111 C 
ATOM      3  C   UNL     1      -2.064  -6.455  -1.263  0.00  0.00    +0.047 C 
ATOM      4  C   UNL     1      -1.390  -6.798  -2.594  0.00  0.00    +0.075 C 
ATOM      5  C   UNL     1       0.095  -6.430  -2.522  0.00  0.00    +0.047 C 
ATOM      6  C   UNL     1       0.765  -7.243  -1.416  0.00  0.00    +0.111 C 
ATOM      7  C   UNL     1      -2.045  -6.024  -3.703  0.00  0.00    +0.089 C 
ATOM      8  N   UNL     1      -2.353  -6.534  -4.835  0.00  0.00    -0.374 N 
ATOM      9  C   UNL     1      -2.115  -7.929  -5.188  0.00  0.00    +0.129 C 
ATOM     10  C   UNL     1      -1.101  -8.549  -4.224  0.00  0.00    +0.102 C 
ATOM     11  N   UNL     1      -1.520  -8.241  -2.846  0.00  0.00    -0.303 NA
ATOM     12  N   UNL     1      -2.329  -4.701  -3.490  0.00  0.00    -0.329 N 
ATOM     13  H   UNL     1      -0.984  -8.774  -2.177  0.00  0.00    +0.123 HD
ATOM     14  H   UNL     1      -2.106  -4.288  -2.640  0.00  0.00    +0.147 HD
ATOM     15  H   UNL     1      -2.768  -5.959  -5.497  0.00  0.00    +0.161 HD
ENDROOT
BRANCH   1  16
ATOM     16  S   UNL     1       0.824  -6.544   1.209  0.00  0.00    +0.061 S 
ATOM     17  O   UNL     1       2.183  -6.931   1.054  0.00  0.00    -0.153 OA
ATOM     18  O   UNL     1       0.033  -6.966   2.311  0.00  0.00    -0.153 OA
BRANCH  16  22
ATOM     19  C   UNL     1       0.762  -2.018   1.233  0.00  0.00    -0.047 A 
ATOM     20  C   UNL     1      -0.262  -2.726   1.833  0.00  0.00    +0.005 A 
ATOM     21  C   UNL     1      -0.243  -4.108   1.825  0.00  0.00    +0.029 A 
ATOM     22  C   UNL     1       0.800  -4.782   1.218  0.00  0.00    +0.105 A 
ATOM     23  C   UNL     1       1.824  -4.074   0.617  0.00  0.00    +0.029 A 
ATOM     24  C   UNL     1       1.803  -2.692   0.621  0.00  0.00    +0.005 A 
BRANCH  19  25
ATOM     25  C   UNL     1       0.742  -0.511   1.242  0.00  0.00    +0.035 C 
BRANCH  25  27
ATOM     26  C   UNL     1      -0.019   1.526   0.010  0.00  0.00    +0.004 C 
ATOM     27  C   UNL     1       0.002  -0.004   0.002  0.00  0.00    +0.001 C 
ENDBRANCH  25  27
ENDBRANCH  19  25
ENDBRANCH  16  22
ENDBRANCH   1  16
BRANCH  12  28
ATOM     28  C   UNL     1      -2.967  -3.910  -4.544  0.00  0.00    +0.138 C 
BRANCH  28  29
ATOM     29  C   UNL     1      -3.168  -2.497  -4.060  0.00  0.00    -0.030 A 
ATOM     30  C   UNL     1      -4.335  -2.150  -3.405  0.00  0.00    +0.005 A 
ATOM     31  C   UNL     1      -4.520  -0.854  -2.961  0.00  0.00    +0.003 A 
ATOM     32  C   UNL     1      -3.537   0.095  -3.171  0.00  0.00    -0.050 A 
ATOM     33  C   UNL     1      -2.369  -0.252  -3.825  0.00  0.00    +0.003 A 
ATOM     34  C   UNL     1      -2.183  -1.549  -4.265  0.00  0.00    +0.005 A 
ATOM     35  C   UNL     1      -3.738   1.508  -2.687  0.00  0.00    +0.044 C 
ENDBRANCH  28  29
ENDBRANCH  12  28
TORSDOF 6
