REMARK  Name = ZINC35573823
REMARK  12 active torsions:
REMARK  status: ('A' for Active; 'I' for Inactive)
REMARK    1  A    between atoms: C_1  and  C_2
REMARK    2  A    between atoms: C_2  and  C_3
REMARK    3  A    between atoms: C_2  and  C_4
REMARK    4  A    between atoms: C_4  and  C_6
REMARK    5  A    between atoms: C_4  and  O_34
REMARK    6  A    between atoms: C_6  and  N_7
REMARK    7  A    between atoms: N_7  and  C_8
REMARK    8  A    between atoms: N_7  and  C_9
REMARK    9  A    between atoms: C_9  and  C_10
REMARK   10  A    between atoms: N_13  and  C_15
REMARK   11  A    between atoms: N_24  and  C_26
REMARK   12  A    between atoms: C_26  and  C_27
REMARK                            x       y       z     vdW  Elec       q    Type
REMARK                         _______ _______ _______ _____ _____    ______ ____
ROOT
ATOM      1  C   UNL     1      -4.140  -4.502  -0.211  0.00  0.00    +0.052 A 
ATOM      2  C   UNL     1      -4.961  -4.898   0.840  0.00  0.00    +0.009 A 
ATOM      3  C   UNL     1      -6.069  -5.481   0.309  0.00  0.00    +0.051 A 
ATOM      4  N   UNL     1      -5.951  -5.450  -1.028  0.00  0.00    -0.236 N 
ATOM      5  N   UNL     1      -4.732  -4.826  -1.336  0.00  0.00    -0.173 NA
ATOM      6  C   UNL     1      -7.189  -6.042   1.150  0.00  0.00    +0.071 C 
ATOM      7  C   UNL     1      -6.669  -6.191   2.587  0.00  0.00    +0.091 C 
ATOM      8  N   UNL     1      -6.021  -4.942   3.010  0.00  0.00    -0.294 NA
ATOM      9  C   UNL     1      -4.734  -4.742   2.322  0.00  0.00    +0.123 C 
ENDROOT
BRANCH   4  10
ATOM     10  C   UNL     1      -6.882  -5.948  -1.952  0.00  0.00    +0.066 A 
ATOM     11  C   UNL     1      -8.240  -5.747  -1.747  0.00  0.00    +0.029 A 
ATOM     12  C   UNL     1      -9.155  -6.238  -2.658  0.00  0.00    +0.022 A 
ATOM     13  C   UNL     1      -8.718  -6.930  -3.774  0.00  0.00    +0.041 A 
ATOM     14  C   UNL     1      -7.365  -7.131  -3.981  0.00  0.00    +0.022 A 
ATOM     15  C   UNL     1      -6.446  -6.637  -3.076  0.00  0.00    +0.029 A 
ATOM     16 CL   UNL     1      -9.870  -7.546  -4.917  0.00  0.00    -0.084 Cl
ENDBRANCH   4  10
BRANCH   1  17
ATOM     17  C   UNL     1      -2.806  -3.814  -0.081  0.00  0.00    -0.021 C 
BRANCH  17  18
ATOM     18  N   UNL     1      -3.005  -2.358  -0.061  0.00  0.00    +0.383 N 
ATOM     19  C   UNL     1      -3.755  -1.983   1.145  0.00  0.00    -0.096 C 
ATOM     20  H   UNL     1      -3.523  -2.079  -0.880  0.00  0.00    -0.082 HD
BRANCH  18  21
ATOM     21  C   UNL     1      -1.699  -1.685  -0.054  0.00  0.00    -0.047 C 
BRANCH  21  22
ATOM     22  C   UNL     1      -0.980  -1.954  -1.378  0.00  0.00    +0.101 C 
BRANCH  22  24
ATOM     23  C   UNL     1       1.132  -1.590  -2.663  0.00  0.00    +0.010 C 
ATOM     24  C   UNL     1       0.413  -1.322  -1.339  0.00  0.00    +0.010 C 
ATOM     25  C   UNL     1       0.282   0.188  -1.127  0.00  0.00    +0.010 C 
ENDBRANCH  22  24
BRANCH  22  26
ATOM     26  O   UNL     1      -1.731  -1.385  -2.452  0.00  0.00    -0.393 OA
ATOM     27  H   UNL     1      -1.854  -0.429  -2.383  0.00  0.00    +0.210 HD
ENDBRANCH  22  26
ENDBRANCH  21  22
ENDBRANCH  18  21
ENDBRANCH  17  18
ENDBRANCH   1  17
BRANCH   8  28
ATOM     28  C   UNL     1      -5.851  -4.905   4.468  0.00  0.00    +0.120 C 
BRANCH  28  29
ATOM     29  C   UNL     1      -7.203  -4.850   5.131  0.00  0.00    -0.032 A 
ATOM     30  C   UNL     1      -7.794  -3.628   5.396  0.00  0.00    +0.005 A 
ATOM     31  C   UNL     1      -9.034  -3.576   6.004  0.00  0.00    +0.002 A 
ATOM     32  C   UNL     1      -9.684  -4.747   6.348  0.00  0.00    +0.020 A 
ATOM     33  C   UNL     1      -9.094  -5.969   6.083  0.00  0.00    +0.041 A 
ATOM     34  C   UNL     1      -7.855  -6.020   5.469  0.00  0.00    +0.025 A 
ATOM     35 CL   UNL     1      -9.910  -7.439   6.515  0.00  0.00    -0.084 Cl
ENDBRANCH  28  29
ENDBRANCH   8  28
TORSDOF 9
