REMARK  Name = ZINC39884078
REMARK  5 active torsions:
REMARK  status: ('A' for Active; 'I' for Inactive)
REMARK    1  A    between atoms: C_4  and  N_7
REMARK    2  A    between atoms: C_8  and  C_10
REMARK    3  A    between atoms: C_10  and  N_11
REMARK    4  A    between atoms: C_17  and  C_32
REMARK    5  A    between atoms: C_37  and  O_38
REMARK                            x       y       z     vdW  Elec       q    Type
REMARK                         _______ _______ _______ _____ _____    ______ ____
ROOT
ATOM      1  N   UNL     1       4.638  -4.446  -0.086  0.00  0.00    -0.288 N 
ATOM      2  C   UNL     1       4.542  -4.900   1.206  0.00  0.00    +0.091 A 
ATOM      3  C   UNL     1       4.286  -6.221   1.331  0.00  0.00    +0.033 A 
ATOM      4  S   UNL     1       4.202  -6.776  -0.351  0.00  0.00    -0.030 S 
ATOM      5  C   UNL     1       4.478  -5.302  -1.113  0.00  0.00    +0.292 A 
ATOM      6  O   UNL     1       4.525  -5.066  -2.307  0.00  0.00    -0.259 OA
ATOM      7  C   UNL     1       4.100  -7.045   2.574  0.00  0.00    +0.075 C 
ATOM      8  C   UNL     1       3.747  -6.120   3.712  0.00  0.00    +0.111 C 
ATOM      9  C   UNL     1       4.926  -5.125   3.930  0.00  0.00    +0.152 C 
ATOM     10  S   UNL     1       4.747  -3.860   2.646  0.00  0.00    -0.093 S 
ATOM     11  C   UNL     1       4.610  -4.656   5.324  0.00  0.00    +0.244 C 
ATOM     12  O   UNL     1       4.859  -3.573   5.798  0.00  0.00    -0.273 OA
ATOM     13  N   UNL     1       3.989  -5.693   5.942  0.00  0.00    -0.162 N 
ATOM     14  C   UNL     1       3.626  -6.677   5.096  0.00  0.00    +0.235 C 
ATOM     15  O   UNL     1       3.263  -7.788   5.402  0.00  0.00    -0.274 OA
ATOM     16  C   UNL     1       3.774  -5.738   7.271  0.00  0.00    +0.313 C 
ATOM     17  O   UNL     1       3.212  -6.696   7.764  0.00  0.00    -0.252 OA
ATOM     18  N   UNL     1       4.183  -4.721   8.055  0.00  0.00    -0.313 N 
ATOM     19  H   UNL     1       4.632  -3.956   7.662  0.00  0.00    +0.147 HD
ATOM     20  H   UNL     1       4.029  -4.753   9.012  0.00  0.00    +0.147 HD
ENDROOT
BRANCH   7  21
ATOM     21  C   UNL     1       5.377  -7.779   2.891  0.00  0.00    +0.003 A 
ATOM     22  C   UNL     1       5.359  -8.856   3.756  0.00  0.00    +0.008 A 
ATOM     23  C   UNL     1       6.530  -9.530   4.047  0.00  0.00    +0.001 A 
ATOM     24  C   UNL     1       7.723  -9.129   3.474  0.00  0.00    +0.004 A 
ATOM     25  C   UNL     1       7.746  -8.053   2.608  0.00  0.00    +0.046 A 
ATOM     26  C   UNL     1       6.571  -7.378   2.310  0.00  0.00    +0.121 A 
BRANCH  26  27
ATOM     27  O   UNL     1       6.590  -6.322   1.454  0.00  0.00    -0.506 OA
ATOM     28  H   UNL     1       6.742  -5.470   1.884  0.00  0.00    +0.292 HD
ENDBRANCH  26  27
ENDBRANCH   7  21
BRANCH   1  29
ATOM     29  C   UNL     1       4.908  -3.030  -0.347  0.00  0.00    +0.222 C 
BRANCH  29  31
ATOM     30  N   UNL     1       3.607  -0.953  -0.678  0.00  0.00    -0.284 N 
ATOM     31  C   UNL     1       3.604  -2.280  -0.441  0.00  0.00    +0.237 C 
ATOM     32  O   UNL     1       2.554  -2.869  -0.304  0.00  0.00    -0.274 OA
ATOM     33  H   UNL     1       4.441  -0.495  -0.865  0.00  0.00    +0.155 HD
BRANCH  30  37
ATOM     34  C   UNL     1       0.030   1.183  -0.607  0.00  0.00    +0.000 A 
ATOM     35  C   UNL     1       0.204   0.100   0.235  0.00  0.00    +0.002 A 
ATOM     36  C   UNL     1       1.389  -0.610   0.214  0.00  0.00    +0.023 A 
ATOM     37  C   UNL     1       2.405  -0.236  -0.655  0.00  0.00    +0.033 A 
ATOM     38  C   UNL     1       2.227   0.851  -1.500  0.00  0.00    +0.023 A 
ATOM     39  C   UNL     1       1.040   1.557  -1.474  0.00  0.00    +0.002 A 
ENDBRANCH  30  37
ENDBRANCH  29  31
ENDBRANCH   1  29
TORSDOF 5
