REMARK  Name = ZINC19743908
REMARK  17 active torsions:
REMARK  status: ('A' for Active; 'I' for Inactive)
REMARK    1  A    between atoms: C_1  and  C_2
REMARK    2  A    between atoms: C_2  and  N_3
REMARK    3  A    between atoms: N_6  and  C_9
REMARK    4  A    between atoms: C_9  and  C_10
REMARK    5  A    between atoms: C_10  and  C_12
REMARK    6  A    between atoms: C_10  and  O_29
REMARK    7  A    between atoms: C_12  and  O_13
REMARK    8  A    between atoms: O_13  and  C_14
REMARK    9  A    between atoms: C_17  and  C_22
REMARK   10  A    between atoms: C_19  and  O_20
REMARK   11  A    between atoms: O_20  and  C_21
REMARK   12  A    between atoms: C_22  and  N_23
REMARK   13  A    between atoms: N_23  and  C_24
REMARK   14  A    between atoms: N_23  and  C_26
REMARK   15  A    between atoms: C_24  and  C_25
REMARK   16  A    between atoms: C_26  and  C_27
REMARK   17  A    between atoms: C_27  and  O_28
REMARK                            x       y       z     vdW  Elec       q    Type
REMARK                         _______ _______ _______ _____ _____    ______ ____
ROOT
ATOM      1  C   UNL     1       2.032  -2.993  -1.297  0.00  0.00    +0.162 A 
ATOM      2  C   UNL     1       2.683  -2.100  -2.133  0.00  0.00    +0.049 A 
ATOM      3  C   UNL     1       3.051  -2.489  -3.407  0.00  0.00    +0.005 A 
ATOM      4  C   UNL     1       2.772  -3.769  -3.850  0.00  0.00    -0.060 A 
ATOM      5  C   UNL     1       2.123  -4.664  -3.022  0.00  0.00    +0.051 A 
ATOM      6  C   UNL     1       1.756  -4.283  -1.741  0.00  0.00    +0.162 A 
ENDROOT
BRANCH   6   7
ATOM      7  O   UNL     1       1.122  -5.164  -0.922  0.00  0.00    -0.491 OA
ATOM      8  C   UNL     1       0.871  -6.470  -1.445  0.00  0.00    +0.277 C 
ENDBRANCH   6   7
BRANCH   1   9
ATOM      9  O   UNL     1       1.668  -2.612  -0.043  0.00  0.00    -0.486 OA
BRANCH   9  10
ATOM     10  C   UNL     1       1.989  -1.275   0.347  0.00  0.00    +0.261 C 
BRANCH  10  11
ATOM     11  C   UNL     1       1.506  -1.032   1.778  0.00  0.00    +0.166 C 
BRANCH  11  12
ATOM     12  O   UNL     1       2.233  -1.873   2.676  0.00  0.00    -0.387 OA
ATOM     13  H   UNL     1       2.189  -2.966   2.563  0.00  0.00    +0.210 HD
ENDBRANCH  11  12
BRANCH  11  14
ATOM     14  C   UNL     1       1.737   0.434   2.152  0.00  0.00    +0.119 C 
BRANCH  14  18
ATOM     15  N   UNL     1      -0.200   2.009   5.560  0.00  0.00    +0.381 N 
ATOM     16  C   UNL     1       1.258   2.166   5.463  0.00  0.00    -0.063 C 
ATOM     17  C   UNL     1       1.690   1.993   4.005  0.00  0.00    +0.066 C 
ATOM     18  N   UNL     1       1.273   0.668   3.526  0.00  0.00    -0.303 NA
ATOM     19  C   UNL     1      -0.185   0.510   3.624  0.00  0.00    +0.066 C 
ATOM     20  C   UNL     1      -0.618   0.683   5.082  0.00  0.00    -0.063 C 
ATOM     21  H   UNL     1      -0.668   2.766   4.914  0.00  0.00    -0.082 HD
BRANCH  15  23
ATOM     22  C   UNL     1      -2.192   2.317   6.951  0.00  0.00    -0.017 C 
ATOM     23  C   UNL     1      -0.664   2.242   6.934  0.00  0.00    -0.082 C 
ENDBRANCH  15  23
ENDBRANCH  14  18
ENDBRANCH  11  14
ENDBRANCH  10  11
ENDBRANCH   9  10
ENDBRANCH   1   9
BRANCH   4  24
ATOM     24  C   UNL     1       3.176  -4.187  -5.241  0.00  0.00    -0.043 C 
BRANCH  24  25
ATOM     25  N   UNL     1       4.529  -4.759  -5.207  0.00  0.00    +0.384 N 
ATOM     26  H   UNL     1       4.566  -5.492  -4.387  0.00  0.00    -0.081 HD
BRANCH  25  27
ATOM     27  C   UNL     1       5.531  -3.721  -4.930  0.00  0.00    -0.082 C 
ATOM     28  C   UNL     1       6.846  -4.381  -4.509  0.00  0.00    -0.017 C 
ENDBRANCH  25  27
BRANCH  25  29
ATOM     29  C   UNL     1       4.833  -5.465  -6.458  0.00  0.00    -0.050 C 
BRANCH  29  30
ATOM     30  C   UNL     1       4.148  -6.833  -6.451  0.00  0.00    +0.137 C 
BRANCH  30  31
ATOM     31  O   UNL     1       2.732  -6.656  -6.516  0.00  0.00    -0.397 OA
ATOM     32  H   UNL     1       2.068  -7.533  -6.521  0.00  0.00    +0.209 HD
ENDBRANCH  30  31
ENDBRANCH  29  30
ENDBRANCH  25  29
ENDBRANCH  24  25
ENDBRANCH   4  24
TORSDOF 14
