REMARK  Name = ZINC12497988
REMARK  7 active torsions:
REMARK  status: ('A' for Active; 'I' for Inactive)
REMARK    1  A    between atoms: C_1  and  O_2
REMARK    2  A    between atoms: O_2  and  C_3
REMARK    3  A    between atoms: C_3  and  C_5
REMARK    4  A    between atoms: C_5  and  C_34
REMARK    5  A    between atoms: C_10  and  C_12
REMARK    6  A    between atoms: C_15  and  O_18
REMARK    7  A    between atoms: N_21  and  C_24
REMARK                            x       y       z     vdW  Elec       q    Type
REMARK                         _______ _______ _______ _____ _____    ______ ____
ROOT
ATOM      1  C   UNL     1       0.671   0.743  -2.205  0.00  0.00    +0.070 C 
ATOM      2  C   UNL     1      -0.402   1.440  -1.373  0.00  0.00    +0.090 C 
ATOM      3  C   UNL     1       0.139   1.040   0.056  0.00  0.00    +0.078 C 
ATOM      4  C   UNL     1       1.565   1.390  -0.049  0.00  0.00    -0.026 C 
ATOM      5  C   UNL     1      -1.018   1.301   0.875  0.00  0.00    +0.229 C 
ATOM      6  O   UNL     1      -1.039   1.714   2.014  0.00  0.00    -0.275 OA
ATOM      7  N   UNL     1      -2.091   0.979   0.104  0.00  0.00    -0.210 N 
ATOM      8  C   UNL     1      -1.760   0.817  -1.212  0.00  0.00    +0.229 C 
ATOM      9  O   UNL     1      -2.426   0.280  -2.072  0.00  0.00    -0.275 OA
ATOM     10  N   UNL     1       1.916   0.847  -1.399  0.00  0.00    +0.398 N 
ATOM     11  H   UNL     1       2.578   1.478  -1.865  0.00  0.00    -0.083 HD
ATOM     12  H   UNL     1       2.342  -0.082  -1.299  0.00  0.00    -0.083 HD
ENDROOT
BRANCH   7  13
ATOM     13  C   UNL     1      -3.395   0.833   0.602  0.00  0.00    +0.048 A 
ATOM     14  C   UNL     1      -4.434   0.506  -0.259  0.00  0.00    +0.028 A 
ATOM     15  C   UNL     1      -5.718   0.363   0.231  0.00  0.00    +0.051 A 
ATOM     16  C   UNL     1      -5.973   0.544   1.582  0.00  0.00    +0.162 A 
ATOM     17  C   UNL     1      -4.934   0.871   2.446  0.00  0.00    +0.164 A 
ATOM     18  C   UNL     1      -3.645   1.011   1.955  0.00  0.00    +0.073 A 
ATOM     19  O   UNL     1      -5.164   1.049   3.776  0.00  0.00    -0.485 OA
ATOM     20  C   UNL     1      -6.523   1.264   4.170  0.00  0.00    +0.270 C 
ATOM     21  C   UNL     1      -7.401   0.227   3.457  0.00  0.00    +0.270 C 
ATOM     22  O   UNL     1      -7.245   0.403   2.045  0.00  0.00    -0.485 OA
ENDBRANCH   7  13
BRANCH   4  23
ATOM     23  C   UNL     1       2.364   0.716   1.037  0.00  0.00    -0.060 A 
ATOM     24  C   UNL     1       2.726  -0.612   0.904  0.00  0.00    +0.005 A 
ATOM     25  C   UNL     1       3.463  -1.230   1.896  0.00  0.00    +0.045 A 
ATOM     26  C   UNL     1       3.829  -0.521   3.031  0.00  0.00    +0.117 A 
ATOM     27  C   UNL     1       3.459   0.809   3.164  0.00  0.00    +0.045 A 
ATOM     28  C   UNL     1       2.727   1.425   2.167  0.00  0.00    +0.005 A 
BRANCH  26  29
ATOM     29  O   UNL     1       4.548  -1.129   4.010  0.00  0.00    -0.507 OA
ATOM     30  H   UNL     1       4.007  -1.553   4.690  0.00  0.00    +0.292 HD
ENDBRANCH  26  29
ENDBRANCH   4  23
BRANCH   1  31
ATOM     31  C   UNL     1       0.841   1.442  -3.529  0.00  0.00    -0.047 A 
ATOM     32  C   UNL     1      -0.245   2.042  -4.139  0.00  0.00    +0.003 A 
ATOM     33  C   UNL     1      -0.089   2.686  -5.351  0.00  0.00    +0.000 A 
ATOM     34  C   UNL     1       1.152   2.724  -5.959  0.00  0.00    +0.000 A 
ATOM     35  C   UNL     1       2.238   2.120  -5.352  0.00  0.00    +0.000 A 
ATOM     36  C   UNL     1       2.082   1.479  -4.137  0.00  0.00    +0.003 A 
ENDBRANCH   1  31
BRANCH   1  37
ATOM     37  C   UNL     1       0.306  -0.703  -2.423  0.00  0.00    +0.301 C 
ATOM     38  O   UNL     1      -0.222  -1.044  -3.454  0.00  0.00    -0.252 OA
BRANCH  37  40
ATOM     39  C   UNL     1       0.190  -2.986  -1.749  0.00  0.00    +0.280 C 
ATOM     40  O   UNL     1       0.569  -1.612  -1.471  0.00  0.00    -0.469 OA
ENDBRANCH  37  40
ENDBRANCH   1  37
TORSDOF 6
