REMARK  Name = ZINC10137936
REMARK  13 active torsions:
REMARK  status: ('A' for Active; 'I' for Inactive)
REMARK    1  A    between atoms: C_1  and  C_2
REMARK    2  A    between atoms: C_2  and  N_60
REMARK    3  A    between atoms: C_3  and  C_4
REMARK    4  A    between atoms: C_3  and  N_60
REMARK    5  A    between atoms: C_5  and  C_18
REMARK    6  A    between atoms: C_6  and  C_12
REMARK    7  A    between atoms: C_18  and  O_20
REMARK    8  A    between atoms: O_20  and  C_21
REMARK    9  A    between atoms: C_21  and  C_22
REMARK   10  A    between atoms: C_23  and  C_24
REMARK   11  A    between atoms: C_23  and  N_60
REMARK   12  A    between atoms: N_26  and  C_27
REMARK   13  A    between atoms: C_27  and  C_28
REMARK                            x       y       z     vdW  Elec       q    Type
REMARK                         _______ _______ _______ _____ _____    ______ ____
ROOT
ATOM      1  C   UNL     1      -7.127   7.413   4.477  0.00  0.00    +0.008 C 
ATOM      2  C   UNL     1      -8.177   6.604   4.733  0.00  0.00    +0.076 C 
ATOM      3  C   UNL     1      -9.553   7.236   4.804  0.00  0.00    +0.143 C 
ATOM      4  N   UNL     1      -9.631   8.690   4.587  0.00  0.00    -0.288 N 
ATOM      5  C   UNL     1      -8.490   9.364   4.341  0.00  0.00    +0.304 C 
ATOM      6  O   UNL     1      -8.544  10.565   4.161  0.00  0.00    -0.252 OA
ATOM      7  N   UNL     1      -7.299   8.755   4.295  0.00  0.00    -0.274 N 
ATOM      8  H   UNL     1     -10.483   9.152   4.620  0.00  0.00    +0.151 HD
ATOM      9  H   UNL     1      -6.514   9.297   4.117  0.00  0.00    +0.156 HD
ENDROOT
BRANCH   3  10
ATOM     10  C   UNL     1     -10.426   6.566   3.775  0.00  0.00    -0.023 A 
ATOM     11  C   UNL     1     -10.344   6.944   2.447  0.00  0.00    +0.006 A 
ATOM     12  C   UNL     1     -11.142   6.326   1.502  0.00  0.00    +0.000 A 
ATOM     13  C   UNL     1     -12.028   5.337   1.886  0.00  0.00    +0.000 A 
ATOM     14  C   UNL     1     -12.114   4.963   3.214  0.00  0.00    +0.000 A 
ATOM     15  C   UNL     1     -11.313   5.577   4.158  0.00  0.00    +0.006 A 
ENDBRANCH   3  10
BRANCH   2  16
ATOM     16  C   UNL     1      -8.000   5.214   4.927  0.00  0.00    +0.339 C 
ATOM     17  O   UNL     1      -6.906   4.710   4.755  0.00  0.00    -0.245 OA
BRANCH  16  18
ATOM     18  O   UNL     1      -9.045   4.446   5.302  0.00  0.00    -0.462 OA
BRANCH  18  19
ATOM     19  C   UNL     1      -8.794   3.051   5.479  0.00  0.00    +0.229 C 
ATOM     20  C   UNL     1     -10.087   2.350   5.902  0.00  0.00    +0.048 C 
ENDBRANCH  18  19
ENDBRANCH  16  18
ENDBRANCH   2  16
BRANCH   1  21
ATOM     21  C   UNL     1      -5.741   6.825   4.398  0.00  0.00    -0.026 C 
BRANCH  21  22
ATOM     22  N   UNL     1      -5.211   6.666   5.768  0.00  0.00    +0.389 N 
ATOM     23  H   UNL     1      -5.878   6.116   6.322  0.00  0.00    -0.081 HD
BRANCH  22  25
ATOM     24  C   UNL     1      -4.180   4.474   5.433  0.00  0.00    -0.017 C 
ATOM     25  C   UNL     1      -3.917   5.952   5.729  0.00  0.00    -0.081 C 
ENDBRANCH  22  25
BRANCH  22  26
ATOM     26  C   UNL     1      -5.038   7.990   6.401  0.00  0.00    +0.019 C 
BRANCH  26  27
ATOM     27  C   UNL     1      -4.711   7.794   7.858  0.00  0.00    +0.197 C 
ATOM     28  O   UNL     1      -4.615   6.674   8.313  0.00  0.00    -0.278 OA
ATOM     29  N   UNL     1      -4.524   8.864   8.657  0.00  0.00    -0.312 N 
ATOM     30  H   UNL     1      -4.601   9.760   8.293  0.00  0.00    +0.149 HD
BRANCH  29  31
ATOM     31  C   UNL     1      -4.206   8.673  10.074  0.00  0.00    +0.146 C 
BRANCH  31  32
ATOM     32  C   UNL     1      -4.048  10.017  10.739  0.00  0.00    +0.007 A 
ATOM     33  C   UNL     1      -4.984  10.781  11.352  0.00  0.00    +0.013 A 
ATOM     34  C   UNL     1      -4.608  11.995  11.895  0.00  0.00    +0.008 A 
ATOM     35  C   UNL     1      -3.312  12.380  11.808  0.00  0.00    +0.045 A 
ATOM     36  S   UNL     1      -2.577  11.010  10.930  0.00  0.00    -0.100 S 
ENDBRANCH  31  32
ENDBRANCH  29  31
ENDBRANCH  26  27
ENDBRANCH  22  26
ENDBRANCH  21  22
ENDBRANCH   1  21
TORSDOF 11
