REMARK  Name = ZINC40679663
REMARK  6 active torsions:
REMARK  status: ('A' for Active; 'I' for Inactive)
REMARK    1  A    between atoms: C_1  and  C_2
REMARK    2  A    between atoms: C_2  and  N_3
REMARK    3  A    between atoms: N_3  and  C_4
REMARK    4  A    between atoms: C_11  and  N_27
REMARK    5  A    between atoms: C_12  and  N_16
REMARK    6  A    between atoms: C_20  and  C_26
REMARK                            x       y       z     vdW  Elec       q    Type
REMARK                         _______ _______ _______ _____ _____    ______ ____
ROOT
ATOM      1  N   UNL     1      -1.357  -0.500   0.029  0.00  0.00    -0.285 N 
ATOM      2  C   UNL     1      -1.990  -0.773   1.237  0.00  0.00    +0.129 A 
ATOM      3  C   UNL     1      -3.261  -1.353   1.257  0.00  0.00    +0.104 A 
ATOM      4  C   UNL     1      -3.851  -1.606   2.496  0.00  0.00    +0.150 A 
ATOM      5  N   UNL     1      -3.184  -1.288   3.604  0.00  0.00    -0.221 NA
ATOM      6  C   UNL     1      -1.987  -0.742   3.541  0.00  0.00    +0.200 A 
ATOM      7  N   UNL     1      -1.393  -0.491   2.392  0.00  0.00    -0.332 N 
ATOM      8  H   UNL     1      -0.508  -0.092   2.388  0.00  0.00    +0.168 HD
ENDROOT
BRANCH   4   9
ATOM      9  N   UNL     1      -5.115  -2.181   2.573  0.00  0.00    -0.277 N 
ATOM     10  C   UNL     1      -5.689  -2.427   3.806  0.00  0.00    +0.165 A 
ATOM     11  N   UNL     1      -6.857  -2.962   4.079  0.00  0.00    -0.224 NA
ATOM     12  C   UNL     1      -7.293  -3.144   5.344  0.00  0.00    +0.083 A 
ATOM     13  C   UNL     1      -8.520  -3.703   5.773  0.00  0.00    -0.024 A 
ATOM     14  C   UNL     1      -8.810  -3.815   7.107  0.00  0.00    +0.005 A 
ATOM     15  C   UNL     1      -7.918  -3.389   8.081  0.00  0.00    +0.001 A 
ATOM     16  C   UNL     1      -6.709  -2.838   7.698  0.00  0.00    +0.017 A 
ATOM     17  C   UNL     1      -6.410  -2.721   6.363  0.00  0.00    +0.041 A 
ATOM     18  S   UNL     1      -5.027  -2.106   5.434  0.00  0.00    -0.052 S 
ATOM     19  C   UNL     1      -9.519  -4.179   4.750  0.00  0.00    +0.046 C 
ATOM     20  H   UNL     1      -5.594  -2.410   1.761  0.00  0.00    +0.156 HD
ENDBRANCH   4   9
BRANCH   1  21
ATOM     21  C   UNL     1      -1.452   0.773  -0.537  0.00  0.00    +0.035 A 
ATOM     22  C   UNL     1      -2.265   1.737   0.048  0.00  0.00    +0.023 A 
ATOM     23  C   UNL     1      -2.356   2.995  -0.514  0.00  0.00    +0.002 A 
ATOM     24  C   UNL     1      -1.639   3.296  -1.658  0.00  0.00    +0.000 A 
ATOM     25  C   UNL     1      -0.830   2.340  -2.243  0.00  0.00    +0.002 A 
ATOM     26  C   UNL     1      -0.730   1.081  -1.683  0.00  0.00    +0.023 A 
ENDBRANCH   1  21
BRANCH   3  27
ATOM     27  N   UNL     1      -3.927  -1.671   0.063  0.00  0.00    -0.353 N 
ATOM     28  H   UNL     1      -3.477  -1.558  -0.789  0.00  0.00    +0.143 HD
ATOM     29  H   UNL     1      -4.838  -2.005   0.090  0.00  0.00    +0.143 HD
ENDBRANCH   3  27
BRANCH   1  31
ATOM     30  C   UNL     1       0.862  -1.508  -0.172  0.00  0.00    +0.025 C 
ATOM     31  C   UNL     1      -0.591  -1.549  -0.649  0.00  0.00    +0.109 C 
ENDBRANCH   1  31
TORSDOF 4
