REMARK  Name = ZINC39677027
REMARK  9 active torsions:
REMARK  status: ('A' for Active; 'I' for Inactive)
REMARK    1  A    between atoms: C_1  and  C_2
REMARK    2  A    between atoms: C_5  and  C_34
REMARK    3  A    between atoms: C_6  and  C_8
REMARK    4  A    between atoms: C_8  and  C_9
REMARK    5  A    between atoms: C_9  and  N_10
REMARK    6  A    between atoms: C_11  and  C_13
REMARK    7  A    between atoms: C_24  and  C_26
REMARK    8  A    between atoms: C_30  and  O_31
REMARK    9  A    between atoms: O_31  and  C_32
REMARK                            x       y       z     vdW  Elec       q    Type
REMARK                         _______ _______ _______ _____ _____    ______ ____
ROOT
ATOM      1  C   UNL     1       2.690  -5.110   5.962  0.00  0.00    +0.100 C 
ATOM      2  C   UNL     1       1.838  -6.394   5.844  0.00  0.00    +0.121 C 
ATOM      3  N   UNL     1       2.809  -7.455   5.489  0.00  0.00    -0.296 N 
ATOM      4  C   UNL     1       4.009  -7.144   6.302  0.00  0.00    +0.115 C 
ATOM      5  C   UNL     1       4.113  -5.607   6.266  0.00  0.00    -0.004 C 
ATOM      6  C   UNL     1       4.580  -5.078   7.619  0.00  0.00    -0.010 C 
ATOM      7  C   UNL     1       6.018  -5.537   7.873  0.00  0.00    -0.082 C 
ATOM      8  N   UNL     1       6.889  -5.037   6.803  0.00  0.00    +0.379 N 
ATOM      9  C   UNL     1       6.491  -5.624   5.518  0.00  0.00    -0.082 C 
ATOM     10  C   UNL     1       5.072  -5.169   5.164  0.00  0.00    -0.010 C 
ATOM     11  C   UNL     1       2.639  -8.474   4.623  0.00  0.00    +0.251 C 
ATOM     12  O   UNL     1       1.625  -8.541   3.954  0.00  0.00    -0.270 OA
ATOM     13  H   UNL     1       6.813  -4.032   6.750  0.00  0.00    -0.086 HD
ATOM     14  H   UNL     1       7.846  -5.288   7.004  0.00  0.00    -0.086 HD
ENDROOT
BRANCH  11  15
ATOM     15  C   UNL     1       3.679  -9.505   4.487  0.00  0.00    +0.087 A 
ATOM     16  C   UNL     1       4.430  -9.919   5.565  0.00  0.00    +0.063 A 
ATOM     17  S   UNL     1       5.461 -11.080   4.931  0.00  0.00    -0.081 S 
ATOM     18  C   UNL     1       4.942 -11.063   3.228  0.00  0.00    +0.120 A 
ATOM     19  C   UNL     1       3.958 -10.136   3.217  0.00  0.00    +0.158 A 
ATOM     20 CL   UNL     1       5.548 -12.011   1.906  0.00  0.00    -0.072 Cl
BRANCH  19  21
ATOM     21  O   UNL     1       3.277  -9.814   2.082  0.00  0.00    -0.492 OA
ATOM     22  C   UNL     1       3.813  -8.758   1.282  0.00  0.00    +0.277 C 
ENDBRANCH  19  21
ENDBRANCH  11  15
BRANCH   1  24
ATOM     23  N   UNL     1       2.780  -3.001   4.673  0.00  0.00    -0.315 N 
ATOM     24  C   UNL     1       2.667  -4.344   4.665  0.00  0.00    +0.218 C 
ATOM     25  O   UNL     1       2.548  -4.936   3.613  0.00  0.00    -0.275 OA
ATOM     26  H   UNL     1       2.876  -2.527   5.514  0.00  0.00    +0.149 HD
BRANCH  23  27
ATOM     27  C   UNL     1       2.759  -2.256   3.411  0.00  0.00    +0.109 C 
BRANCH  27  28
ATOM     28  C   UNL     1       2.903  -0.761   3.699  0.00  0.00    +0.054 C 
BRANCH  28  34
ATOM     29  C   UNL     1       5.341   1.425  -0.085  0.00  0.00    +0.044 C 
ATOM     30  C   UNL     1       4.047   1.052   0.591  0.00  0.00    -0.050 A 
ATOM     31  C   UNL     1       2.840   1.412   0.022  0.00  0.00    +0.003 A 
ATOM     32  C   UNL     1       1.653   1.069   0.642  0.00  0.00    +0.004 A 
ATOM     33  C   UNL     1       1.674   0.366   1.833  0.00  0.00    -0.047 A 
ATOM     34  C   UNL     1       2.881   0.005   2.402  0.00  0.00    -0.043 A 
ATOM     35  C   UNL     1       4.067   0.344   1.779  0.00  0.00    +0.007 A 
ATOM     36  C   UNL     1       0.380  -0.006   2.510  0.00  0.00    +0.044 C 
ENDBRANCH  28  34
ENDBRANCH  27  28
ENDBRANCH  23  27
ENDBRANCH   1  24
TORSDOF 6
