REMARK  Name = ZINC48972269
REMARK  6 active torsions:
REMARK  status: ('A' for Active; 'I' for Inactive)
REMARK    1  A    between atoms: C_1  and  C_2
REMARK    2  A    between atoms: C_4  and  C_20
REMARK    3  A    between atoms: C_7  and  C_8
REMARK    4  A    between atoms: N_11  and  C_12
REMARK    5  A    between atoms: N_11  and  C_13
REMARK    6  A    between atoms: C_13  and  C_14
REMARK                            x       y       z     vdW  Elec       q    Type
REMARK                         _______ _______ _______ _____ _____    ______ ____
ROOT
ATOM      1  C   UNL     1       0.434   1.473  -0.016  0.00  0.00    +0.044 C 
ATOM      2  C   UNL     1       0.221  -0.019  -0.011  0.00  0.00    -0.035 A 
ATOM      3  C   UNL     1      -0.001  -0.708  -1.191  0.00  0.00    +0.027 A 
ATOM      4  C   UNL     1      -0.194  -2.076  -1.155  0.00  0.00    +0.041 A 
ATOM      5  N   UNL     1      -0.171  -2.740  -0.015  0.00  0.00    -0.236 NA
ATOM      6  C   UNL     1       0.036  -2.131   1.142  0.00  0.00    +0.132 A 
ATOM      7  C   UNL     1       0.246  -0.743   1.186  0.00  0.00    +0.055 A 
ATOM      8  N   UNL     1       0.051  -2.866   2.313  0.00  0.00    -0.313 N 
ATOM      9  C   UNL     1       1.324  -3.338   2.865  0.00  0.00    +0.131 C 
ATOM     10  C   UNL     1      -0.435  -2.824  -2.441  0.00  0.00    +0.065 C 
ENDROOT
BRANCH   7  11
ATOM     11  C   UNL     1       0.484  -0.059   2.472  0.00  0.00    +0.098 C 
ATOM     12  N   UNL     1       1.657   0.528   2.708  0.00  0.00    -0.387 N 
ATOM     13  N   UNL     1      -0.474  -0.029   3.398  0.00  0.00    -0.344 N 
ATOM     14  H   UNL     1       1.813   0.978   3.553  0.00  0.00    +0.157 HD
ATOM     15  H   UNL     1      -1.328  -0.457   3.227  0.00  0.00    +0.144 HD
ATOM     16  H   UNL     1      -0.318   0.420   4.244  0.00  0.00    +0.144 HD
ATOM     17  H   UNL     1       2.355   0.507   2.034  0.00  0.00    +0.157 HD
ENDBRANCH   7  11
BRANCH   8  18
ATOM     18  C   UNL     1      -1.205  -3.174   3.001  0.00  0.00    +0.148 C 
BRANCH  18  19
ATOM     19  C   UNL     1      -1.753  -4.479   2.486  0.00  0.00    +0.008 A 
ATOM     20  C   UNL     1      -1.534  -5.737   2.941  0.00  0.00    +0.014 A 
ATOM     21  C   UNL     1      -2.151  -6.798   2.304  0.00  0.00    +0.028 A 
ATOM     22  C   UNL     1      -2.958  -6.548   1.243  0.00  0.00    +0.078 A 
ATOM     23  S   UNL     1      -2.868  -4.769   1.121  0.00  0.00    -0.080 S 
ATOM     24 CL   UNL     1      -3.851  -7.667   0.262  0.00  0.00    -0.076 Cl
ENDBRANCH  18  19
ENDBRANCH   8  18
TORSDOF 3
