REMARK  Name = ZINC48028640
REMARK  11 active torsions:
REMARK  status: ('A' for Active; 'I' for Inactive)
REMARK    1  A    between atoms: C_1  and  N_2
REMARK    2  A    between atoms: N_2  and  C_3
REMARK    3  A    between atoms: N_2  and  C_4
REMARK    4  A    between atoms: C_4  and  C_5
REMARK    5  A    between atoms: C_5  and  O_6
REMARK    6  A    between atoms: O_6  and  C_7
REMARK    7  A    between atoms: C_11  and  C_13
REMARK    8  A    between atoms: C_13  and  N_14
REMARK    9  A    between atoms: C_15  and  C_17
REMARK   10  A    between atoms: N_19  and  C_20
REMARK   11  A    between atoms: C_21  and  C_25
REMARK                            x       y       z     vdW  Elec       q    Type
REMARK                         _______ _______ _______ _____ _____    ______ ____
ROOT
ATOM      1  N   UNL     1       6.833  -0.611   3.663  0.00  0.00    -0.303 N 
ATOM      2  C   UNL     1       7.438  -1.008   4.801  0.00  0.00    +0.300 C 
ATOM      3  O   UNL     1       8.055  -2.053   4.827  0.00  0.00    -0.265 OA
ATOM      4  H   UNL     1       6.340   0.224   3.642  0.00  0.00    +0.149 HD
ENDROOT
BRANCH   2   5
ATOM      5  C   UNL     1       7.349  -0.162   6.027  0.00  0.00    +0.304 C 
ATOM      6  O   UNL     1       6.732   0.883   6.001  0.00  0.00    -0.265 OA
ATOM      7  N   UNL     1       7.955  -0.558   7.165  0.00  0.00    -0.272 N 
ATOM      8  H   UNL     1       8.448  -1.393   7.186  0.00  0.00    +0.156 HD
BRANCH   7   9
ATOM      9  C   UNL     1       7.873   0.227   8.302  0.00  0.00    +0.084 A 
ATOM     10  C   UNL     1       8.432  -0.017   9.549  0.00  0.00    +0.065 A 
ATOM     11  C   UNL     1       8.189   0.975  10.570  0.00  0.00    +0.022 A 
ATOM     12  C   UNL     1       7.443   2.031  10.197  0.00  0.00    +0.048 A 
ATOM     13  S   UNL     1       7.080   1.694   8.488  0.00  0.00    -0.081 S 
BRANCH  10  14
ATOM     14  C   UNL     1       9.228  -1.220   9.815  0.00  0.00    +0.244 C 
ATOM     15  O   UNL     1       9.412  -2.036   8.931  0.00  0.00    -0.270 OA
ATOM     16  N   UNL     1       9.755  -1.422  11.039  0.00  0.00    -0.325 N 
ATOM     17  H   UNL     1       9.608  -0.771  11.744  0.00  0.00    +0.145 HD
ATOM     18  H   UNL     1      10.281  -2.217  11.215  0.00  0.00    +0.145 HD
ENDBRANCH  10  14
ENDBRANCH   7   9
ENDBRANCH   2   5
BRANCH   1  19
ATOM     19  C   UNL     1       6.920  -1.442   2.460  0.00  0.00    +0.140 C 
BRANCH  19  24
ATOM     20  C   UNL     1       4.128  -0.444   0.116  0.00  0.00    +0.121 A 
ATOM     21  C   UNL     1       4.782   0.441  -0.728  0.00  0.00    +0.045 A 
ATOM     22  C   UNL     1       6.123   0.714  -0.537  0.00  0.00    +0.004 A 
ATOM     23  C   UNL     1       6.813   0.104   0.494  0.00  0.00    +0.005 A 
ATOM     24  C   UNL     1       6.164  -0.779   1.337  0.00  0.00    -0.027 A 
ATOM     25  C   UNL     1       4.822  -1.050   1.154  0.00  0.00    +0.050 A 
BRANCH  20  26
ATOM     26  O   UNL     1       2.809  -0.713  -0.069  0.00  0.00    -0.494 OA
BRANCH  26  27
ATOM     27  C   UNL     1       2.159  -0.053  -1.157  0.00  0.00    +0.210 C 
BRANCH  27  28
ATOM     28  C   UNL     1       0.690  -0.478  -1.207  0.00  0.00    -0.038 C 
BRANCH  28  30
ATOM     29  C   UNL     1      -0.018   1.465   0.010  0.00  0.00    -0.096 C 
ATOM     30  N   UNL     1       0.002  -0.004   0.002  0.00  0.00    +0.378 N 
ATOM     31  C   UNL     1      -1.376  -0.512   0.012  0.00  0.00    -0.096 C 
ATOM     32  H   UNL     1       0.490  -0.338   0.820  0.00  0.00    -0.082 HD
ENDBRANCH  28  30
ENDBRANCH  27  28
ENDBRANCH  26  27
ENDBRANCH  20  26
ENDBRANCH  19  24
ENDBRANCH   1  19
TORSDOF 9
