REMARK  Name = ZINC48237841
REMARK  7 active torsions:
REMARK  status: ('A' for Active; 'I' for Inactive)
REMARK    1  A    between atoms: C_1  and  C_2
REMARK    2  A    between atoms: C_2  and  C_3
REMARK    3  A    between atoms: C_3  and  C_5
REMARK    4  A    between atoms: C_3  and  N_21
REMARK    5  A    between atoms: C_5  and  N_6
REMARK    6  A    between atoms: N_9  and  C_10
REMARK    7  A    between atoms: C_15  and  N_16
REMARK                            x       y       z     vdW  Elec       q    Type
REMARK                         _______ _______ _______ _____ _____    ______ ____
ROOT
ATOM      1  N   UNL     1      -2.429  -2.746  -0.591  0.00  0.00    -0.301 N 
ATOM      2  C   UNL     1      -2.408  -4.064  -0.870  0.00  0.00    +0.304 C 
ATOM      3  O   UNL     1      -1.367  -4.687  -0.785  0.00  0.00    -0.253 OA
ATOM      4  N   UNL     1      -3.540  -4.692  -1.244  0.00  0.00    -0.267 N 
ATOM      5  H   UNL     1      -3.260  -2.249  -0.659  0.00  0.00    +0.150 HD
ATOM      6  H   UNL     1      -4.355  -4.184  -1.378  0.00  0.00    +0.156 HD
ENDROOT
BRANCH   4   7
ATOM      7  C   UNL     1      -3.539  -6.081  -1.440  0.00  0.00    +0.073 A 
ATOM      8  C   UNL     1      -2.708  -6.899  -0.686  0.00  0.00    +0.028 A 
ATOM      9  C   UNL     1      -2.743  -8.267  -0.915  0.00  0.00    +0.019 A 
ATOM     10  C   UNL     1      -3.595  -8.772  -1.877  0.00  0.00    +0.084 A 
ATOM     11  N   UNL     1      -4.375  -7.972  -2.581  0.00  0.00    -0.348 N 
ATOM     12  C   UNL     1      -4.379  -6.663  -2.393  0.00  0.00    +0.121 A 
ATOM     13  H   UNL     1      -4.962  -8.355  -3.251  0.00  0.00    +0.167 HD
BRANCH  12  14
ATOM     14  N   UNL     1      -5.223  -5.858  -3.153  0.00  0.00    -0.315 N 
ATOM     15  C   UNL     1      -6.557  -5.393  -2.749  0.00  0.00    +0.106 C 
ATOM     16  C   UNL     1      -7.124  -4.556  -3.915  0.00  0.00    +0.020 C 
ATOM     17  C   UNL     1      -6.312  -5.066  -5.135  0.00  0.00    +0.020 C 
ATOM     18  C   UNL     1      -4.923  -5.326  -4.495  0.00  0.00    +0.106 C 
ENDBRANCH  12  14
ENDBRANCH   4   7
BRANCH   1  19
ATOM     19  C   UNL     1      -1.198  -2.063  -0.184  0.00  0.00    +0.090 C 
BRANCH  19  20
ATOM     20  C   UNL     1      -1.519  -0.616   0.194  0.00  0.00    -0.051 C 
BRANCH  20  21
ATOM     21  N   UNL     1      -2.188  -0.588   1.502  0.00  0.00    +0.385 N 
ATOM     22  C   UNL     1      -1.375  -1.318   2.486  0.00  0.00    -0.073 C 
ATOM     23  C   UNL     1      -1.918  -1.022   3.884  0.00  0.00    +0.017 C 
ATOM     24  C   UNL     1      -3.407  -1.260   3.914  0.00  0.00    -0.048 A 
ATOM     25  C   UNL     1      -4.035  -1.386   5.143  0.00  0.00    +0.004 A 
ATOM     26  C   UNL     1      -5.397  -1.602   5.209  0.00  0.00    +0.000 A 
ATOM     27  C   UNL     1      -6.137  -1.692   4.044  0.00  0.00    +0.000 A 
ATOM     28  C   UNL     1      -5.511  -1.568   2.820  0.00  0.00    +0.002 A 
ATOM     29  C   UNL     1      -4.143  -1.353   2.752  0.00  0.00    -0.061 A 
ATOM     30  C   UNL     1      -3.500  -1.232   1.395  0.00  0.00    -0.042 C 
ATOM     31  H   UNL     1      -2.305   0.368   1.801  0.00  0.00    -0.081 HD
ENDBRANCH  20  21
BRANCH  20  33
ATOM     32  C   UNL     1      -0.548   1.655   0.570  0.00  0.00    +0.002 C 
ATOM     33  C   UNL     1      -0.222   0.192   0.268  0.00  0.00    -0.017 C 
ENDBRANCH  20  33
ENDBRANCH  19  20
ENDBRANCH   1  19
TORSDOF 6
