REMARK  Name = ZINC66955171
REMARK  10 active torsions:
REMARK  status: ('A' for Active; 'I' for Inactive)
REMARK    1  A    between atoms: C_1  and  C_2
REMARK    2  A    between atoms: C_2  and  C_4
REMARK    3  A    between atoms: C_2  and  S_7
REMARK    4  A    between atoms: C_4  and  C_5
REMARK    5  A    between atoms: S_7  and  C_8
REMARK    6  A    between atoms: C_13  and  N_14
REMARK    7  A    between atoms: N_17  and  C_18
REMARK    8  A    between atoms: C_18  and  C_19
REMARK    9  A    between atoms: C_19  and  C_21
REMARK   10  A    between atoms: C_19  and  O_28
REMARK                            x       y       z     vdW  Elec       q    Type
REMARK                         _______ _______ _______ _____ _____    ______ ____
ROOT
ATOM      1  N   UNL     1       0.886  -1.185  -4.328  0.00  0.00    -0.268 N 
ATOM      2  C   UNL     1       1.080  -1.655  -5.576  0.00  0.00    +0.304 C 
ATOM      3  O   UNL     1       0.402  -1.238  -6.495  0.00  0.00    -0.253 OA
ATOM      4  N   UNL     1       2.026  -2.587  -5.806  0.00  0.00    -0.296 N 
ATOM      5  H   UNL     1       1.481  -1.454  -3.611  0.00  0.00    +0.156 HD
ATOM      6  H   UNL     1       2.567  -2.920  -5.072  0.00  0.00    +0.150 HD
ENDROOT
BRANCH   1  12
ATOM      7  C   UNL     1      -0.114   0.561  -2.977  0.00  0.00    +0.029 A 
ATOM      8  C   UNL     1      -1.166   1.430  -2.728  0.00  0.00    +0.016 A 
ATOM      9  C   UNL     1      -2.274   1.430  -3.555  0.00  0.00    +0.001 A 
ATOM     10  C   UNL     1      -2.338   0.564  -4.631  0.00  0.00    +0.002 A 
ATOM     11  C   UNL     1      -1.294  -0.306  -4.887  0.00  0.00    +0.024 A 
ATOM     12  C   UNL     1      -0.176  -0.308  -4.067  0.00  0.00    +0.048 A 
BRANCH   7  13
ATOM     13  S   UNL     1       1.300   0.559  -1.925  0.00  0.00    -0.119 S 
BRANCH  13  15
ATOM     14  C   UNL     1       1.112   3.251  -1.474  0.00  0.00    +0.020 C 
ATOM     15  C   UNL     1       0.977   1.907  -0.755  0.00  0.00    +0.062 C 
BRANCH  15  16
ATOM     16  C   UNL     1       1.987   1.839   0.393  0.00  0.00    +0.132 C 
BRANCH  16  17
ATOM     17  C   UNL     1       1.777   0.599   1.158  0.00  0.00    +0.064 C 
ATOM     18  N   UNL     1       1.615  -0.358   1.749  0.00  0.00    -0.197 NA
ENDBRANCH  16  17
ENDBRANCH  15  16
ENDBRANCH  13  15
ENDBRANCH   7  13
ENDBRANCH   1  12
BRANCH   4  19
ATOM     19  C   UNL     1       2.237  -3.098  -7.162  0.00  0.00    +0.141 C 
BRANCH  19  20
ATOM     20  C   UNL     1       3.360  -4.138  -7.147  0.00  0.00    +0.162 C 
BRANCH  20  21
ATOM     21  C   UNL     1       3.661  -4.573  -8.558  0.00  0.00    -0.018 A 
ATOM     22  C   UNL     1       2.849  -5.501  -9.183  0.00  0.00    +0.007 A 
ATOM     23  C   UNL     1       3.124  -5.901 -10.477  0.00  0.00    +0.020 A 
ATOM     24  C   UNL     1       4.213  -5.372 -11.147  0.00  0.00    +0.041 A 
ATOM     25  C   UNL     1       5.025  -4.443 -10.521  0.00  0.00    +0.020 A 
ATOM     26  C   UNL     1       4.745  -4.040  -9.229  0.00  0.00    +0.007 A 
ATOM     27 CL   UNL     1       4.560  -5.873 -12.772  0.00  0.00    -0.084 Cl
ENDBRANCH  20  21
BRANCH  20  28
ATOM     28  O   UNL     1       2.950  -5.269  -6.377  0.00  0.00    -0.386 OA
ATOM     29  H   UNL     1       2.158  -5.710  -6.715  0.00  0.00    +0.210 HD
ENDBRANCH  20  28
ENDBRANCH  19  20
ENDBRANCH   4  19
TORSDOF 9
