REMARK  Name = ZINC27830086
REMARK  10 active torsions:
REMARK  status: ('A' for Active; 'I' for Inactive)
REMARK    1  A    between atoms: C_1  and  C_2
REMARK    2  A    between atoms: C_2  and  N_3
REMARK    3  A    between atoms: N_3  and  C_4
REMARK    4  A    between atoms: N_3  and  C_6
REMARK    5  A    between atoms: C_4  and  C_5
REMARK    6  A    between atoms: C_11  and  C_23
REMARK    7  A    between atoms: N_13  and  C_14
REMARK    8  A    between atoms: C_28  and  C_31
REMARK    9  A    between atoms: C_34  and  O_37
REMARK   10  A    between atoms: O_37  and  C_38
REMARK                            x       y       z     vdW  Elec       q    Type
REMARK                         _______ _______ _______ _____ _____    ______ ____
ROOT
ATOM      1  C   UNL     1      -1.231   1.769  -0.022  0.00  0.00    +0.033 A 
ATOM      2  C   UNL     1      -1.253   3.165   0.001  0.00  0.00    +0.024 A 
ATOM      3  C   UNL     1      -0.089   3.875  -0.003  0.00  0.00    +0.013 A 
ATOM      4  C   UNL     1       1.142   3.200  -0.033  0.00  0.00    +0.018 A 
ATOM      5  C   UNL     1       2.355   3.929  -0.096  0.00  0.00    +0.030 A 
ATOM      6  C   UNL     1       3.531   3.227  -0.331  0.00  0.00    +0.098 A 
ATOM      7  C   UNL     1       3.422   1.769  -0.532  0.00  0.00    +0.212 A 
ATOM      8  N   UNL     1       4.330   1.107  -1.217  0.00  0.00    -0.325 N 
ATOM      9  O   UNL     1       2.354   1.134   0.015  0.00  0.00    -0.438 OA
ATOM     10  C   UNL     1       1.168   1.792  -0.021  0.00  0.00    +0.139 A 
ATOM     11  C   UNL     1      -0.022   1.085  -0.024  0.00  0.00    +0.070 A 
ATOM     12  H   UNL     1       5.140   1.650  -1.726  0.00  0.00    +0.169 HD
ENDROOT
BRANCH   6  13
ATOM     13  C   UNL     1       4.832   3.910  -0.379  0.00  0.00    +0.255 C 
ATOM     14  O   UNL     1       5.847   3.272  -0.587  0.00  0.00    -0.270 OA
ATOM     15  N   UNL     1       4.901   5.243  -0.193  0.00  0.00    -0.261 N 
ATOM     16  C   UNL     1       6.129   5.888  -0.237  0.00  0.00    +0.165 A 
ATOM     17  N   UNL     1       6.406   7.170  -0.087  0.00  0.00    -0.225 NA
ATOM     18  C   UNL     1       7.650   7.618  -0.157  0.00  0.00    +0.080 A 
ATOM     19  C   UNL     1       8.667   6.738  -0.401  0.00  0.00    +0.076 A 
ATOM     20  S   UNL     1       7.756   5.204  -0.522  0.00  0.00    -0.060 S 
ATOM     21  H   UNL     1       3.983   5.820  -0.005  0.00  0.00    +0.157 HD
BRANCH  18  22
ATOM     22  C   UNL     1       7.937   9.063   0.021  0.00  0.00    +0.001 A 
ATOM     23  C   UNL     1       9.249   9.529  -0.054  0.00  0.00    +0.013 A 
ATOM     24  C   UNL     1       9.512  10.873   0.106  0.00  0.00    +0.046 A 
ATOM     25  C   UNL     1       8.473  11.760   0.354  0.00  0.00    +0.120 A 
ATOM     26  C   UNL     1       7.167  11.299   0.435  0.00  0.00    +0.046 A 
ATOM     27  C   UNL     1       6.896   9.956   0.270  0.00  0.00    +0.013 A 
BRANCH  25  28
ATOM     28  O   UNL     1       8.736  13.084   0.516  0.00  0.00    -0.495 OA
ATOM     29  C   UNL     1      10.102  13.490   0.420  0.00  0.00    +0.277 C 
ENDBRANCH  25  28
ENDBRANCH  18  22
ENDBRANCH   6  13
BRANCH   8  30
ATOM     30  C   UNL     1       4.266  -0.257  -1.298  0.00  0.00    +0.042 A 
ATOM     31  C   UNL     1       4.836  -1.047  -0.296  0.00  0.00    +0.026 A 
ATOM     32  C   UNL     1       4.763  -2.421  -0.381  0.00  0.00    +0.002 A 
ATOM     33  C   UNL     1       4.136  -3.019  -1.460  0.00  0.00    +0.000 A 
ATOM     34  C   UNL     1       3.573  -2.243  -2.458  0.00  0.00    +0.002 A 
ATOM     35  C   UNL     1       3.634  -0.867  -2.384  0.00  0.00    +0.026 A 
ENDBRANCH   8  30
BRANCH   1  36
ATOM     36  N   UNL     1      -2.425   1.060  -0.036  0.00  0.00    -0.330 N 
BRANCH  36  38
ATOM     37  C   UNL     1      -4.141   2.044  -1.474  0.00  0.00    +0.024 C 
ATOM     38  C   UNL     1      -3.703   1.776  -0.033  0.00  0.00    +0.102 C 
ENDBRANCH  36  38
BRANCH  36  39
ATOM     39  C   UNL     1      -2.408  -0.405  -0.054  0.00  0.00    +0.102 C 
ATOM     40  C   UNL     1      -2.408  -0.933   1.382  0.00  0.00    +0.024 C 
ENDBRANCH  36  39
ENDBRANCH   1  36
TORSDOF 7
