REMARK  Name = ZINC63479631
REMARK  4 active torsions:
REMARK  status: ('A' for Active; 'I' for Inactive)
REMARK    1  A    between atoms: C_1  and  N_2
REMARK    2  A    between atoms: C_5  and  C_20
REMARK    3  A    between atoms: C_7  and  O_19
REMARK    4  A    between atoms: N_9  and  C_12
REMARK                            x       y       z     vdW  Elec       q    Type
REMARK                         _______ _______ _______ _____ _____    ______ ____
ROOT
ATOM      1  C   UNL     1      -0.029   1.451   0.075  0.00  0.00    +0.143 C 
ATOM      2  N   UNL     1      -0.006  -0.013   0.033  0.00  0.00    -0.228 N 
ATOM      3  C   UNL     1      -1.166  -0.694   0.004  0.00  0.00    +0.232 C 
ATOM      4  O   UNL     1      -2.218  -0.096  -0.067  0.00  0.00    -0.275 OA
ATOM      5  C   UNL     1      -1.157  -2.201   0.061  0.00  0.00    +0.142 C 
ATOM      6  C   UNL     1       0.078  -2.725  -0.676  0.00  0.00    +0.224 C 
ATOM      7  N   UNL     1       1.258  -1.968  -0.254  0.00  0.00    -0.228 N 
ATOM      8  C   UNL     1       1.174  -0.656   0.017  0.00  0.00    +0.317 C 
ATOM      9  O   UNL     1       2.191  -0.035   0.260  0.00  0.00    -0.252 OA
ENDROOT
BRANCH   5  10
ATOM     10  C   UNL     1      -1.113  -2.657   1.521  0.00  0.00    +0.096 C 
ATOM     11  C   UNL     1      -2.396  -2.224   2.234  0.00  0.00    +0.124 C 
ATOM     12  C   UNL     1      -2.199  -2.562   3.708  0.00  0.00    -0.036 C 
ATOM     13  C   UNL     1      -3.234  -3.310   4.063  0.00  0.00    -0.001 A 
ATOM     14  C   UNL     1      -3.644  -3.865   5.363  0.00  0.00    +0.010 A 
ATOM     15  C   UNL     1      -4.777  -4.615   5.365  0.00  0.00    +0.001 A 
ATOM     16  C   UNL     1      -5.535  -4.866   4.217  0.00  0.00    +0.002 A 
ATOM     17  C   UNL     1      -5.237  -4.391   2.981  0.00  0.00    +0.026 A 
ATOM     18  C   UNL     1      -4.069  -3.583   2.853  0.00  0.00    +0.043 A 
ATOM     19  N   UNL     1      -3.568  -2.980   1.793  0.00  0.00    -0.376 N 
ATOM     20  C   UNL     1      -0.958  -2.140   4.457  0.00  0.00    +0.048 C 
ATOM     21  C   UNL     1       0.235  -2.528   3.566  0.00  0.00    +0.085 C 
ATOM     22  N   UNL     1       0.030  -2.030   2.202  0.00  0.00    -0.310 NA
ATOM     23  H   UNL     1       0.872  -2.121   1.653  0.00  0.00    +0.122 HD
ATOM     24  H   UNL     1      -3.904  -3.026   0.884  0.00  0.00    +0.160 HD
ENDBRANCH   5  10
BRANCH   7  25
ATOM     25  C   UNL     1       2.491  -2.620  -0.136  0.00  0.00    +0.040 A 
ATOM     26  C   UNL     1       3.535  -2.293  -0.990  0.00  0.00    +0.025 A 
ATOM     27  C   UNL     1       4.750  -2.939  -0.872  0.00  0.00    +0.022 A 
ATOM     28  C   UNL     1       4.928  -3.910   0.097  0.00  0.00    +0.041 A 
ATOM     29  C   UNL     1       3.888  -4.238   0.950  0.00  0.00    +0.022 A 
ATOM     30  C   UNL     1       2.673  -3.591   0.840  0.00  0.00    +0.025 A 
ATOM     31 CL   UNL     1       6.456  -4.720   0.243  0.00  0.00    -0.084 Cl
ENDBRANCH   7  25
BRANCH   6  32
ATOM     32  O   UNL     1      -0.107  -2.570  -2.085  0.00  0.00    -0.373 OA
ATOM     33  H   UNL     1       0.638  -2.882  -2.616  0.00  0.00    +0.212 HD
ENDBRANCH   6  32
TORSDOF 3
