REMARK  Name = ZINC36202085
REMARK  11 active torsions:
REMARK  status: ('A' for Active; 'I' for Inactive)
REMARK    1  A    between atoms: C_1  and  C_2
REMARK    2  A    between atoms: C_9  and  C_16
REMARK    3  A    between atoms: C_11  and  O_12
REMARK    4  A    between atoms: C_16  and  S_17
REMARK    5  A    between atoms: S_17  and  C_18
REMARK    6  A    between atoms: C_21  and  C_28
REMARK    7  A    between atoms: N_22  and  C_23
REMARK    8  A    between atoms: C_23  and  C_24
REMARK    9  A    between atoms: C_24  and  C_25
REMARK   10  A    between atoms: C_25  and  O_26
REMARK   11  A    between atoms: O_26  and  C_27
REMARK                            x       y       z     vdW  Elec       q    Type
REMARK                         _______ _______ _______ _____ _____    ______ ____
ROOT
ATOM      1  C   UNL     1      -2.562  -6.979  -0.509  0.00  0.00    +0.113 C 
ENDROOT
BRANCH   1  10
ATOM      2  C   UNL     1       0.716   1.214  -0.726  0.00  0.00    +0.109 C 
ATOM      3  C   UNL     1       0.534  -0.279  -0.823  0.00  0.00    +0.214 C 
ATOM      4  O   UNL     1       1.477  -0.989  -1.125  0.00  0.00    -0.276 OA
ATOM      5  N   UNL     1      -0.645  -0.817  -0.580  0.00  0.00    -0.286 N 
ATOM      6  C   UNL     1      -0.780  -2.170  -0.534  0.00  0.00    +0.037 A 
ATOM      7  C   UNL     1      -2.056  -2.750  -0.641  0.00  0.00    +0.024 A 
ATOM      8  C   UNL     1      -2.203  -4.100  -0.597  0.00  0.00    +0.013 A 
ATOM      9  C   UNL     1      -1.075  -4.925  -0.444  0.00  0.00    +0.022 A 
ATOM     10  C   UNL     1      -1.207  -6.329  -0.397  0.00  0.00    -0.020 A 
ATOM     11  C   UNL     1      -0.067  -7.093  -0.245  0.00  0.00    +0.092 A 
ATOM     12  C   UNL     1       1.171  -6.477  -0.143  0.00  0.00    +0.285 A 
ATOM     13  O   UNL     1       1.292  -5.146  -0.188  0.00  0.00    -0.425 OA
ATOM     14  C   UNL     1       0.211  -4.351  -0.335  0.00  0.00    +0.141 A 
ATOM     15  C   UNL     1       0.351  -2.976  -0.386  0.00  0.00    +0.070 A 
ATOM     16  H   UNL     1      -1.417  -0.247  -0.434  0.00  0.00    +0.155 HD
BRANCH  12  17
ATOM     17  O   UNL     1       2.275  -7.234   0.004  0.00  0.00    -0.480 OA
ATOM     18  H   UNL     1       3.095  -6.726   0.067  0.00  0.00    +0.295 HD
ENDBRANCH  12  17
ENDBRANCH   1  10
BRANCH   1  19
ATOM     19  S   UNL     1      -2.747  -7.710  -2.158  0.00  0.00    -0.081 S 
BRANCH  19  20
ATOM     20  C   UNL     1      -4.359  -8.421  -2.131  0.00  0.00    +0.192 A 
ATOM     21  N   UNL     1      -5.204  -8.398  -1.125  0.00  0.00    -0.122 NA
ATOM     22  N   UNL     1      -6.288  -9.010  -1.445  0.00  0.00    -0.128 NA
ATOM     23  C   UNL     1      -6.201  -9.462  -2.674  0.00  0.00    +0.166 A 
ATOM     24  N   UNL     1      -4.965  -9.094  -3.154  0.00  0.00    -0.302 N 
BRANCH  23  25
ATOM     25  C   UNL     1      -7.238 -10.219  -3.408  0.00  0.00    +0.038 A 
ATOM     26  C   UNL     1      -7.590  -9.848  -4.707  0.00  0.00    +0.013 A 
ATOM     27  C   UNL     1      -8.558 -10.558  -5.386  0.00  0.00    +0.001 A 
ATOM     28  C   UNL     1      -9.180 -11.637  -4.782  0.00  0.00    +0.001 A 
ATOM     29  C   UNL     1      -8.837 -12.011  -3.495  0.00  0.00    +0.021 A 
ATOM     30  C   UNL     1      -7.866 -11.312  -2.806  0.00  0.00    +0.052 A 
ATOM     31 CL   UNL     1      -7.432 -11.786  -1.194  0.00  0.00    -0.083 Cl
ENDBRANCH  23  25
BRANCH  24  32
ATOM     32  C   UNL     1      -4.413  -9.369  -4.482  0.00  0.00    +0.128 C 
BRANCH  32  33
ATOM     33  C   UNL     1      -3.567 -10.643  -4.429  0.00  0.00    +0.050 C 
BRANCH  33  34
ATOM     34  C   UNL     1      -2.990 -10.930  -5.817  0.00  0.00    +0.161 C 
BRANCH  34  35
ATOM     35  O   UNL     1      -2.199 -12.120  -5.767  0.00  0.00    -0.383 OA
ATOM     36  C   UNL     1      -1.611 -12.480  -7.019  0.00  0.00    +0.193 C 
ENDBRANCH  34  35
ENDBRANCH  33  34
ENDBRANCH  32  33
ENDBRANCH  24  32
ENDBRANCH  19  20
ENDBRANCH   1  19
TORSDOF 9
