REMARK  Name = ZINC67122095
REMARK  10 active torsions:
REMARK  status: ('A' for Active; 'I' for Inactive)
REMARK    1  A    between atoms: C_1  and  C_2
REMARK    2  A    between atoms: N_5  and  C_8
REMARK    3  A    between atoms: C_8  and  C_9
REMARK    4  A    between atoms: C_9  and  C_11
REMARK    5  A    between atoms: C_9  and  O_26
REMARK    6  A    between atoms: C_11  and  N_12
REMARK    7  A    between atoms: N_12  and  C_13
REMARK    8  A    between atoms: C_13  and  C_14
REMARK    9  A    between atoms: C_18  and  O_20
REMARK   10  A    between atoms: O_20  and  C_21
REMARK                            x       y       z     vdW  Elec       q    Type
REMARK                         _______ _______ _______ _____ _____    ______ ____
ROOT
ATOM      1  N   UNL     1       3.966  -6.215   1.961  0.00  0.00    +0.383 N 
ATOM      2  H   UNL     1       4.808  -5.662   1.893  0.00  0.00    -0.085 HD
ATOM      3  H   UNL     1       3.540  -6.068   2.864  0.00  0.00    -0.085 HD
ENDROOT
BRANCH   1   4
ATOM      4  C   UNL     1       3.028  -5.812   0.905  0.00  0.00    -0.052 C 
BRANCH   4   5
ATOM      5  C   UNL     1       2.681  -4.331   1.070  0.00  0.00    +0.081 C 
BRANCH   5   6
ATOM      6  O   UNL     1       2.077  -4.123   2.349  0.00  0.00    -0.395 OA
ATOM      7  H   UNL     1       1.262  -4.624   2.485  0.00  0.00    +0.210 HD
ENDBRANCH   5   6
BRANCH   5   8
ATOM      8  C   UNL     1       1.704  -3.911  -0.029  0.00  0.00    -0.049 C 
BRANCH   8  13
ATOM      9  C   UNL     1       0.801   1.694  -0.579  0.00  0.00    +0.007 C 
ATOM     10  C   UNL     1       1.167   0.235  -0.859  0.00  0.00    -0.018 C 
ATOM     11  C   UNL     1       2.284  -0.205   0.093  0.00  0.00    -0.016 C 
ATOM     12  C   UNL     1       2.590  -1.686  -0.138  0.00  0.00    -0.078 C 
ATOM     13  N   UNL     1       1.385  -2.484   0.118  0.00  0.00    +0.381 N 
ATOM     14  C   UNL     1       0.333  -2.118  -0.839  0.00  0.00    -0.078 C 
ATOM     15  C   UNL     1      -0.060  -0.654  -0.635  0.00  0.00    -0.016 C 
ATOM     16  H   UNL     1       1.060  -2.309   1.057  0.00  0.00    -0.082 HD
ENDBRANCH   8  13
ENDBRANCH   5   8
ENDBRANCH   4   5
ENDBRANCH   1   4
BRANCH   1  17
ATOM     17  C   UNL     1       4.300  -7.637   1.803  0.00  0.00    -0.046 C 
BRANCH  17  18
ATOM     18  C   UNL     1       5.262  -8.051   2.886  0.00  0.00    -0.057 A 
ATOM     19  C   UNL     1       6.624  -7.940   2.678  0.00  0.00    +0.051 A 
ATOM     20  C   UNL     1       7.515  -8.319   3.672  0.00  0.00    +0.166 A 
ATOM     21  C   UNL     1       7.035  -8.809   4.880  0.00  0.00    +0.204 A 
ATOM     22  C   UNL     1       5.664  -8.920   5.085  0.00  0.00    +0.165 A 
ATOM     23  C   UNL     1       4.781  -8.535   4.088  0.00  0.00    +0.051 A 
ATOM     24  O   UNL     1       7.892  -9.180   5.872  0.00  0.00    -0.482 OA
ATOM     25  C   UNL     1       9.255  -9.404   5.494  0.00  0.00    +0.270 C 
ATOM     26  C   UNL     1       9.703  -8.241   4.599  0.00  0.00    +0.270 C 
ATOM     27  O   UNL     1       8.853  -8.207   3.448  0.00  0.00    -0.485 OA
BRANCH  22  28
ATOM     28  O   UNL     1       5.190  -9.402   6.265  0.00  0.00    -0.491 OA
ATOM     29  C   UNL     1       3.771  -9.489   6.407  0.00  0.00    +0.277 C 
ENDBRANCH  22  28
ENDBRANCH  17  18
ENDBRANCH   1  17
TORSDOF 8
