REMARK  Name = ZINC40679438
REMARK  8 active torsions:
REMARK  status: ('A' for Active; 'I' for Inactive)
REMARK    1  A    between atoms: C_1  and  C_2
REMARK    2  A    between atoms: C_2  and  N_3
REMARK    3  A    between atoms: N_3  and  C_4
REMARK    4  A    between atoms: C_11  and  N_25
REMARK    5  A    between atoms: C_12  and  N_16
REMARK    6  A    between atoms: N_16  and  C_17
REMARK    7  A    between atoms: C_19  and  C_24
REMARK    8  A    between atoms: C_22  and  C_23
REMARK                            x       y       z     vdW  Elec       q    Type
REMARK                         _______ _______ _______ _____ _____    ______ ____
ROOT
ATOM      1  N   UNL     1      -1.475  -0.540  -0.046  0.00  0.00    -0.284 N 
ATOM      2  C   UNL     1      -2.201  -0.610   1.138  0.00  0.00    +0.151 A 
ATOM      3  C   UNL     1      -3.549  -0.974   1.123  0.00  0.00    +0.104 A 
ATOM      4  C   UNL     1      -4.231  -1.029   2.340  0.00  0.00    +0.126 A 
ATOM      5  N   UNL     1      -3.574  -0.735   3.460  0.00  0.00    -0.333 N 
ATOM      6  C   UNL     1      -2.301  -0.397   3.430  0.00  0.00    +0.200 A 
ATOM      7  N   UNL     1      -1.620  -0.337   2.304  0.00  0.00    -0.220 NA
ATOM      8  H   UNL     1      -4.040  -0.771   4.310  0.00  0.00    +0.168 HD
ENDROOT
BRANCH   1   9
ATOM      9  C   UNL     1      -1.336   0.682  -0.709  0.00  0.00    +0.035 A 
ATOM     10  C   UNL     1      -0.519   0.778  -1.829  0.00  0.00    +0.023 A 
ATOM     11  C   UNL     1      -0.385   1.987  -2.482  0.00  0.00    +0.002 A 
ATOM     12  C   UNL     1      -1.062   3.102  -2.022  0.00  0.00    +0.000 A 
ATOM     13  C   UNL     1      -1.875   3.010  -0.908  0.00  0.00    +0.002 A 
ATOM     14  C   UNL     1      -2.019   1.803  -0.254  0.00  0.00    +0.023 A 
ENDBRANCH   1   9
BRANCH   3  15
ATOM     15  N   UNL     1      -4.201  -1.275  -0.083  0.00  0.00    -0.353 N 
ATOM     16  H   UNL     1      -3.699  -1.304  -0.912  0.00  0.00    +0.143 HD
ATOM     17  H   UNL     1      -5.154  -1.454  -0.088  0.00  0.00    +0.143 HD
ENDBRANCH   3  15
BRANCH   1  19
ATOM     18  C   UNL     1       0.560  -1.896  -0.039  0.00  0.00    +0.025 C 
ATOM     19  C   UNL     1      -0.856  -1.748  -0.598  0.00  0.00    +0.109 C 
ENDBRANCH   1  19
BRANCH   4  20
ATOM     20  N   UNL     1      -5.574  -1.385   2.381  0.00  0.00    -0.299 N 
ATOM     21  H   UNL     1      -6.061  -1.536   1.556  0.00  0.00    +0.154 HD
BRANCH  20  22
ATOM     22  C   UNL     1      -6.222  -1.525   3.611  0.00  0.00    +0.036 A 
ATOM     23  C   UNL     1      -6.494  -2.791   4.115  0.00  0.00    +0.027 A 
ATOM     24  C   UNL     1      -7.134  -2.926   5.331  0.00  0.00    -0.049 A 
ATOM     25  C   UNL     1      -7.505  -1.803   6.047  0.00  0.00    +0.004 A 
ATOM     26  C   UNL     1      -7.236  -0.541   5.549  0.00  0.00    +0.005 A 
ATOM     27  C   UNL     1      -6.591  -0.399   4.336  0.00  0.00    -0.029 A 
ATOM     28  C   UNL     1      -6.293   0.976   3.797  0.00  0.00    +0.045 C 
ATOM     29  C   UNL     1      -7.430  -4.299   5.878  0.00  0.00    +0.044 C 
ENDBRANCH  20  22
ENDBRANCH   4  20
TORSDOF 5
