REMARK  Name = ZINC27528531
REMARK  10 active torsions:
REMARK  status: ('A' for Active; 'I' for Inactive)
REMARK    1  A    between atoms: C_1  and  O_2
REMARK    2  A    between atoms: O_2  and  C_3
REMARK    3  A    between atoms: C_8  and  C_9
REMARK    4  A    between atoms: C_9  and  C_10
REMARK    5  A    between atoms: C_9  and  C_17
REMARK    6  A    between atoms: C_9  and  O_32
REMARK    7  A    between atoms: C_13  and  O_16
REMARK    8  A    between atoms: C_17  and  C_19
REMARK    9  A    between atoms: C_17  and  C_26
REMARK   10  A    between atoms: C_19  and  N_20
REMARK                            x       y       z     vdW  Elec       q    Type
REMARK                         _______ _______ _______ _____ _____    ______ ____
ROOT
ATOM      1  C   UNL     1      -1.282   2.192   0.162  0.00  0.00    +0.124 C 
ENDROOT
BRANCH   1   7
ATOM      2  C   UNL     1       0.547   0.950  -1.020  0.00  0.00    +0.126 A 
ATOM      3  C   UNL     1       1.709   0.191  -1.006  0.00  0.00    +0.046 A 
ATOM      4  C   UNL     1       2.289  -0.159   0.198  0.00  0.00    +0.004 A 
ATOM      5  C   UNL     1       1.716   0.251   1.387  0.00  0.00    +0.001 A 
ATOM      6  C   UNL     1       0.562   1.011   1.376  0.00  0.00    +0.010 A 
ATOM      7  C   UNL     1      -0.023   1.363   0.174  0.00  0.00    +0.030 A 
BRANCH   2   9
ATOM      8  C   UNL     1       0.551   0.742  -3.389  0.00  0.00    +0.277 C 
ATOM      9  O   UNL     1      -0.029   1.290  -2.203  0.00  0.00    -0.495 OA
ENDBRANCH   2   9
ENDBRANCH   1   7
BRANCH   1  10
ATOM     10  C   UNL     1      -2.405   1.389  -0.443  0.00  0.00    -0.011 A 
ATOM     11  C   UNL     1      -2.666   1.481  -1.798  0.00  0.00    +0.010 A 
ATOM     12  C   UNL     1      -3.699   0.751  -2.354  0.00  0.00    +0.046 A 
ATOM     13  C   UNL     1      -4.474  -0.074  -1.552  0.00  0.00    +0.117 A 
ATOM     14  C   UNL     1      -4.210  -0.164  -0.193  0.00  0.00    +0.046 A 
ATOM     15  C   UNL     1      -3.176   0.568   0.358  0.00  0.00    +0.010 A 
BRANCH  13  16
ATOM     16  O   UNL     1      -5.491  -0.792  -2.097  0.00  0.00    -0.507 OA
ATOM     17  H   UNL     1      -6.105  -1.446  -1.460  0.00  0.00    +0.292 HD
ENDBRANCH  13  16
ENDBRANCH   1  10
BRANCH   1  18
ATOM     18  O   UNL     1      -1.625   2.556   1.501  0.00  0.00    -0.379 OA
ATOM     19  H   UNL     1      -2.520   3.166   1.692  0.00  0.00    +0.211 HD
ENDBRANCH   1  18
BRANCH   1  20
ATOM     20  C   UNL     1      -1.053   3.456  -0.668  0.00  0.00    +0.043 C 
BRANCH  20  21
ATOM     21  C   UNL     1       0.154   4.190  -0.143  0.00  0.00    -0.043 A 
ATOM     22  C   UNL     1       1.290   4.298  -0.922  0.00  0.00    +0.004 A 
ATOM     23  C   UNL     1       2.396   4.976  -0.442  0.00  0.00    +0.000 A 
ATOM     24  C   UNL     1       2.367   5.538   0.821  0.00  0.00    +0.000 A 
ATOM     25  C   UNL     1       1.232   5.425   1.602  0.00  0.00    +0.000 A 
ATOM     26  C   UNL     1       0.126   4.751   1.120  0.00  0.00    +0.004 A 
ENDBRANCH  20  21
BRANCH  20  27
ATOM     27  C   UNL     1      -2.283   4.360  -0.570  0.00  0.00    -0.067 C 
BRANCH  27  28
ATOM     28  N   UNL     1      -2.102   5.529  -1.441  0.00  0.00    +0.380 N 
ATOM     29  C   UNL     1      -2.983   6.631  -1.033  0.00  0.00    -0.079 C 
ATOM     30  C   UNL     1      -2.666   7.875  -1.866  0.00  0.00    -0.019 C 
ATOM     31  C   UNL     1      -2.869   7.556  -3.349  0.00  0.00    -0.004 C 
ATOM     32  C   UNL     1      -1.976   6.375  -3.737  0.00  0.00    -0.019 C 
ATOM     33  C   UNL     1      -2.313   5.174  -2.850  0.00  0.00    -0.079 C 
ATOM     34  H   UNL     1      -1.063   5.874  -1.335  0.00  0.00    -0.082 HD
ENDBRANCH  27  28
ENDBRANCH  20  27
ENDBRANCH   1  20
TORSDOF 9
