REMARK  Name = ZINC36641245
REMARK  8 active torsions:
REMARK  status: ('A' for Active; 'I' for Inactive)
REMARK    1  A    between atoms: C_1  and  C_2
REMARK    2  A    between atoms: C_2  and  N_3
REMARK    3  A    between atoms: N_3  and  C_4
REMARK    4  A    between atoms: N_3  and  C_6
REMARK    5  A    between atoms: C_4  and  C_5
REMARK    6  A    between atoms: C_6  and  C_7
REMARK    7  A    between atoms: C_7  and  N_8
REMARK    8  A    between atoms: C_19  and  C_21
REMARK                            x       y       z     vdW  Elec       q    Type
REMARK                         _______ _______ _______ _____ _____    ______ ____
ROOT
ATOM      1  N   UNL     1      -1.358  -3.474  -1.623  0.00  0.00    -0.246 N 
ATOM      2  C   UNL     1      -1.622  -4.247  -0.506  0.00  0.00    +0.168 A 
ATOM      3  N   UNL     1      -1.699  -3.877   0.752  0.00  0.00    -0.224 NA
ATOM      4  C   UNL     1      -1.967  -4.748   1.749  0.00  0.00    +0.080 A 
ATOM      5  C   UNL     1      -2.076  -4.483   3.134  0.00  0.00    +0.030 A 
ATOM      6  C   UNL     1      -2.356  -5.490   4.020  0.00  0.00    +0.017 A 
ATOM      7  C   UNL     1      -2.540  -6.799   3.596  0.00  0.00    +0.019 A 
ATOM      8  C   UNL     1      -2.440  -7.094   2.248  0.00  0.00    +0.032 A 
ATOM      9  C   UNL     1      -2.161  -6.091   1.354  0.00  0.00    +0.042 A 
ATOM     10  S   UNL     1      -1.952  -6.001  -0.408  0.00  0.00    -0.052 S 
ATOM     11 BR   UNL     1      -2.922  -8.164   4.848  0.00  0.00    -0.050 Br
ATOM     12  C   UNL     1      -1.328  -4.043  -2.844  0.00  0.00    +0.288 C 
ATOM     13  O   UNL     1      -1.629  -5.215  -2.977  0.00  0.00    -0.266 OA
ENDROOT
BRANCH  12  14
ATOM     14  C   UNL     1      -0.932  -3.251  -4.011  0.00  0.00    +0.191 A 
ATOM     15  C   UNL     1      -0.960  -3.669  -5.312  0.00  0.00    +0.056 A 
ATOM     16  C   UNL     1      -0.500  -2.597  -6.091  0.00  0.00    +0.058 A 
ATOM     17  C   UNL     1      -0.213  -1.583  -5.242  0.00  0.00    +0.171 A 
ATOM     18  O   UNL     1      -0.480  -1.980  -3.991  0.00  0.00    -0.444 OA
ATOM     19 BR   UNL     1       0.449   0.117  -5.741  0.00  0.00    -0.008 Br
ENDBRANCH  12  14
BRANCH   1  20
ATOM     20  C   UNL     1      -1.112  -2.037  -1.478  0.00  0.00    +0.097 C 
BRANCH  20  21
ATOM     21  C   UNL     1       0.392  -1.786  -1.358  0.00  0.00    -0.059 C 
BRANCH  21  22
ATOM     22  N   UNL     1       0.639  -0.346  -1.213  0.00  0.00    +0.380 N 
ATOM     23  H   UNL     1       0.208   0.148  -1.980  0.00  0.00    -0.082 HD
BRANCH  22  25
ATOM     24  C   UNL     1       0.196   1.646   0.142  0.00  0.00    -0.017 C 
ATOM     25  C   UNL     1       0.064   0.124   0.055  0.00  0.00    -0.082 C 
ENDBRANCH  22  25
BRANCH  22  26
ATOM     26  C   UNL     1       2.086  -0.093  -1.218  0.00  0.00    -0.082 C 
ATOM     27  C   UNL     1       2.661  -0.450  -2.590  0.00  0.00    -0.017 C 
ENDBRANCH  22  26
ENDBRANCH  21  22
ENDBRANCH  20  21
ENDBRANCH   1  20
TORSDOF 6
