REMARK  Name = ZINC48895943
REMARK  5 active torsions:
REMARK  status: ('A' for Active; 'I' for Inactive)
REMARK    1  A    between atoms: C_1  and  C_2
REMARK    2  A    between atoms: C_2  and  C_4
REMARK    3  A    between atoms: C_2  and  N_16
REMARK    4  A    between atoms: N_6  and  C_7
REMARK    5  A    between atoms: C_10  and  N_14
REMARK                            x       y       z     vdW  Elec       q    Type
REMARK                         _______ _______ _______ _____ _____    ______ ____
ROOT
ATOM      1  C   UNL     1       1.144  -1.089  -0.710  0.00  0.00    +0.203 C 
ATOM      2  O   UNL     1       0.839  -2.217  -1.037  0.00  0.00    -0.277 OA
ATOM      3  N   UNL     1       2.141  -0.448  -1.352  0.00  0.00    -0.284 N 
ATOM      4  H   UNL     1       2.330   0.481  -1.149  0.00  0.00    +0.155 HD
ENDROOT
BRANCH   3   5
ATOM      5  C   UNL     1       2.906  -1.125  -2.313  0.00  0.00    +0.070 A 
ATOM      6  C   UNL     1       2.277  -1.784  -3.362  0.00  0.00    +0.065 A 
ATOM      7  C   UNL     1       3.030  -2.451  -4.309  0.00  0.00    +0.044 A 
ATOM      8  C   UNL     1       4.416  -2.463  -4.213  0.00  0.00    +0.027 A 
ATOM      9  C   UNL     1       5.044  -1.804  -3.164  0.00  0.00    +0.044 A 
ATOM     10  C   UNL     1       4.292  -1.132  -2.220  0.00  0.00    +0.065 A 
ATOM     11 CL   UNL     1       5.078  -0.303  -0.913  0.00  0.00    -0.082 Cl
ATOM     12 CL   UNL     1       0.545  -1.770  -3.483  0.00  0.00    -0.082 Cl
BRANCH   8  13
ATOM     13  N   UNL     1       5.178  -3.138  -5.172  0.00  0.00    -0.358 N 
ATOM     14  H   UNL     1       4.739  -3.598  -5.904  0.00  0.00    +0.142 HD
ATOM     15  H   UNL     1       6.146  -3.146  -5.104  0.00  0.00    +0.142 HD
ENDBRANCH   8  13
ENDBRANCH   3   5
BRANCH   1  17
ATOM     16  C   UNL     1      -0.305   0.837  -0.127  0.00  0.00    -0.004 C 
ATOM     17  C   UNL     1       0.408  -0.405   0.413  0.00  0.00    +0.016 C 
BRANCH  17  18
ATOM     18  N   UNL     1      -0.581  -1.328   0.985  0.00  0.00    +0.388 N 
ATOM     19  C   UNL     1      -1.538  -1.683  -0.069  0.00  0.00    -0.077 C 
ATOM     20  C   UNL     1      -1.802  -3.168   0.137  0.00  0.00    -0.008 C 
ATOM     21  C   UNL     1      -3.226  -3.323   0.722  0.00  0.00    +0.067 C 
ATOM     22  S   UNL     1      -3.553  -1.982   1.915  0.00  0.00    -0.163 S 
ATOM     23  C   UNL     1      -2.046  -1.737   2.862  0.00  0.00    +0.050 C 
ATOM     24  C   UNL     1      -1.121  -0.735   2.126  0.00  0.00    -0.067 C 
ATOM     25  H   UNL     1      -0.098  -2.169   1.265  0.00  0.00    -0.081 HD
ENDBRANCH  17  18
ENDBRANCH   1  17
TORSDOF 4
