REMARK  Name = ZINC40498612
REMARK  5 active torsions:
REMARK  status: ('A' for Active; 'I' for Inactive)
REMARK    1  A    between atoms: C_1  and  C_2
REMARK    2  A    between atoms: C_5  and  C_23
REMARK    3  A    between atoms: C_14  and  C_16
REMARK    4  A    between atoms: C_16  and  C_17
REMARK    5  A    between atoms: C_17  and  C_18
REMARK                            x       y       z     vdW  Elec       q    Type
REMARK                         _______ _______ _______ _____ _____    ______ ____
ROOT
ATOM      1  C   UNL     1      -0.018   1.717   0.251  0.00  0.00    +0.028 C 
ATOM      2  C   UNL     1      -0.075   0.212  -0.017  0.00  0.00    +0.079 C 
ATOM      3  C   UNL     1      -1.511  -0.295   0.167  0.00  0.00    +0.040 C 
ATOM      4  C   UNL     1      -1.987   0.070   1.573  0.00  0.00    +0.108 C 
ATOM      5  C   UNL     1      -0.988  -0.386   2.603  0.00  0.00    -0.014 A 
ATOM      6  C   UNL     1      -1.403  -0.547   3.915  0.00  0.00    +0.006 A 
ATOM      7  C   UNL     1      -0.509  -0.961   4.883  0.00  0.00    +0.000 A 
ATOM      8  C   UNL     1       0.808  -1.216   4.549  0.00  0.00    +0.002 A 
ATOM      9  C   UNL     1       1.230  -1.058   3.244  0.00  0.00    +0.024 A 
ATOM     10  C   UNL     1       0.332  -0.644   2.267  0.00  0.00    +0.040 A 
ATOM     11  N   UNL     1       0.779  -0.497   0.946  0.00  0.00    -0.268 N 
ATOM     12  C   UNL     1       1.971  -0.999   0.565  0.00  0.00    +0.220 C 
ATOM     13  O   UNL     1       2.618  -1.677   1.335  0.00  0.00    -0.275 OA
ENDROOT
BRANCH   4  14
ATOM     14  C   UNL     1      -3.313  -0.597   1.838  0.00  0.00    +0.218 C 
ATOM     15  O   UNL     1      -3.527  -1.711   1.410  0.00  0.00    -0.275 OA
ATOM     16  N   UNL     1      -4.259   0.045   2.551  0.00  0.00    -0.329 N 
ATOM     17  H   UNL     1      -4.063   0.904   2.955  0.00  0.00    +0.145 HD
ATOM     18  H   UNL     1      -5.137  -0.353   2.661  0.00  0.00    +0.145 HD
ENDBRANCH   4  14
BRANCH  12  19
ATOM     19  C   UNL     1       2.499  -0.719  -0.818  0.00  0.00    +0.101 C 
BRANCH  19  20
ATOM     20  C   UNL     1       3.827  -1.453  -1.016  0.00  0.00    +0.051 C 
BRANCH  20  21
ATOM     21  C   UNL     1       4.355  -1.173  -2.399  0.00  0.00    -0.010 A 
ATOM     22  C   UNL     1       5.177  -0.178  -2.813  0.00  0.00    +0.011 A 
ATOM     23  C   UNL     1       5.535  -0.116  -4.147  0.00  0.00    +0.008 A 
ATOM     24  C   UNL     1       5.054  -1.052  -5.001  0.00  0.00    +0.045 A 
ATOM     25  S   UNL     1       4.066  -2.069  -3.916  0.00  0.00    -0.102 S 
ENDBRANCH  20  21
ENDBRANCH  19  20
ENDBRANCH  12  19
TORSDOF 4
