REMARK  Name = ZINC44699470
REMARK  12 active torsions:
REMARK  status: ('A' for Active; 'I' for Inactive)
REMARK    1  A    between atoms: C_1  and  C_2
REMARK    2  A    between atoms: C_2  and  C_3
REMARK    3  A    between atoms: C_3  and  C_23
REMARK    4  A    between atoms: C_4  and  C_5
REMARK    5  A    between atoms: C_4  and  C_12
REMARK    6  A    between atoms: C_8  and  O_11
REMARK    7  A    between atoms: C_15  and  O_18
REMARK    8  A    between atoms: O_18  and  C_19
REMARK    9  A    between atoms: C_19  and  C_20
REMARK   10  A    between atoms: C_20  and  N_21
REMARK   11  A    between atoms: N_21  and  C_22
REMARK   12  A    between atoms: C_26  and  O_29
REMARK                            x       y       z     vdW  Elec       q    Type
REMARK                         _______ _______ _______ _____ _____    ______ ____
ROOT
ATOM      1  C   UNL     1       0.845  -0.398  -1.185  0.00  0.00    -0.032 C 
ATOM      2  C   UNL     1       2.109  -0.851  -0.997  0.00  0.00    -0.007 C 
ENDROOT
BRANCH   2   3
ATOM      3  C   UNL     1       2.705  -0.840   0.357  0.00  0.00    -0.017 A 
ATOM      4  C   UNL     1       2.927   0.372   1.014  0.00  0.00    +0.012 A 
ATOM      5  C   UNL     1       3.482   0.378   2.276  0.00  0.00    +0.046 A 
ATOM      6  C   UNL     1       3.822  -0.819   2.893  0.00  0.00    +0.117 A 
ATOM      7  C   UNL     1       3.604  -2.026   2.242  0.00  0.00    +0.046 A 
ATOM      8  C   UNL     1       3.043  -2.041   0.983  0.00  0.00    +0.012 A 
BRANCH   6   9
ATOM      9  O   UNL     1       4.370  -0.809   4.136  0.00  0.00    -0.507 OA
ATOM     10  H   UNL     1       3.721  -0.852   4.852  0.00  0.00    +0.292 HD
ENDBRANCH   6   9
ENDBRANCH   2   3
BRANCH   2  11
ATOM     11  C   UNL     1       2.892  -1.356  -2.146  0.00  0.00    -0.017 A 
ATOM     12  C   UNL     1       2.478  -2.503  -2.825  0.00  0.00    +0.012 A 
ATOM     13  C   UNL     1       3.210  -2.971  -3.895  0.00  0.00    +0.046 A 
ATOM     14  C   UNL     1       4.359  -2.302  -4.298  0.00  0.00    +0.120 A 
ATOM     15  C   UNL     1       4.774  -1.161  -3.625  0.00  0.00    +0.046 A 
ATOM     16  C   UNL     1       4.043  -0.683  -2.558  0.00  0.00    +0.012 A 
BRANCH  14  17
ATOM     17  O   UNL     1       5.078  -2.766  -5.353  0.00  0.00    -0.494 OA
BRANCH  17  18
ATOM     18  C   UNL     1       6.248  -2.030  -5.714  0.00  0.00    +0.210 C 
BRANCH  18  19
ATOM     19  C   UNL     1       6.921  -2.699  -6.915  0.00  0.00    -0.041 C 
BRANCH  19  20
ATOM     20  N   UNL     1       6.034  -2.616  -8.083  0.00  0.00    +0.379 N 
ATOM     21  C   UNL     1       6.680  -3.258  -9.235  0.00  0.00    -0.100 C 
ATOM     22  H   UNL     1       5.165  -3.086  -7.879  0.00  0.00    -0.086 HD
ATOM     23  H   UNL     1       5.850  -1.647  -8.297  0.00  0.00    -0.086 HD
ENDBRANCH  19  20
ENDBRANCH  18  19
ENDBRANCH  17  18
ENDBRANCH  14  17
ENDBRANCH   2  11
BRANCH   1  24
ATOM     24  C   UNL     1       0.301  -0.278  -2.545  0.00  0.00    -0.021 A 
ATOM     25  C   UNL     1       0.864   0.631  -3.449  0.00  0.00    +0.012 A 
ATOM     26  C   UNL     1       0.351   0.739  -4.723  0.00  0.00    +0.046 A 
ATOM     27  C   UNL     1      -0.724  -0.051  -5.111  0.00  0.00    +0.117 A 
ATOM     28  C   UNL     1      -1.286  -0.955  -4.218  0.00  0.00    +0.046 A 
ATOM     29  C   UNL     1      -0.777  -1.075  -2.944  0.00  0.00    +0.012 A 
BRANCH  27  30
ATOM     30  O   UNL     1      -1.226   0.060  -6.368  0.00  0.00    -0.507 OA
ATOM     31  H   UNL     1      -0.812  -0.532  -7.011  0.00  0.00    +0.292 HD
ENDBRANCH  27  30
ENDBRANCH   1  24
BRANCH   1  33
ATOM     32  C   UNL     1      -0.862  -1.213   0.419  0.00  0.00    +0.009 C 
ATOM     33  C   UNL     1      -0.003  -0.017   0.002  0.00  0.00    +0.033 C 
ENDBRANCH   1  33
TORSDOF 10
