REMARK  Name = ZINC34975201
REMARK  11 active torsions:
REMARK  status: ('A' for Active; 'I' for Inactive)
REMARK    1  A    between atoms: C_1  and  C_2
REMARK    2  A    between atoms: C_5  and  C_8
REMARK    3  A    between atoms: C_15  and  C_17
REMARK    4  A    between atoms: C_18  and  C_20
REMARK    5  A    between atoms: C_20  and  C_22
REMARK    6  A    between atoms: C_20  and  N_25
REMARK    7  A    between atoms: C_22  and  C_23
REMARK    8  A    between atoms: C_22  and  C_24
REMARK    9  A    between atoms: C_26  and  C_28
REMARK   10  A    between atoms: C_31  and  C_37
REMARK   11  A    between atoms: C_32  and  N_34
REMARK                            x       y       z     vdW  Elec       q    Type
REMARK                         _______ _______ _______ _____ _____    ______ ____
ROOT
ATOM      1  C   UNL     1      -0.164  -3.768   0.354  0.00  0.00    +0.247 C 
ATOM      2  O   UNL     1      -0.202  -4.226  -0.771  0.00  0.00    -0.270 OA
ATOM      3  N   UNL     1       0.057  -4.581   1.406  0.00  0.00    -0.292 N 
ATOM      4  C   UNL     1       0.005  -4.059   2.779  0.00  0.00    +0.127 C 
ATOM      5  C   UNL     1       1.329  -4.390   3.479  0.00  0.00    +0.127 C 
ATOM      6  N   UNL     1       1.625  -5.815   3.274  0.00  0.00    -0.297 N 
ATOM      7  C   UNL     1       1.677  -6.337   1.901  0.00  0.00    +0.130 C 
ATOM      8  C   UNL     1       0.348  -6.007   1.201  0.00  0.00    +0.091 C 
ATOM      9  C   UNL     1      -0.777  -6.852   1.802  0.00  0.00    +0.029 C 
ATOM     10  C   UNL     1       1.846  -6.628   4.326  0.00  0.00    +0.236 C 
ATOM     11  O   UNL     1       2.176  -7.780   4.143  0.00  0.00    -0.274 OA
ENDROOT
BRANCH   1  16
ATOM     12  C   UNL     1      -0.922   1.875   1.189  0.00  0.00    +0.044 C 
ATOM     13  C   UNL     1      -0.724   0.397   0.970  0.00  0.00    -0.050 A 
ATOM     14  C   UNL     1      -1.404  -0.513   1.759  0.00  0.00    +0.004 A 
ATOM     15  C   UNL     1      -1.226  -1.867   1.564  0.00  0.00    +0.013 A 
ATOM     16  C   UNL     1      -0.359  -2.318   0.568  0.00  0.00    +0.037 A 
ATOM     17  C   UNL     1       0.324  -1.394  -0.225  0.00  0.00    +0.013 A 
ATOM     18  C   UNL     1       0.133  -0.043  -0.023  0.00  0.00    +0.004 A 
ENDBRANCH   1  16
BRANCH  10  19
ATOM     19  C   UNL     1       1.682  -6.105   5.730  0.00  0.00    +0.162 C 
BRANCH  19  20
ATOM     20  N   UNL     1       1.194  -7.180   6.598  0.00  0.00    -0.300 N 
ATOM     21  C   UNL     1       0.507  -6.882   7.718  0.00  0.00    +0.245 C 
ATOM     22  O   UNL     1       0.292  -5.721   8.009  0.00  0.00    -0.270 OA
ATOM     23  H   UNL     1       1.366  -8.106   6.366  0.00  0.00    +0.150 HD
BRANCH  21  24
ATOM     24  C   UNL     1       0.015  -7.967   8.594  0.00  0.00    +0.039 A 
ATOM     25  C   UNL     1       0.266  -9.300   8.266  0.00  0.00    +0.013 A 
ATOM     26  C   UNL     1      -0.196 -10.308   9.088  0.00  0.00    +0.006 A 
ATOM     27  C   UNL     1      -0.906  -9.999  10.234  0.00  0.00    -0.020 A 
ATOM     28  C   UNL     1      -1.158  -8.679  10.565  0.00  0.00    +0.130 A 
ATOM     29  C   UNL     1      -0.696  -7.662   9.755  0.00  0.00    +0.046 A 
ATOM     30  C   UNL     1      -1.407 -11.105  11.127  0.00  0.00    +0.046 C 
BRANCH  28  31
ATOM     31  N   UNL     1      -1.918  -8.358  11.793  0.00  0.00    +0.057 N 
ATOM     32  O   UNL     1      -2.694  -7.431  11.799  0.00  0.00    -0.126 OA
ATOM     33  O   UNL     1      -1.764  -9.023  12.791  0.00  0.00    -0.126 OA
ENDBRANCH  28  31
ENDBRANCH  21  24
ENDBRANCH  19  20
BRANCH  19  34
ATOM     34  C   UNL     1       3.031  -5.603   6.248  0.00  0.00    +0.012 C 
ATOM     35  C   UNL     1       4.051  -6.742   6.199  0.00  0.00    +0.009 C 
ATOM     36  C   UNL     1       3.516  -4.446   5.372  0.00  0.00    +0.009 C 
ENDBRANCH  19  34
ENDBRANCH  10  19
TORSDOF 6
