REMARK  Name = ZINC67095280
REMARK  9 active torsions:
REMARK  status: ('A' for Active; 'I' for Inactive)
REMARK    1  A    between atoms: C_1  and  C_2
REMARK    2  A    between atoms: C_2  and  C_3
REMARK    3  A    between atoms: C_2  and  N_4
REMARK    4  A    between atoms: C_7  and  N_10
REMARK    5  A    between atoms: N_10  and  C_11
REMARK    6  A    between atoms: C_14  and  S_21
REMARK    7  A    between atoms: C_16  and  S_17
REMARK    8  A    between atoms: S_17  and  C_20
REMARK    9  A    between atoms: S_21  and  N_24
REMARK                            x       y       z     vdW  Elec       q    Type
REMARK                         _______ _______ _______ _____ _____    ______ ____
ROOT
ATOM      1  C   UNL     1      -5.354  -3.718  -1.445  0.00  0.00    +0.053 A 
ATOM      2  C   UNL     1      -4.405  -4.555  -2.019  0.00  0.00    +0.027 A 
ATOM      3  C   UNL     1      -4.776  -5.804  -2.478  0.00  0.00    +0.030 A 
ATOM      4  C   UNL     1      -6.090  -6.221  -2.367  0.00  0.00    +0.107 A 
ATOM      5  C   UNL     1      -7.037  -5.390  -1.797  0.00  0.00    +0.057 A 
ATOM      6  C   UNL     1      -6.672  -4.143  -1.330  0.00  0.00    +0.110 A 
ENDROOT
BRANCH   6   7
ATOM      7  S   UNL     1      -7.877  -3.087  -0.597  0.00  0.00    -0.004 S 
ATOM      8  O   UNL     1      -7.739  -1.849  -1.279  0.00  0.00    -0.170 OA
ATOM      9  O   UNL     1      -9.092  -3.821  -0.667  0.00  0.00    -0.170 OA
ATOM     10  C   UNL     1      -7.353  -2.911   1.131  0.00  0.00    +0.200 C 
ENDBRANCH   6   7
BRANCH   4  11
ATOM     11  S   UNL     1      -6.559  -7.815  -2.954  0.00  0.00    +0.056 S 
ATOM     12  O   UNL     1      -7.951  -7.753  -3.231  0.00  0.00    -0.153 OA
ATOM     13  O   UNL     1      -5.602  -8.182  -3.939  0.00  0.00    -0.153 OA
BRANCH  11  14
ATOM     14  N   UNL     1      -6.373  -8.875  -1.695  0.00  0.00    -0.204 NA
ATOM     15  H   UNL     1      -6.056  -8.556  -0.836  0.00  0.00    +0.144 HD
ATOM     16  H   UNL     1      -6.582  -9.814  -1.817  0.00  0.00    +0.144 HD
ENDBRANCH  11  14
ENDBRANCH   4  11
BRANCH   1  17
ATOM     17  N   UNL     1      -4.983  -2.455  -0.980  0.00  0.00    -0.340 N 
ATOM     18  H   UNL     1      -5.645  -1.873  -0.576  0.00  0.00    +0.146 HD
BRANCH  17  22
ATOM     19  N   UNL     1      -1.376  -0.512   0.012  0.00  0.00    +0.381 N 
ATOM     20  C   UNL     1      -2.087  -0.018  -1.173  0.00  0.00    -0.077 C 
ATOM     21  C   UNL     1      -3.546  -0.478  -1.125  0.00  0.00    +0.003 C 
ATOM     22  C   UNL     1      -3.593  -2.009  -1.101  0.00  0.00    +0.067 C 
ATOM     23  C   UNL     1      -2.785  -2.515   0.097  0.00  0.00    +0.003 C 
ATOM     24  C   UNL     1      -1.355  -1.980   0.004  0.00  0.00    -0.077 C 
ATOM     25  H   UNL     1      -1.847  -0.189   0.844  0.00  0.00    -0.081 HD
BRANCH  19  27
ATOM     26  C   UNL     1      -0.019   1.526   0.010  0.00  0.00    -0.014 C 
ATOM     27  C   UNL     1       0.002  -0.004   0.002  0.00  0.00    -0.075 C 
ATOM     28  C   UNL     1       0.742  -0.511   1.242  0.00  0.00    -0.014 C 
ENDBRANCH  19  27
ENDBRANCH  17  22
ENDBRANCH   1  17
TORSDOF 6
