REMARK  Name = ZINC42531360
REMARK  7 active torsions:
REMARK  status: ('A' for Active; 'I' for Inactive)
REMARK    1  A    between atoms: C_2  and  S_9
REMARK    2  A    between atoms: S_9  and  N_12
REMARK    3  A    between atoms: N_12  and  C_13
REMARK    4  A    between atoms: N_12  and  C_18
REMARK    5  A    between atoms: C_13  and  C_14
REMARK    6  A    between atoms: C_14  and  C_15
REMARK    7  A    between atoms: C_15  and  N_17
REMARK                            x       y       z     vdW  Elec       q    Type
REMARK                         _______ _______ _______ _____ _____    ______ ____
ROOT
ATOM      1  S   UNL     1       1.146   3.849   0.011  0.00  0.00    +0.061 S 
ATOM      2  O   UNL     1       2.380   4.275  -0.549  0.00  0.00    -0.153 OA
ATOM      3  O   UNL     1      -0.110   4.240  -0.526  0.00  0.00    -0.153 OA
ENDROOT
BRANCH   1   5
ATOM      4  C   UNL     1      -0.017   1.379   0.010  0.00  0.00    +0.048 A 
ATOM      5  C   UNL     1       1.171   2.087   0.002  0.00  0.00    +0.108 A 
ATOM      6  C   UNL     1       2.377   1.413  -0.013  0.00  0.00    +0.048 A 
ATOM      7  C   UNL     1       2.397   0.030  -0.021  0.00  0.00    +0.044 A 
ATOM      8  C   UNL     1       1.209  -0.679  -0.013  0.00  0.00    +0.040 A 
ATOM      9  C   UNL     1       0.002  -0.004   0.002  0.00  0.00    +0.044 A 
ATOM     10 CL   UNL     1      -1.489  -0.893   0.012  0.00  0.00    -0.083 Cl
ATOM     11 CL   UNL     1       3.913  -0.817  -0.040  0.00  0.00    -0.083 Cl
ENDBRANCH   1   5
BRANCH   1  12
ATOM     12  N   UNL     1       1.154   4.330   1.596  0.00  0.00    -0.173 NA
BRANCH  12  13
ATOM     13  C   UNL     1      -0.111   4.526   2.308  0.00  0.00    +0.080 C 
ATOM     14  C   UNL     1      -0.048   5.162   3.698  0.00  0.00    +0.022 C 
ATOM     15  C   UNL     1      -0.360   3.671   3.553  0.00  0.00    +0.022 C 
ENDBRANCH  12  13
BRANCH  12  16
ATOM     16  C   UNL     1       2.426   4.561   2.285  0.00  0.00    +0.116 C 
BRANCH  16  17
ATOM     17  C   UNL     1       2.783   6.047   2.212  0.00  0.00    +0.075 C 
BRANCH  17  18
ATOM     18  C   UNL     1       4.092   6.285   2.920  0.00  0.00    +0.047 C 
ATOM     19  S   UNL     1       4.868   5.061   3.597  0.00  0.00    -0.041 S 
BRANCH  18  20
ATOM     20  N   UNL     1       4.608   7.528   2.984  0.00  0.00    -0.355 N 
ATOM     21  H   UNL     1       4.137   8.270   2.574  0.00  0.00    +0.143 HD
ATOM     22  H   UNL     1       5.450   7.681   3.440  0.00  0.00    +0.143 HD
ENDBRANCH  18  20
ENDBRANCH  17  18
ENDBRANCH  16  17
ENDBRANCH  12  16
ENDBRANCH   1  12
TORSDOF 7
