REMARK  Name = ZINC12417621
REMARK  5 active torsions:
REMARK  status: ('A' for Active; 'I' for Inactive)
REMARK    1  A    between atoms: C_1  and  C_2
REMARK    2  A    between atoms: C_7  and  C_34
REMARK    3  A    between atoms: C_12  and  O_33
REMARK    4  A    between atoms: C_13  and  O_32
REMARK    5  A    between atoms: C_20  and  C_26
REMARK                            x       y       z     vdW  Elec       q    Type
REMARK                         _______ _______ _______ _____ _____    ______ ____
ROOT
ATOM      1  C   UNL     1       5.085   1.989   6.417  0.00  0.00    +0.007 C 
ATOM      2  C   UNL     1       4.314   1.920   5.097  0.00  0.00    -0.013 C 
ATOM      3  C   UNL     1       3.374   3.144   4.990  0.00  0.00    +0.013 C 
ATOM      4  C   UNL     1       2.624   3.051   3.656  0.00  0.00    +0.064 C 
ATOM      5  C   UNL     1       3.650   2.987   2.520  0.00  0.00    +0.061 C 
ATOM      6  C   UNL     1       2.973   2.572   1.239  0.00  0.00    +0.006 A 
ATOM      7  C   UNL     1       3.619   2.813   0.036  0.00  0.00    +0.011 A 
ATOM      8  C   UNL     1       3.035   2.442  -1.159  0.00  0.00    +0.050 A 
ATOM      9  C   UNL     1       1.794   1.823  -1.161  0.00  0.00    +0.162 A 
ATOM     10  C   UNL     1       1.143   1.579   0.041  0.00  0.00    +0.201 A 
ATOM     11  C   UNL     1       1.732   1.962   1.245  0.00  0.00    +0.172 A 
ATOM     12  O   UNL     1       1.063   1.714   2.401  0.00  0.00    -0.464 OA
ATOM     13  C   UNL     1       1.791   1.766   3.627  0.00  0.00    +0.186 C 
ATOM     14  C   UNL     1       2.718   0.550   3.736  0.00  0.00    +0.077 C 
ATOM     15  C   UNL     1       3.499   0.628   5.051  0.00  0.00    +0.014 C 
ATOM     16  C   UNL     1       1.842  -0.711   3.760  0.00  0.00    +0.111 C 
ATOM     17  N   UNL     1       0.886  -0.600   4.864  0.00  0.00    -0.319 N 
ATOM     18  C   UNL     1       0.452   0.593   5.298  0.00  0.00    +0.134 C 
ATOM     19  S   UNL     1      -0.659   0.640   6.599  0.00  0.00    -0.019 S 
ATOM     20  N   UNL     1       0.856   1.752   4.753  0.00  0.00    -0.289 N 
ATOM     21  H   UNL     1       0.559  -1.407   5.291  0.00  0.00    +0.148 HD
ATOM     22  H   UNL     1       0.524   2.591   5.109  0.00  0.00    +0.151 HD
ENDROOT
BRANCH  16  23
ATOM     23  C   UNL     1       1.096  -0.834   2.457  0.00  0.00    -0.027 A 
ATOM     24  C   UNL     1      -0.278  -0.689   2.430  0.00  0.00    +0.005 A 
ATOM     25  C   UNL     1      -0.962  -0.798   1.234  0.00  0.00    +0.000 A 
ATOM     26  C   UNL     1      -0.272  -1.061   0.065  0.00  0.00    +0.000 A 
ATOM     27  C   UNL     1       1.102  -1.212   0.092  0.00  0.00    +0.000 A 
ATOM     28  C   UNL     1       1.786  -1.098   1.288  0.00  0.00    +0.005 A 
ENDBRANCH  16  23
BRANCH   5  29
ATOM     29  C   UNL     1       4.278   4.345   2.336  0.00  0.00    -0.039 A 
ATOM     30  C   UNL     1       3.492   5.431   2.000  0.00  0.00    +0.004 A 
ATOM     31  C   UNL     1       4.067   6.677   1.835  0.00  0.00    +0.000 A 
ATOM     32  C   UNL     1       5.431   6.835   1.999  0.00  0.00    +0.000 A 
ATOM     33  C   UNL     1       6.218   5.748   2.331  0.00  0.00    +0.000 A 
ATOM     34  C   UNL     1       5.642   4.503   2.499  0.00  0.00    +0.004 A 
ENDBRANCH   5  29
BRANCH  10  35
ATOM     35  O   UNL     1      -0.074   0.971   0.043  0.00  0.00    -0.501 OA
ATOM     36  H   UNL     1      -0.817   1.576  -0.089  0.00  0.00    +0.292 HD
ENDBRANCH  10  35
BRANCH   9  37
ATOM     37  O   UNL     1       1.218   1.454  -2.336  0.00  0.00    -0.503 OA
ATOM     38  H   UNL     1       0.657   2.136  -2.730  0.00  0.00    +0.292 HD
ENDBRANCH   9  37
TORSDOF 4
