REMARK  Name = ZINC45819338
REMARK  11 active torsions:
REMARK  status: ('A' for Active; 'I' for Inactive)
REMARK    1  A    between atoms: C_1  and  O_2
REMARK    2  A    between atoms: O_2  and  C_3
REMARK    3  A    between atoms: C_7  and  C_9
REMARK    4  A    between atoms: C_9  and  C_11
REMARK    5  A    between atoms: C_9  and  N_27
REMARK    6  A    between atoms: C_11  and  N_12
REMARK    7  A    between atoms: C_13  and  C_15
REMARK    8  A    between atoms: C_15  and  C_16
REMARK    9  A    between atoms: C_16  and  C_17
REMARK   10  A    between atoms: C_20  and  S_23
REMARK   11  A    between atoms: S_23  and  N_26
REMARK                            x       y       z     vdW  Elec       q    Type
REMARK                         _______ _______ _______ _____ _____    ______ ____
ROOT
ATOM      1  N   UNL     1      -1.080  -4.212  -2.670  0.00  0.00    -0.317 N 
ATOM      2  C   UNL     1      -2.203  -4.524  -3.347  0.00  0.00    +0.213 C 
ATOM      3  O   UNL     1      -2.128  -4.974  -4.471  0.00  0.00    -0.276 OA
ATOM      4  H   UNL     1      -1.139  -3.852  -1.771  0.00  0.00    +0.149 HD
ENDROOT
BRANCH   1   5
ATOM      5  C   UNL     1       0.231  -4.416  -3.292  0.00  0.00    +0.093 C 
BRANCH   5   6
ATOM      6  C   UNL     1       1.323  -3.865  -2.373  0.00  0.00    -0.020 C 
BRANCH   6  11
ATOM      7  C   UNL     1       0.425  -0.445  -1.041  0.00  0.00    +0.120 A 
ATOM      8  C   UNL     1       0.906   0.377  -2.050  0.00  0.00    +0.045 A 
ATOM      9  C   UNL     1       1.519  -0.176  -3.157  0.00  0.00    +0.004 A 
ATOM     10  C   UNL     1       1.653  -1.549  -3.261  0.00  0.00    +0.002 A 
ATOM     11  C   UNL     1       1.175  -2.370  -2.257  0.00  0.00    -0.056 A 
ATOM     12  C   UNL     1       0.566  -1.821  -1.145  0.00  0.00    +0.047 A 
BRANCH   7  14
ATOM     13  C   UNL     1      -0.288   1.522   0.088  0.00  0.00    +0.277 C 
ATOM     14  O   UNL     1      -0.178   0.098   0.049  0.00  0.00    -0.495 OA
ENDBRANCH   7  14
ENDBRANCH   6  11
BRANCH   6  15
ATOM     15  N   UNL     1       2.642  -4.185  -2.934  0.00  0.00    +0.385 N 
ATOM     16  C   UNL     1       3.715  -3.668  -2.046  0.00  0.00    -0.078 C 
ATOM     17  C   UNL     1       4.942  -4.532  -2.433  0.00  0.00    -0.020 C 
ATOM     18  C   UNL     1       4.319  -5.924  -2.687  0.00  0.00    -0.020 C 
ATOM     19  C   UNL     1       2.833  -5.650  -2.986  0.00  0.00    -0.078 C 
ATOM     20  H   UNL     1       2.733  -3.788  -3.857  0.00  0.00    -0.081 HD
ENDBRANCH   6  15
ENDBRANCH   5   6
ENDBRANCH   1   5
BRANCH   2  21
ATOM     21  C   UNL     1      -3.551  -4.314  -2.707  0.00  0.00    +0.100 C 
BRANCH  21  22
ATOM     22  C   UNL     1      -4.650  -4.744  -3.681  0.00  0.00    +0.044 C 
BRANCH  22  23
ATOM     23  C   UNL     1      -5.998  -4.534  -3.041  0.00  0.00    -0.047 A 
ATOM     24  C   UNL     1      -6.575  -5.546  -2.296  0.00  0.00    +0.005 A 
ATOM     25  C   UNL     1      -7.812  -5.353  -1.709  0.00  0.00    +0.029 A 
ATOM     26  C   UNL     1      -8.472  -4.149  -1.867  0.00  0.00    +0.105 A 
ATOM     27  C   UNL     1      -7.894  -3.137  -2.611  0.00  0.00    +0.029 A 
ATOM     28  C   UNL     1      -6.656  -3.328  -3.194  0.00  0.00    +0.005 A 
BRANCH  26  29
ATOM     29  S   UNL     1     -10.048  -3.904  -1.120  0.00  0.00    +0.056 S 
ATOM     30  O   UNL     1     -10.700  -2.888  -1.871  0.00  0.00    -0.153 OA
ATOM     31  O   UNL     1     -10.614  -5.194  -0.933  0.00  0.00    -0.153 OA
BRANCH  29  32
ATOM     32  N   UNL     1      -9.783  -3.279   0.391  0.00  0.00    -0.204 NA
ATOM     33  H   UNL     1      -8.876  -3.121   0.697  0.00  0.00    +0.144 HD
ATOM     34  H   UNL     1     -10.534  -3.072   0.969  0.00  0.00    +0.144 HD
ENDBRANCH  29  32
ENDBRANCH  26  29
ENDBRANCH  22  23
ENDBRANCH  21  22
ENDBRANCH   2  21
TORSDOF 10
