REMARK  Name = ZINC12875311
REMARK  11 active torsions:
REMARK  status: ('A' for Active; 'I' for Inactive)
REMARK    1  A    between atoms: C_1  and  C_2
REMARK    2  A    between atoms: C_2  and  O_3
REMARK    3  A    between atoms: O_3  and  C_4
REMARK    4  A    between atoms: C_7  and  N_10
REMARK    5  A    between atoms: C_11  and  C_13
REMARK    6  A    between atoms: C_13  and  C_15
REMARK    7  A    between atoms: C_13  and  N_18
REMARK    8  A    between atoms: C_15  and  C_16
REMARK    9  A    between atoms: C_15  and  C_17
REMARK   10  A    between atoms: C_19  and  C_21
REMARK   11  A    between atoms: C_27  and  C_29
REMARK                            x       y       z     vdW  Elec       q    Type
REMARK                         _______ _______ _______ _____ _____    ______ ____
ROOT
ATOM      1  N   UNL     1       1.174   1.576   0.092  0.00  0.00    -0.304 N 
ATOM      2  C   UNL     1       2.055   0.810   0.767  0.00  0.00    +0.217 C 
ATOM      3  O   UNL     1       1.657  -0.009   1.568  0.00  0.00    -0.275 OA
ATOM      4  H   UNL     1       1.492   2.232  -0.548  0.00  0.00    +0.149 HD
ENDROOT
BRANCH   2   5
ATOM      5  C   UNL     1       3.533   0.972   0.525  0.00  0.00    +0.078 C 
ATOM      6  C   UNL     1       3.844   0.686  -0.946  0.00  0.00    +0.032 C 
ATOM      7  C   UNL     1       5.342   0.886  -1.196  0.00  0.00    +0.108 C 
ATOM      8  N   UNL     1       6.094   0.052  -0.247  0.00  0.00    -0.303 N 
ATOM      9  C   UNL     1       5.809   0.182   1.188  0.00  0.00    +0.108 C 
ATOM     10  C   UNL     1       4.305  -0.009   1.411  0.00  0.00    +0.032 C 
ATOM     11  C   UNL     1       7.029  -0.814  -0.686  0.00  0.00    +0.202 C 
ATOM     12  O   UNL     1       7.643  -1.496   0.107  0.00  0.00    -0.277 OA
BRANCH  11  13
ATOM     13  C   UNL     1       7.310  -0.936  -2.161  0.00  0.00    +0.016 C 
ATOM     14  C   UNL     1       6.244  -1.821  -2.842  0.00  0.00    -0.009 C 
ATOM     15  C   UNL     1       7.015  -2.632  -3.904  0.00  0.00    -0.020 C 
ATOM     16  C   UNL     1       8.482  -2.168  -3.776  0.00  0.00    -0.082 C 
ATOM     17  N   UNL     1       8.564  -1.649  -2.410  0.00  0.00    +0.387 N 
ATOM     18  H   UNL     1       8.671  -2.421  -1.742  0.00  0.00    -0.085 HD
ATOM     19  H   UNL     1       9.361  -1.007  -2.322  0.00  0.00    -0.085 HD
ENDBRANCH  11  13
ENDBRANCH   2   5
BRANCH   1  20
ATOM     20  C   UNL     1      -0.264   1.419   0.327  0.00  0.00    +0.162 C 
BRANCH  20  22
ATOM     21  N   UNL     1      -2.196   1.293  -1.212  0.00  0.00    -0.284 N 
ATOM     22  C   UNL     1      -1.024   1.877  -0.890  0.00  0.00    +0.238 C 
ATOM     23  O   UNL     1      -0.583   2.771  -1.581  0.00  0.00    -0.273 OA
ATOM     24  H   UNL     1      -2.492   0.503  -0.733  0.00  0.00    +0.155 HD
BRANCH  21  28
ATOM     25  C   UNL     1      -4.548   2.883  -4.265  0.00  0.00    +0.121 A 
ATOM     26  C   UNL     1      -5.137   2.143  -3.250  0.00  0.00    +0.047 A 
ATOM     27  C   UNL     1      -4.359   1.617  -2.239  0.00  0.00    +0.027 A 
ATOM     28  C   UNL     1      -2.986   1.827  -2.238  0.00  0.00    +0.034 A 
ATOM     29  C   UNL     1      -2.398   2.572  -3.252  0.00  0.00    +0.027 A 
ATOM     30  C   UNL     1      -3.177   3.094  -4.265  0.00  0.00    +0.047 A 
BRANCH  25  31
ATOM     31  O   UNL     1      -5.316   3.402  -5.261  0.00  0.00    -0.492 OA
BRANCH  31  33
ATOM     32  C   UNL     1      -5.663   4.653  -7.299  0.00  0.00    +0.048 C 
ATOM     33  C   UNL     1      -4.643   4.154  -6.273  0.00  0.00    +0.225 C 
ENDBRANCH  31  33
ENDBRANCH  25  31
ENDBRANCH  21  28
ENDBRANCH  20  22
BRANCH  20  34
ATOM     34  C   UNL     1      -0.678   2.262   1.535  0.00  0.00    +0.012 C 
ATOM     35  C   UNL     1      -0.053   1.678   2.804  0.00  0.00    +0.009 C 
ATOM     36  C   UNL     1      -0.193   3.700   1.343  0.00  0.00    +0.009 C 
ENDBRANCH  20  34
ENDBRANCH   1  20
TORSDOF 8
