REMARK  Name = ZINC65370236
REMARK  6 active torsions:
REMARK  status: ('A' for Active; 'I' for Inactive)
REMARK    1  A    between atoms: C_4  and  C_7
REMARK    2  A    between atoms: C_9  and  C_23
REMARK    3  A    between atoms: N_11  and  C_14
REMARK    4  A    between atoms: C_14  and  C_15
REMARK    5  A    between atoms: C_15  and  S_16
REMARK    6  A    between atoms: S_16  and  C_17
REMARK                            x       y       z     vdW  Elec       q    Type
REMARK                         _______ _______ _______ _____ _____    ______ ____
ROOT
ATOM      1  C   UNL     1       3.710  -0.682   0.155  0.00  0.00    +0.110 C 
ATOM      2  C   UNL     1       3.960  -1.312   1.542  0.00  0.00    +0.143 C 
ATOM      3  N   UNL     1       4.596  -2.620   1.279  0.00  0.00    -0.278 NA
ATOM      4  C   UNL     1       4.737  -2.743  -0.189  0.00  0.00    +0.169 C 
ATOM      5  N   UNL     1       3.692  -1.854  -0.763  0.00  0.00    -0.295 NA
ATOM      6  H   UNL     1       2.790  -2.306  -0.754  0.00  0.00    +0.124 HD
ENDROOT
BRANCH   2   7
ATOM      7  C   UNL     1       4.881  -0.437   2.353  0.00  0.00    +0.104 A 
ATOM      8  N   UNL     1       6.070  -0.004   1.965  0.00  0.00    -0.349 N 
ATOM      9  C   UNL     1       6.588   0.750   2.957  0.00  0.00    +0.101 A 
ATOM     10  C   UNL     1       5.688   0.768   3.961  0.00  0.00    +0.101 A 
ATOM     11  N   UNL     1       4.631   0.029   3.566  0.00  0.00    -0.349 N 
ATOM     12  H   UNL     1       3.827  -0.135   4.083  0.00  0.00    +0.166 HD
ATOM     13  H   UNL     1       6.495  -0.195   1.115  0.00  0.00    +0.166 HD
ENDBRANCH   2   7
BRANCH   1  17
ATOM     14  C   UNL     1      -0.048   1.347   0.076  0.00  0.00    +0.000 A 
ATOM     15  C   UNL     1       1.124   2.068   0.201  0.00  0.00    +0.000 A 
ATOM     16  C   UNL     1       2.340   1.412   0.227  0.00  0.00    +0.005 A 
ATOM     17  C   UNL     1       2.384   0.034   0.128  0.00  0.00    -0.029 A 
ATOM     18  C   UNL     1       1.211  -0.688   0.004  0.00  0.00    +0.005 A 
ATOM     19  C   UNL     1      -0.005  -0.031  -0.023  0.00  0.00    +0.000 A 
ENDBRANCH   1  17
BRANCH   3  20
ATOM     20  C   UNL     1       5.904  -2.712   1.942  0.00  0.00    +0.097 C 
BRANCH  20  21
ATOM     21  C   UNL     1       6.374  -4.168   1.942  0.00  0.00    +0.091 C 
BRANCH  21  22
ATOM     22  S   UNL     1       7.988  -4.282   2.761  0.00  0.00    -0.105 S 
BRANCH  22  23
ATOM     23  C   UNL     1       8.387  -5.997   2.681  0.00  0.00    +0.097 A 
ATOM     24  C   UNL     1       9.581  -6.454   3.231  0.00  0.00    +0.035 A 
ATOM     25  C   UNL     1       9.881  -7.802   3.160  0.00  0.00    +0.004 A 
ATOM     26  C   UNL     1       8.974  -8.652   2.540  0.00  0.00    +0.020 A 
ATOM     27  C   UNL     1       7.809  -8.130   2.016  0.00  0.00    +0.112 A 
ATOM     28  N   UNL     1       7.545  -6.840   2.102  0.00  0.00    -0.249 NA
ENDBRANCH  22  23
ENDBRANCH  21  22
ENDBRANCH  20  21
ENDBRANCH   3  20
TORSDOF 6
