REMARK  Name = ZINC12602434
REMARK  8 active torsions:
REMARK  status: ('A' for Active; 'I' for Inactive)
REMARK    1  A    between atoms: N_9  and  C_11
REMARK    2  A    between atoms: C_11  and  C_12
REMARK    3  A    between atoms: C_21  and  C_23
REMARK    4  A    between atoms: C_23  and  N_24
REMARK    5  A    between atoms: N_24  and  C_25
REMARK    6  A    between atoms: C_25  and  N_27
REMARK    7  A    between atoms: N_27  and  C_28
REMARK    8  A    between atoms: C_28  and  C_29
REMARK                            x       y       z     vdW  Elec       q    Type
REMARK                         _______ _______ _______ _____ _____    ______ ____
ROOT
ATOM      1  C   UNL     1      -0.013   1.086   0.008  0.00  0.00    -0.011 C 
ATOM      2  C   UNL     1      -0.735   1.582   1.264  0.00  0.00    -0.073 C 
ATOM      3  N   UNL     1      -1.905   2.381   0.866  0.00  0.00    +0.383 N 
ATOM      4  C   UNL     1      -2.865   1.571   0.104  0.00  0.00    -0.078 C 
ATOM      5  C   UNL     1      -2.201   1.073  -1.183  0.00  0.00    -0.015 C 
ATOM      6  C   UNL     1      -0.760   1.597  -1.230  0.00  0.00    -0.012 C 
ATOM      7  C   UNL     1      -0.794   3.129  -1.184  0.00  0.00    -0.010 C 
ATOM      8  C   UNL     1      -1.498   3.569   0.103  0.00  0.00    -0.051 C 
ATOM      9  H   UNL     1      -2.407   2.724   1.783  0.00  0.00    -0.081 HD
ENDROOT
BRANCH   1  10
ATOM     10  C   UNL     1       1.422   1.618  -0.003  0.00  0.00    +0.086 C 
BRANCH  10  19
ATOM     11  C   UNL     1       4.310  -2.189   4.296  0.00  0.00    +0.000 A 
ATOM     12  C   UNL     1       3.226  -2.861   3.763  0.00  0.00    +0.000 A 
ATOM     13  C   UNL     1       2.474  -2.272   2.767  0.00  0.00    +0.005 A 
ATOM     14  C   UNL     1       2.799  -1.008   2.296  0.00  0.00    -0.030 A 
ATOM     15  C   UNL     1       3.878  -0.337   2.830  0.00  0.00    -0.042 A 
ATOM     16  C   UNL     1       4.634  -0.931   3.830  0.00  0.00    +0.004 A 
ATOM     17  C   UNL     1       4.267   1.040   2.356  0.00  0.00    +0.051 C 
ATOM     18  C   UNL     1       3.605   1.335   1.010  0.00  0.00    +0.089 C 
ATOM     19  N   UNL     1       2.168   1.038   1.121  0.00  0.00    -0.298 NA
ATOM     20  C   UNL     1       1.954  -0.411   1.202  0.00  0.00    +0.119 C 
ENDBRANCH  10  19
ENDBRANCH   1  10
BRANCH   8  21
ATOM     21  C   UNL     1      -0.539   4.413   0.946  0.00  0.00    +0.088 C 
BRANCH  21  22
ATOM     22  N   UNL     1      -1.170   4.734   2.229  0.00  0.00    -0.328 N 
ATOM     23  H   UNL     1      -2.185   4.370   2.449  0.00  0.00    +0.148 HD
BRANCH  22  24
ATOM     24  C   UNL     1      -0.507   5.474   3.140  0.00  0.00    +0.131 C 
ATOM     25  S   UNL     1       1.072   6.039   2.798  0.00  0.00    -0.019 S 
BRANCH  24  26
ATOM     26  N   UNL     1      -1.088   5.769   4.320  0.00  0.00    -0.319 N 
ATOM     27  H   UNL     1      -2.103   5.405   4.540  0.00  0.00    +0.148 HD
BRANCH  26  28
ATOM     28  C   UNL     1      -0.367   6.573   5.310  0.00  0.00    +0.177 C 
BRANCH  28  29
ATOM     29  C   UNL     1      -1.230   6.757   6.531  0.00  0.00    +0.122 A 
ATOM     30  C   UNL     1      -1.265   5.941   7.600  0.00  0.00    +0.046 A 
ATOM     31  C   UNL     1      -2.204   6.490   8.504  0.00  0.00    +0.041 A 
ATOM     32  C   UNL     1      -2.693   7.604   7.930  0.00  0.00    +0.195 A 
ATOM     33  O   UNL     1      -2.099   7.761   6.735  0.00  0.00    -0.466 OA
ENDBRANCH  28  29
ENDBRANCH  26  28
ENDBRANCH  24  26
ENDBRANCH  22  24
ENDBRANCH  21  22
ENDBRANCH   8  21
TORSDOF 8
