REMARK  Name = ZINC38547384
REMARK  5 active torsions:
REMARK  status: ('A' for Active; 'I' for Inactive)
REMARK    1  A    between atoms: C_5  and  C_7
REMARK    2  A    between atoms: C_7  and  C_9
REMARK    3  A    between atoms: C_7  and  N_26
REMARK    4  A    between atoms: C_13  and  N_14
REMARK    5  A    between atoms: C_15  and  C_17
REMARK                            x       y       z     vdW  Elec       q    Type
REMARK                         _______ _______ _______ _____ _____    ______ ____
ROOT
ATOM      1  C   UNL     1       1.442  -2.740  -1.560  0.00  0.00    +0.009 A 
ATOM      2  C   UNL     1       2.707  -3.225  -1.893  0.00  0.00    -0.030 A 
ATOM      3  C   UNL     1       2.866  -3.693  -3.160  0.00  0.00    -0.005 A 
ATOM      4  S   UNL     1       1.271  -3.467  -3.901  0.00  0.00    -0.078 S 
ATOM      5  C   UNL     1       0.446  -2.757  -2.485  0.00  0.00    +0.078 A 
ATOM      6  C   UNL     1       4.105  -4.262  -3.773  0.00  0.00    +0.043 C 
ATOM      7  C   UNL     1       5.296  -3.909  -2.869  0.00  0.00    +0.005 C 
ATOM      8  C   UNL     1       4.927  -4.235  -1.420  0.00  0.00    +0.005 C 
ATOM      9  C   UNL     1       3.876  -3.247  -0.912  0.00  0.00    +0.036 C 
ENDROOT
BRANCH   5  10
ATOM     10  N   UNL     1      -0.878  -2.330  -2.361  0.00  0.00    -0.273 N 
ATOM     11  C   UNL     1      -1.746  -2.523  -3.373  0.00  0.00    +0.284 C 
ATOM     12  O   UNL     1      -1.377  -3.071  -4.396  0.00  0.00    -0.266 OA
ATOM     13  H   UNL     1      -1.172  -1.893  -1.546  0.00  0.00    +0.156 HD
BRANCH  11  14
ATOM     14  C   UNL     1      -3.136  -2.074  -3.243  0.00  0.00    +0.189 A 
ATOM     15  C   UNL     1      -4.116  -2.212  -4.184  0.00  0.00    +0.054 A 
ATOM     16  C   UNL     1      -5.280  -1.646  -3.641  0.00  0.00    +0.042 A 
ATOM     17  C   UNL     1      -4.964  -1.194  -2.408  0.00  0.00    +0.196 A 
ATOM     18  O   UNL     1      -3.673  -1.458  -2.169  0.00  0.00    -0.458 OA
ENDBRANCH  11  14
ENDBRANCH   5  10
BRANCH   1  19
ATOM     19  C   UNL     1       1.180  -2.202  -0.177  0.00  0.00    +0.138 C 
BRANCH  19  20
ATOM     20  N   UNL     1      -0.062  -2.780   0.344  0.00  0.00    -0.320 N 
ATOM     21  C   UNL     1      -0.298  -2.799   1.713  0.00  0.00    +0.097 A 
ATOM     22  C   UNL     1       0.645  -2.263   2.584  0.00  0.00    +0.041 A 
ATOM     23  C   UNL     1       0.397  -2.289   3.944  0.00  0.00    +0.005 A 
ATOM     24  C   UNL     1      -0.791  -2.852   4.390  0.00  0.00    +0.018 A 
ATOM     25  C   UNL     1      -1.683  -3.366   3.471  0.00  0.00    +0.084 A 
ATOM     26  N   UNL     1      -1.422  -3.323   2.178  0.00  0.00    -0.350 N 
ATOM     27  H   UNL     1      -0.719  -3.149  -0.267  0.00  0.00    +0.148 HD
ATOM     28  H   UNL     1      -2.068  -3.688   1.552  0.00  0.00    +0.166 HD
ENDBRANCH  19  20
BRANCH  19  33
ATOM     29  C   UNL     1      -0.324   1.259  -0.294  0.00  0.00    +0.001 A 
ATOM     30  C   UNL     1       0.808   2.051  -0.349  0.00  0.00    +0.003 A 
ATOM     31  C   UNL     1       2.061   1.468  -0.348  0.00  0.00    +0.039 A 
ATOM     32  C   UNL     1       2.183   0.090  -0.292  0.00  0.00    +0.129 A 
ATOM     33  C   UNL     1       1.049  -0.702  -0.237  0.00  0.00    +0.012 A 
ATOM     34  C   UNL     1      -0.203  -0.117  -0.238  0.00  0.00    +0.008 A 
ATOM     35  F   UNL     1       3.407  -0.481  -0.292  0.00  0.00    -0.205 F 
ENDBRANCH  19  33
ENDBRANCH   1  19
TORSDOF 5
