REMARK  Name = ZINC20873064
REMARK  11 active torsions:
REMARK  status: ('A' for Active; 'I' for Inactive)
REMARK    1  A    between atoms: C_1  and  C_2
REMARK    2  A    between atoms: C_2  and  O_3
REMARK    3  A    between atoms: O_3  and  C_4
REMARK    4  A    between atoms: C_4  and  C_5
REMARK    5  A    between atoms: C_5  and  C_6
REMARK    6  A    between atoms: C_6  and  N_7
REMARK    7  A    between atoms: N_7  and  C_8
REMARK    8  A    between atoms: C_8  and  C_9
REMARK    9  A    between atoms: C_14  and  O_15
REMARK   10  A    between atoms: O_15  and  C_16
REMARK   11  A    between atoms: C_16  and  C_17
REMARK                            x       y       z     vdW  Elec       q    Type
REMARK                         _______ _______ _______ _____ _____    ______ ____
ROOT
ATOM      1  C   UNL     1       0.684  -2.022  -1.168  0.00  0.00    -0.022 A 
ATOM      2  C   UNL     1       1.812  -2.705  -0.757  0.00  0.00    +0.020 A 
ATOM      3  C   UNL     1       1.813  -4.088  -0.733  0.00  0.00    +0.018 A 
ATOM      4  C   UNL     1       0.685  -4.790  -1.119  0.00  0.00    +0.019 A 
ATOM      5  C   UNL     1      -0.445  -4.110  -1.531  0.00  0.00    +0.047 A 
ATOM      6  C   UNL     1      -0.450  -2.723  -1.551  0.00  0.00    +0.123 A 
ATOM      7 BR   UNL     1       3.359  -5.021  -0.170  0.00  0.00    -0.050 Br
ENDROOT
BRANCH   1   8
ATOM      8  C   UNL     1       0.683  -0.515  -1.195  0.00  0.00    -0.043 C 
BRANCH   8   9
ATOM      9  N   UNL     1       0.002  -0.004   0.002  0.00  0.00    +0.382 N 
ATOM     10  H   UNL     1       0.534  -0.368   0.893  0.00  0.00    -0.085 HD
ATOM     11  H   UNL     1      -1.030  -0.385   0.010  0.00  0.00    -0.085 HD
BRANCH   9  12
ATOM     12  C   UNL     1      -0.018   1.465   0.010  0.00  0.00    -0.080 C 
BRANCH  12  13
ATOM     13  C   UNL     1      -0.734   1.958   1.269  0.00  0.00    +0.009 C 
BRANCH  13  14
ATOM     14  C   UNL     1      -0.755   3.488   1.277  0.00  0.00    +0.158 C 
BRANCH  14  15
ATOM     15  O   UNL     1      -1.424   3.949   2.453  0.00  0.00    -0.380 OA
BRANCH  15  17
ATOM     16  C   UNL     1      -2.231   5.750   3.848  0.00  0.00    +0.034 C 
ATOM     17  C   UNL     1      -1.498   5.372   2.559  0.00  0.00    +0.156 C 
ENDBRANCH  15  17
ENDBRANCH  14  15
ENDBRANCH  13  14
ENDBRANCH  12  13
ENDBRANCH   9  12
ENDBRANCH   8   9
ENDBRANCH   1   8
BRANCH   6  18
ATOM     18  O   UNL     1      -1.563  -2.052  -1.949  0.00  0.00    -0.483 OA
BRANCH  18  19
ATOM     19  C   UNL     1      -2.693  -2.839  -2.329  0.00  0.00    +0.324 C 
BRANCH  19  20
ATOM     20  C   UNL     1      -3.824  -1.930  -2.738  0.00  0.00    +0.248 C 
ATOM     21  O   UNL     1      -3.676  -0.727  -2.707  0.00  0.00    -0.272 OA
ATOM     22  N   UNL     1      -4.999  -2.455  -3.138  0.00  0.00    -0.327 N 
ATOM     23  H   UNL     1      -5.824  -1.791  -3.436  0.00  0.00    +0.145 HD
ATOM     24  H   UNL     1      -5.133  -3.546  -3.166  0.00  0.00    +0.145 HD
ENDBRANCH  19  20
ENDBRANCH  18  19
ENDBRANCH   6  18
TORSDOF 10
