REMARK  Name = ZINC39747846
REMARK  5 active torsions:
REMARK  status: ('A' for Active; 'I' for Inactive)
REMARK    1  A    between atoms: C_7  and  C_10
REMARK    2  A    between atoms: C_13  and  S_16
REMARK    3  A    between atoms: S_16  and  C_17
REMARK    4  A    between atoms: C_17  and  C_19
REMARK    5  A    between atoms: C_17  and  C_26
REMARK                            x       y       z     vdW  Elec       q    Type
REMARK                         _______ _______ _______ _____ _____    ______ ____
ROOT
ATOM      1  C   UNL     1       0.528  -4.011  -0.481  0.00  0.00    +0.238 C 
ATOM      2  N   UNL     1      -0.604  -3.393  -0.271  0.00  0.00    -0.145 NA
ATOM      3  N   UNL     1      -1.583  -4.308   0.143  0.00  0.00    -0.219 N 
ATOM      4  C   UNL     1      -0.912  -5.619   0.170  0.00  0.00    +0.340 C 
ATOM      5  O   UNL     1       0.432  -5.343  -0.247  0.00  0.00    -0.443 OA
ATOM      6  H   UNL     1      -2.508  -4.117   0.365  0.00  0.00    +0.173 HD
ENDROOT
BRANCH   1  13
ATOM      7  C   UNL     1       1.452   0.331  -1.414  0.00  0.00    +0.001 A 
ATOM      8  C   UNL     1       2.773   0.548  -1.812  0.00  0.00    +0.002 A 
ATOM      9  C   UNL     1       3.669  -0.466  -1.901  0.00  0.00    +0.026 A 
ATOM     10  C   UNL     1       3.270  -1.790  -1.585  0.00  0.00    +0.043 A 
ATOM     11  N   UNL     1       3.937  -2.928  -1.592  0.00  0.00    -0.380 N 
ATOM     12  C   UNL     1       3.045  -4.015  -1.176  0.00  0.00    +0.154 C 
ATOM     13  C   UNL     1       1.702  -3.373  -0.905  0.00  0.00    +0.043 C 
ATOM     14  C   UNL     1       1.877  -2.013  -1.165  0.00  0.00    +0.008 A 
ATOM     15  C   UNL     1       1.000  -0.909  -1.096  0.00  0.00    +0.010 A 
ATOM     16  H   UNL     1       4.871  -3.029  -1.834  0.00  0.00    +0.160 HD
ENDBRANCH   1  13
BRANCH   4  17
ATOM     17  S   UNL     1      -0.935  -6.307   1.848  0.00  0.00    -0.079 S 
BRANCH  17  18
ATOM     18  C   UNL     1      -0.045  -5.077   2.840  0.00  0.00    +0.167 C 
BRANCH  18  19
ATOM     19  C   UNL     1      -0.097  -5.470   4.293  0.00  0.00    -0.025 A 
ATOM     20  C   UNL     1      -0.545  -4.566   5.238  0.00  0.00    +0.008 A 
ATOM     21  C   UNL     1      -0.594  -4.925   6.572  0.00  0.00    +0.038 A 
ATOM     22  C   UNL     1      -0.192  -6.192   6.961  0.00  0.00    +0.123 A 
ATOM     23  C   UNL     1       0.257  -7.096   6.014  0.00  0.00    +0.038 A 
ATOM     24  C   UNL     1       0.299  -6.736   4.681  0.00  0.00    +0.008 A 
ATOM     25  F   UNL     1      -0.239  -6.544   8.265  0.00  0.00    -0.205 F 
ENDBRANCH  18  19
BRANCH  18  26
ATOM     26  C   UNL     1       1.391  -5.011   2.388  0.00  0.00    +0.228 C 
ATOM     27  O   UNL     1       1.890  -3.943   2.103  0.00  0.00    -0.274 OA
ATOM     28  N   UNL     1       2.122  -6.141   2.300  0.00  0.00    -0.328 N 
ATOM     29  H   UNL     1       1.704  -7.002   2.456  0.00  0.00    +0.145 HD
ATOM     30  H   UNL     1       3.065  -6.092   2.080  0.00  0.00    +0.145 HD
ENDBRANCH  18  26
ENDBRANCH  17  18
ENDBRANCH   4  17
TORSDOF 5
