REMARK  Name = ZINC12700834
REMARK  7 active torsions:
REMARK  status: ('A' for Active; 'I' for Inactive)
REMARK    1  A    between atoms: C_3  and  C_6
REMARK    2  A    between atoms: C_15  and  C_16
REMARK    3  A    between atoms: C_15  and  N_61
REMARK    4  A    between atoms: N_18  and  C_19
REMARK    5  A    between atoms: C_19  and  C_20
REMARK    6  A    between atoms: C_23  and  S_26
REMARK    7  A    between atoms: S_26  and  N_29
REMARK                            x       y       z     vdW  Elec       q    Type
REMARK                         _______ _______ _______ _____ _____    ______ ____
ROOT
ATOM      1  C   UNL     1      -0.718   1.572   1.248  0.00  0.00    +0.197 C 
ATOM      2  O   UNL     1      -1.714   2.256   1.150  0.00  0.00    -0.278 OA
ATOM      3  N   UNL     1      -0.242   1.246   2.466  0.00  0.00    -0.313 N 
ATOM      4  H   UNL     1       0.555   0.699   2.544  0.00  0.00    +0.149 HD
ENDROOT
BRANCH   1   5
ATOM      5  C   UNL     1      -0.013   1.086   0.008  0.00  0.00    +0.020 C 
BRANCH   5  14
ATOM      6  C   UNL     1       0.058   1.323  -2.400  0.00  0.00    +0.002 C 
ATOM      7  C   UNL     1      -0.737   1.826  -3.601  0.00  0.00    -0.046 A 
ATOM      8  C   UNL     1      -0.176   2.094  -4.847  0.00  0.00    +0.010 A 
ATOM      9  C   UNL     1      -0.956   2.540  -5.859  0.00  0.00    +0.045 A 
ATOM     10  S   UNL     1      -2.565   2.606  -5.083  0.00  0.00    -0.101 S 
ATOM     11  C   UNL     1      -2.078   2.036  -3.479  0.00  0.00    -0.010 A 
ATOM     12  C   UNL     1      -2.907   1.822  -2.255  0.00  0.00    +0.024 C 
ATOM     13  C   UNL     1      -2.072   0.995  -1.263  0.00  0.00    -0.072 C 
ATOM     14  N   UNL     1      -0.725   1.608  -1.175  0.00  0.00    +0.393 N 
ATOM     15  H   UNL     1      -0.830   2.624  -1.078  0.00  0.00    -0.080 HD
BRANCH   6  18
ATOM     16  C   UNL     1       3.678   2.504  -2.533  0.00  0.00    +0.008 A 
ATOM     17  C   UNL     1       2.604   1.650  -2.705  0.00  0.00    +0.010 A 
ATOM     18  C   UNL     1       1.371   2.059  -2.318  0.00  0.00    -0.019 A 
ATOM     19  S   UNL     1       1.704   3.698  -1.695  0.00  0.00    -0.103 S 
ATOM     20  C   UNL     1       3.465   3.724  -1.983  0.00  0.00    +0.045 A 
ENDBRANCH   6  18
ENDBRANCH   5  14
ENDBRANCH   1   5
BRANCH   3  21
ATOM     21  C   UNL     1      -0.927   1.718   3.671  0.00  0.00    +0.139 C 
BRANCH  21  22
ATOM     22  C   UNL     1      -0.198   1.219   4.892  0.00  0.00    -0.030 A 
ATOM     23  C   UNL     1      -0.546   0.006   5.457  0.00  0.00    +0.007 A 
ATOM     24  C   UNL     1       0.126  -0.454   6.574  0.00  0.00    +0.029 A 
ATOM     25  C   UNL     1       1.138   0.304   7.132  0.00  0.00    +0.105 A 
ATOM     26  C   UNL     1       1.482   1.519   6.571  0.00  0.00    +0.029 A 
ATOM     27  C   UNL     1       0.814   1.977   5.451  0.00  0.00    +0.007 A 
BRANCH  25  28
ATOM     28  S   UNL     1       1.990  -0.280   8.560  0.00  0.00    +0.061 S 
ATOM     29  O   UNL     1       1.849  -1.693   8.568  0.00  0.00    -0.153 OA
ATOM     30  O   UNL     1       3.259   0.360   8.566  0.00  0.00    -0.153 OA
BRANCH  28  31
ATOM     31  N   UNL     1       1.170   0.285   9.884  0.00  0.00    -0.172 NA
ATOM     32  C   UNL     1       1.513   1.581  10.492  0.00  0.00    +0.137 C 
ATOM     33  C   UNL     1       0.219   2.395  10.646  0.00  0.00    +0.177 C 
ATOM     34  O   UNL     1      -0.752   1.607  11.339  0.00  0.00    -0.377 OA
ATOM     35  C   UNL     1      -1.140   0.417  10.648  0.00  0.00    +0.177 C 
ATOM     36  C   UNL     1       0.081  -0.496  10.490  0.00  0.00    +0.137 C 
ENDBRANCH  28  31
ENDBRANCH  25  28
ENDBRANCH  21  22
ENDBRANCH   3  21
TORSDOF 7
