REMARK  Name = ZINC36005527
REMARK  12 active torsions:
REMARK  status: ('A' for Active; 'I' for Inactive)
REMARK    1  A    between atoms: C_1  and  C_2
REMARK    2  A    between atoms: C_2  and  N_3
REMARK    3  A    between atoms: N_10  and  C_13
REMARK    4  A    between atoms: C_13  and  C_14
REMARK    5  A    between atoms: C_15  and  C_34
REMARK    6  A    between atoms: C_16  and  C_24
REMARK    7  A    between atoms: N_21  and  C_22
REMARK    8  A    between atoms: C_22  and  C_23
REMARK    9  A    between atoms: C_29  and  C_30
REMARK   10  A    between atoms: C_34  and  O_36
REMARK   11  A    between atoms: O_36  and  C_37
REMARK   12  A    between atoms: C_37  and  C_38
REMARK                            x       y       z     vdW  Elec       q    Type
REMARK                         _______ _______ _______ _____ _____    ______ ____
ROOT
ATOM      1  C   UNL     1      -0.307  -6.048   5.564  0.00  0.00    +0.010 C 
ATOM      2  C   UNL     1      -0.132  -6.816   6.661  0.00  0.00    +0.076 C 
ATOM      3  C   UNL     1       0.061  -8.305   6.455  0.00  0.00    +0.144 C 
ATOM      4  N   UNL     1       0.042  -8.794   5.066  0.00  0.00    -0.288 N 
ATOM      5  C   UNL     1      -0.144  -7.902   4.074  0.00  0.00    +0.307 C 
ATOM      6  O   UNL     1      -0.161  -8.296   2.924  0.00  0.00    -0.252 OA
ATOM      7  N   UNL     1      -0.315  -6.596   4.313  0.00  0.00    -0.261 N 
ATOM      8  H   UNL     1       0.160  -9.737   4.870  0.00  0.00    +0.151 HD
ENDROOT
BRANCH   3   9
ATOM      9  C   UNL     1       1.385  -8.690   7.064  0.00  0.00    -0.011 A 
ATOM     10  C   UNL     1       2.554  -8.121   6.595  0.00  0.00    +0.006 A 
ATOM     11  C   UNL     1       3.767  -8.474   7.154  0.00  0.00    +0.000 A 
ATOM     12  C   UNL     1       3.812  -9.397   8.182  0.00  0.00    +0.001 A 
ATOM     13  C   UNL     1       2.643  -9.966   8.652  0.00  0.00    +0.013 A 
ATOM     14  C   UNL     1       1.429  -9.609   8.096  0.00  0.00    +0.060 A 
BRANCH  14  15
ATOM     15  C   UNL     1       0.154 -10.225   8.611  0.00  0.00    +0.418 C 
ATOM     16  F   UNL     1       0.449 -11.089   9.671  0.00  0.00    -0.166 F 
ATOM     17  F   UNL     1      -0.704  -9.215   9.059  0.00  0.00    -0.166 F 
ATOM     18  F   UNL     1      -0.466 -10.943   7.583  0.00  0.00    -0.166 F 
ENDBRANCH  14  15
ENDBRANCH   3   9
BRANCH   7  19
ATOM     19  C   UNL     1      -0.516  -5.703   3.169  0.00  0.00    +0.111 C 
ATOM     20  C   UNL     1       0.843  -5.288   2.601  0.00  0.00    +0.025 C 
ENDBRANCH   7  19
BRANCH   2  21
ATOM     21  C   UNL     1      -0.128  -6.251   7.957  0.00  0.00    +0.339 C 
ATOM     22  O   UNL     1      -0.413  -5.078   8.110  0.00  0.00    -0.245 OA
BRANCH  21  23
ATOM     23  O   UNL     1       0.191  -7.012   9.024  0.00  0.00    -0.462 OA
BRANCH  23  24
ATOM     24  C   UNL     1       0.068  -6.407  10.313  0.00  0.00    +0.229 C 
ATOM     25  C   UNL     1       0.586  -7.372  11.381  0.00  0.00    +0.048 C 
ENDBRANCH  23  24
ENDBRANCH  21  23
ENDBRANCH   2  21
BRANCH   1  26
ATOM     26  C   UNL     1      -0.502  -4.562   5.724  0.00  0.00    -0.026 C 
BRANCH  26  34
ATOM     27  N   UNL     1      -4.624  -4.014   9.153  0.00  0.00    -0.300 N 
ATOM     28  C   UNL     1      -4.763  -3.077   8.195  0.00  0.00    +0.302 C 
ATOM     29  O   UNL     1      -5.150  -1.961   8.486  0.00  0.00    -0.253 OA
ATOM     30  N   UNL     1      -4.474  -3.376   6.913  0.00  0.00    -0.287 N 
ATOM     31  C   UNL     1      -4.521  -2.300   5.902  0.00  0.00    +0.107 C 
ATOM     32  C   UNL     1      -3.339  -2.408   4.922  0.00  0.00    +0.000 C 
ATOM     33  C   UNL     1      -2.089  -2.793   5.682  0.00  0.00    -0.077 C 
ATOM     34  N   UNL     1      -1.935  -4.246   5.652  0.00  0.00    +0.384 N 
ATOM     35  C   UNL     1      -2.596  -4.936   6.692  0.00  0.00    -0.059 C 
ATOM     36  C   UNL     1      -4.121  -4.740   6.577  0.00  0.00    +0.091 C 
ATOM     37  H   UNL     1      -4.386  -4.923   8.912  0.00  0.00    +0.150 HD
ATOM     38  H   UNL     1      -2.288  -4.585   4.770  0.00  0.00    -0.081 HD
BRANCH  27  40
ATOM     39  C   UNL     1      -4.616  -4.896  11.434  0.00  0.00    +0.024 C 
ATOM     40  C   UNL     1      -4.833  -3.660  10.559  0.00  0.00    +0.102 C 
ENDBRANCH  27  40
ENDBRANCH  26  34
ENDBRANCH   1  26
TORSDOF 9
