REMARK  Name = ZINC39657703
REMARK  11 active torsions:
REMARK  status: ('A' for Active; 'I' for Inactive)
REMARK    1  A    between atoms: C_1  and  C_2
REMARK    2  A    between atoms: C_2  and  C_3
REMARK    3  A    between atoms: C_3  and  C_5
REMARK    4  A    between atoms: C_3  and  C_6
REMARK    5  A    between atoms: C_10  and  C_19
REMARK    6  A    between atoms: N_21  and  C_22
REMARK    7  A    between atoms: C_22  and  C_23
REMARK    8  A    between atoms: C_28  and  S_29
REMARK    9  A    between atoms: S_29  and  C_30
REMARK   10  A    between atoms: C_35  and  C_36
REMARK   11  A    between atoms: C_36  and  O_37
REMARK                            x       y       z     vdW  Elec       q    Type
REMARK                         _______ _______ _______ _____ _____    ______ ____
ROOT
ATOM      1  C   UNL     1       4.055  -4.390  -5.089  0.00  0.00    +0.218 C 
ATOM      2  O   UNL     1       3.473  -4.942  -5.999  0.00  0.00    -0.275 OA
ATOM      3  N   UNL     1       4.546  -3.146  -5.260  0.00  0.00    -0.311 N 
ATOM      4  H   UNL     1       5.011  -2.705  -4.532  0.00  0.00    +0.149 HD
ENDROOT
BRANCH   1   9
ATOM      5  C   UNL     1       2.956  -7.792  -1.716  0.00  0.00    +0.218 C 
ATOM      6  O   UNL     1       3.496  -8.794  -1.299  0.00  0.00    -0.275 OA
ATOM      7  N   UNL     1       3.472  -7.139  -2.776  0.00  0.00    -0.300 N 
ATOM      8  C   UNL     1       2.962  -5.905  -3.419  0.00  0.00    +0.121 C 
ATOM      9  C   UNL     1       4.230  -5.095  -3.769  0.00  0.00    +0.100 C 
ATOM     10  C   UNL     1       5.352  -6.142  -3.862  0.00  0.00    -0.004 C 
ATOM     11  C   UNL     1       4.682  -7.489  -3.557  0.00  0.00    +0.115 C 
ATOM     12  C   UNL     1       6.434  -5.851  -2.826  0.00  0.00    -0.010 C 
ATOM     13  C   UNL     1       7.566  -6.872  -2.977  0.00  0.00    -0.082 C 
ATOM     14  N   UNL     1       8.123  -6.791  -4.332  0.00  0.00    +0.379 N 
ATOM     15  C   UNL     1       7.101  -7.162  -5.318  0.00  0.00    -0.082 C 
ATOM     16  C   UNL     1       5.949  -6.153  -5.266  0.00  0.00    -0.010 C 
ATOM     17  H   UNL     1       8.434  -5.847  -4.511  0.00  0.00    -0.086 HD
ATOM     18  H   UNL     1       8.908  -7.420  -4.410  0.00  0.00    -0.086 HD
BRANCH   5  19
ATOM     19  C   UNL     1       1.707  -7.276  -1.048  0.00  0.00    +0.072 C 
ATOM     20  C   UNL     1       0.560  -7.251  -2.062  0.00  0.00    +0.017 C 
BRANCH  19  22
ATOM     21  C   UNL     1       0.142  -7.603   0.872  0.00  0.00    +0.004 C 
ATOM     22  C   UNL     1       1.336  -8.193   0.119  0.00  0.00    +0.009 C 
ENDBRANCH  19  22
ENDBRANCH   5  19
ENDBRANCH   1   9
BRANCH   3  23
ATOM     23  C   UNL     1       4.376  -2.462  -6.544  0.00  0.00    +0.140 C 
BRANCH  23  24
ATOM     24  C   UNL     1       5.010  -1.096  -6.473  0.00  0.00    -0.017 A 
ATOM     25  C   UNL     1       4.226   0.019  -6.254  0.00  0.00    +0.006 A 
ATOM     26  C   UNL     1       4.807   1.273  -6.189  0.00  0.00    +0.000 A 
ATOM     27  C   UNL     1       6.175   1.413  -6.343  0.00  0.00    +0.001 A 
ATOM     28  C   UNL     1       6.964   0.302  -6.561  0.00  0.00    +0.015 A 
ATOM     29  C   UNL     1       6.385  -0.959  -6.622  0.00  0.00    +0.017 A 
BRANCH  29  30
ATOM     30  S   UNL     1       7.389  -2.381  -6.893  0.00  0.00    -0.089 S 
BRANCH  30  31
ATOM     31  C   UNL     1       9.036  -1.755  -6.846  0.00  0.00    +0.018 A 
ATOM     32  C   UNL     1       9.579  -1.313  -5.645  0.00  0.00    +0.015 A 
ATOM     33  C   UNL     1      10.869  -0.823  -5.612  0.00  0.00    +0.001 A 
ATOM     34  C   UNL     1      11.621  -0.771  -6.771  0.00  0.00    +0.000 A 
ATOM     35  C   UNL     1      11.084  -1.209  -7.968  0.00  0.00    +0.007 A 
ATOM     36  C   UNL     1       9.796  -1.706  -8.008  0.00  0.00    -0.008 A 
BRANCH  36  37
ATOM     37  C   UNL     1       9.214  -2.191  -9.311  0.00  0.00    +0.192 C 
BRANCH  37  38
ATOM     38  O   UNL     1      10.183  -2.039 -10.351  0.00  0.00    -0.390 OA
ATOM     39  H   UNL     1       9.876  -2.332 -11.220  0.00  0.00    +0.210 HD
ENDBRANCH  37  38
ENDBRANCH  36  37
ENDBRANCH  30  31
ENDBRANCH  29  30
ENDBRANCH  23  24
ENDBRANCH   3  23
TORSDOF 9
