REMARK  Name = ZINC65266338
REMARK  2 active torsions:
REMARK  status: ('A' for Active; 'I' for Inactive)
REMARK    1  A    between atoms: C_15  and  C_17
REMARK    2  A    between atoms: N_22  and  C_23
REMARK                            x       y       z     vdW  Elec       q    Type
REMARK                         _______ _______ _______ _____ _____    ______ ____
ROOT
ATOM      1  C   UNL     1      -0.010   1.397   0.001  0.00  0.00    +0.022 A 
ATOM      2  C   UNL     1       1.196   2.087   0.003  0.00  0.00    +0.028 A 
ATOM      3  C   UNL     1       2.373   1.353  -0.009  0.00  0.00    +0.069 A 
ATOM      4  C   UNL     1       2.310  -0.042  -0.017  0.00  0.00    +0.145 A 
ATOM      5  N   UNL     1       1.137  -0.655  -0.025  0.00  0.00    -0.238 NA
ATOM      6  C   UNL     1       0.002   0.017  -0.016  0.00  0.00    +0.113 A 
ATOM      7  N   UNL     1       3.486  -0.802  -0.002  0.00  0.00    -0.286 N 
ATOM      8  C   UNL     1       4.682  -0.147  -0.251  0.00  0.00    +0.099 C 
ATOM      9  C   UNL     1       4.812   1.248   0.299  0.00  0.00    +0.103 C 
ATOM     10  N   UNL     1       3.611   2.013  -0.021  0.00  0.00    -0.328 N 
ATOM     11  C   UNL     1       5.065   1.219   1.817  0.00  0.00    +0.054 C 
ATOM     12  C   UNL     1       5.837   2.536   2.062  0.00  0.00    +0.111 C 
ATOM     13  N   UNL     1       6.423   2.945   0.776  0.00  0.00    -0.292 N 
ATOM     14  C   UNL     1       6.074   1.939  -0.246  0.00  0.00    +0.141 C 
ATOM     15  C   UNL     1       7.156   4.056   0.566  0.00  0.00    +0.282 C 
ATOM     16  O   UNL     1       7.592   4.296  -0.544  0.00  0.00    -0.267 OA
ATOM     17  N   UNL     1       5.637  -0.706  -0.920  0.00  0.00    -0.372 N 
ATOM     18  H   UNL     1       3.667   2.957  -0.237  0.00  0.00    +0.147 HD
ATOM     19  H   UNL     1       6.431  -0.198  -1.149  0.00  0.00    +0.161 HD
ATOM     20  H   UNL     1       3.465  -1.755   0.177  0.00  0.00    +0.155 HD
ENDROOT
BRANCH  15  21
ATOM     21  C   UNL     1       7.429   4.975   1.676  0.00  0.00    +0.189 A 
ATOM     22  C   UNL     1       8.150   6.133   1.600  0.00  0.00    +0.054 A 
ATOM     23  C   UNL     1       8.156   6.689   2.889  0.00  0.00    +0.042 A 
ATOM     24  C   UNL     1       7.448   5.857   3.684  0.00  0.00    +0.196 A 
ATOM     25  O   UNL     1       7.008   4.829   2.949  0.00  0.00    -0.458 OA
ENDBRANCH  15  21
BRANCH  17  26
ATOM     26  C   UNL     1       5.520  -2.107  -1.332  0.00  0.00    +0.080 C 
ATOM     27  C   UNL     1       6.052  -3.032  -0.218  0.00  0.00    +0.024 C 
ATOM     28  C   UNL     1       6.759  -4.179  -0.983  0.00  0.00    +0.002 C 
ATOM     29  C   UNL     1       7.424  -3.439  -2.170  0.00  0.00    +0.002 C 
ATOM     30  C   UNL     1       6.392  -2.366  -2.573  0.00  0.00    +0.024 C 
ENDBRANCH  17  26
TORSDOF 2
