REMARK  Name = ZINC05587498
REMARK  13 active torsions:
REMARK  status: ('A' for Active; 'I' for Inactive)
REMARK    1  A    between atoms: C_1  and  C_2
REMARK    2  A    between atoms: C_4  and  C_32
REMARK    3  A    between atoms: C_8  and  C_26
REMARK    4  A    between atoms: C_9  and  C_20
REMARK    5  A    between atoms: N_10  and  C_11
REMARK    6  A    between atoms: C_11  and  C_12
REMARK    7  A    between atoms: C_12  and  C_14
REMARK    8  A    between atoms: C_12  and  O_19
REMARK    9  A    between atoms: C_14  and  N_63
REMARK   10  A    between atoms: C_15  and  C_16
REMARK   11  A    between atoms: C_15  and  N_63
REMARK   12  A    between atoms: C_16  and  C_17
REMARK   13  A    between atoms: C_17  and  O_18
REMARK                            x       y       z     vdW  Elec       q    Type
REMARK                         _______ _______ _______ _____ _____    ______ ____
ROOT
ATOM      1  C   UNL     1       2.176   4.663   0.414  0.00  0.00    +0.044 C 
ATOM      2  C   UNL     1       0.915   3.846   0.286  0.00  0.00    -0.049 A 
ATOM      3  C   UNL     1       0.990   2.461   0.279  0.00  0.00    +0.008 A 
ATOM      4  C   UNL     1      -0.150   1.696   0.163  0.00  0.00    -0.026 A 
ATOM      5  C   UNL     1      -1.391   2.317   0.046  0.00  0.00    +0.053 A 
ATOM      6  C   UNL     1      -1.460   3.721   0.059  0.00  0.00    +0.009 A 
ATOM      7  C   UNL     1      -0.293   4.476   0.177  0.00  0.00    +0.014 A 
ATOM      8  C   UNL     1      -2.883   4.065  -0.073  0.00  0.00    +0.015 A 
ATOM      9  C   UNL     1      -3.570   2.872  -0.150  0.00  0.00    +0.058 A 
ATOM     10  N   UNL     1      -2.676   1.831  -0.075  0.00  0.00    -0.337 N 
ATOM     11  C   UNL     1      -0.054   0.192   0.156  0.00  0.00    +0.046 C 
ENDROOT
BRANCH   9  12
ATOM     12  C   UNL     1      -5.033   2.734  -0.289  0.00  0.00    -0.001 A 
ATOM     13  C   UNL     1      -5.755   1.959   0.622  0.00  0.00    +0.010 A 
ATOM     14  C   UNL     1      -7.122   1.840   0.488  0.00  0.00    +0.001 A 
ATOM     15  C   UNL     1      -7.778   2.475  -0.551  0.00  0.00    +0.000 A 
ATOM     16  C   UNL     1      -7.068   3.240  -1.461  0.00  0.00    +0.001 A 
ATOM     17  C   UNL     1      -5.701   3.373  -1.336  0.00  0.00    +0.010 A 
ENDBRANCH   9  12
BRANCH   8  18
ATOM     18  C   UNL     1      -3.465   5.426  -0.114  0.00  0.00    -0.015 A 
ATOM     19  C   UNL     1      -4.292   5.866   0.920  0.00  0.00    +0.008 A 
ATOM     20  C   UNL     1      -4.826   7.137   0.878  0.00  0.00    +0.001 A 
ATOM     21  C   UNL     1      -4.553   7.971  -0.192  0.00  0.00    +0.000 A 
ATOM     22  C   UNL     1      -3.738   7.538  -1.223  0.00  0.00    +0.001 A 
ATOM     23  C   UNL     1      -3.193   6.271  -1.190  0.00  0.00    +0.008 A 
ENDBRANCH   8  18
BRANCH  10  24
ATOM     24  C   UNL     1      -3.035   0.412  -0.123  0.00  0.00    +0.151 C 
BRANCH  24  25
ATOM     25  C   UNL     1      -2.954  -0.086  -1.568  0.00  0.00    +0.117 C 
BRANCH  25  26
ATOM     26  O   UNL     1      -3.927   0.596  -2.362  0.00  0.00    -0.392 OA
ATOM     27  H   UNL     1      -4.832   0.514  -2.031  0.00  0.00    +0.210 HD
ENDBRANCH  25  26
BRANCH  25  28
ATOM     28  C   UNL     1      -3.229  -1.591  -1.605  0.00  0.00    -0.049 C 
BRANCH  28  29
ATOM     29  N   UNL     1      -3.030  -2.085  -2.980  0.00  0.00    +0.381 N 
ATOM     30  H   UNL     1      -2.063  -1.900  -3.271  0.00  0.00    -0.086 HD
ATOM     31  H   UNL     1      -3.676  -1.597  -3.612  0.00  0.00    -0.086 HD
BRANCH  29  32
ATOM     32  C   UNL     1      -3.289  -3.535  -3.046  0.00  0.00    -0.080 C 
BRANCH  32  33
ATOM     33  C   UNL     1      -3.076  -4.018  -4.482  0.00  0.00    +0.009 C 
BRANCH  33  34
ATOM     34  C   UNL     1      -3.343  -5.523  -4.559  0.00  0.00    +0.154 C 
BRANCH  34  35
ATOM     35  O   UNL     1      -3.144  -5.974  -5.900  0.00  0.00    -0.395 OA
ATOM     36  H   UNL     1      -3.296  -6.921  -6.023  0.00  0.00    +0.209 HD
ENDBRANCH  34  35
ENDBRANCH  33  34
ENDBRANCH  32  33
ENDBRANCH  29  32
ENDBRANCH  28  29
ENDBRANCH  25  28
ENDBRANCH  24  25
ENDBRANCH  10  24
TORSDOF 11
