REMARK  Name = ZINC19790471
REMARK  6 active torsions:
REMARK  status: ('A' for Active; 'I' for Inactive)
REMARK    1  A    between atoms: C_1  and  C_2
REMARK    2  A    between atoms: C_2  and  N_3
REMARK    3  A    between atoms: N_6  and  C_9
REMARK    4  A    between atoms: C_9  and  C_10
REMARK    5  A    between atoms: N_12  and  C_13
REMARK    6  A    between atoms: C_14  and  C_22
REMARK                            x       y       z     vdW  Elec       q    Type
REMARK                         _______ _______ _______ _____ _____    ______ ____
ROOT
ATOM      1  C   UNL     1      -4.799  -4.141  -1.214  0.00  0.00    +0.232 C 
ATOM      2  O   UNL     1      -3.728  -4.708  -1.254  0.00  0.00    -0.274 OA
ATOM      3  N   UNL     1      -5.941  -4.854  -1.261  0.00  0.00    -0.278 N 
ATOM      4  H   UNL     1      -6.798  -4.401  -1.229  0.00  0.00    +0.155 HD
ENDROOT
BRANCH   3   5
ATOM      5  C   UNL     1      -5.892  -6.237  -1.355  0.00  0.00    +0.084 A 
ATOM      6  C   UNL     1      -6.954  -7.125  -1.420  0.00  0.00    +0.068 A 
ATOM      7  C   UNL     1      -6.633  -8.539  -1.515  0.00  0.00    -0.023 A 
ATOM      8  C   UNL     1      -5.309  -8.805  -1.528  0.00  0.00    -0.004 A 
ATOM      9  S   UNL     1      -4.532  -7.219  -1.424  0.00  0.00    -0.077 S 
ATOM     10  C   UNL     1      -4.663 -10.153  -1.615  0.00  0.00    +0.043 C 
ATOM     11  C   UNL     1      -5.727 -11.218  -1.310  0.00  0.00    +0.005 C 
ATOM     12  C   UNL     1      -6.982 -10.915  -2.132  0.00  0.00    +0.005 C 
ATOM     13  C   UNL     1      -7.665  -9.654  -1.597  0.00  0.00    +0.037 C 
BRANCH   6  14
ATOM     14  C   UNL     1      -8.344  -6.658  -1.393  0.00  0.00    +0.244 C 
ATOM     15  O   UNL     1      -8.916  -6.392  -2.434  0.00  0.00    -0.270 OA
ATOM     16  N   UNL     1      -8.986  -6.522  -0.217  0.00  0.00    -0.325 N 
ATOM     17  H   UNL     1      -8.530  -6.734   0.613  0.00  0.00    +0.145 HD
ATOM     18  H   UNL     1      -9.906  -6.213  -0.199  0.00  0.00    +0.145 HD
ENDBRANCH   6  14
ENDBRANCH   3   5
BRANCH   1  19
ATOM     19  C   UNL     1      -4.853  -2.639  -1.111  0.00  0.00    +0.180 C 
BRANCH  19  23
ATOM     20  N   UNL     1      -1.376  -0.512   0.012  0.00  0.00    +0.381 N 
ATOM     21  C   UNL     1      -2.050  -0.124  -1.234  0.00  0.00    -0.063 C 
ATOM     22  C   UNL     1      -3.492  -0.638  -1.215  0.00  0.00    +0.066 C 
ATOM     23  N   UNL     1      -3.486  -2.101  -1.076  0.00  0.00    -0.298 NA
ATOM     24  C   UNL     1      -2.792  -2.506   0.155  0.00  0.00    +0.066 C 
ATOM     25  C   UNL     1      -1.357  -1.977   0.125  0.00  0.00    -0.063 C 
ATOM     26  H   UNL     1      -1.873  -0.121   0.799  0.00  0.00    -0.082 HD
BRANCH  20  28
ATOM     27  C   UNL     1      -0.019   1.526   0.010  0.00  0.00    -0.017 C 
ATOM     28  C   UNL     1       0.002  -0.004   0.002  0.00  0.00    -0.082 C 
ENDBRANCH  20  28
ENDBRANCH  19  23
ENDBRANCH   1  19
TORSDOF 5
