REMARK  Name = ZINC62702375
REMARK  6 active torsions:
REMARK  status: ('A' for Active; 'I' for Inactive)
REMARK    1  A    between atoms: C_3  and  O_13
REMARK    2  A    between atoms: C_6  and  C_7
REMARK    3  A    between atoms: C_7  and  N_8
REMARK    4  A    between atoms: N_8  and  C_9
REMARK    5  A    between atoms: O_13  and  C_14
REMARK    6  A    between atoms: C_19  and  O_21
REMARK                            x       y       z     vdW  Elec       q    Type
REMARK                         _______ _______ _______ _____ _____    ______ ____
ROOT
ATOM      1  C   UNL     1      -0.007   1.360  -0.232  0.00  0.00    +0.005 A 
ATOM      2  C   UNL     1       1.179   2.069  -0.233  0.00  0.00    +0.047 A 
ATOM      3  C   UNL     1       2.380   1.410  -0.019  0.00  0.00    +0.135 A 
ATOM      4  C   UNL     1       2.388   0.038   0.196  0.00  0.00    +0.060 A 
ATOM      5  C   UNL     1       1.199  -0.666   0.196  0.00  0.00    +0.020 A 
ATOM      6  C   UNL     1       0.003  -0.006  -0.017  0.00  0.00    -0.063 A 
ATOM      7 BR   UNL     1       4.024  -0.865   0.487  0.00  0.00    -0.047 Br
ENDROOT
BRANCH   6   8
ATOM      8  C   UNL     1      -1.292  -0.776  -0.016  0.00  0.00    -0.046 C 
BRANCH   8   9
ATOM      9  N   UNL     1      -1.588  -1.239  -1.378  0.00  0.00    +0.384 N 
ATOM     10  H   UNL     1      -1.671  -0.444  -1.993  0.00  0.00    -0.085 HD
ATOM     11  H   UNL     1      -0.842  -1.837  -1.700  0.00  0.00    -0.085 HD
BRANCH   9  12
ATOM     12  C   UNL     1      -2.851  -1.990  -1.377  0.00  0.00    -0.072 C 
ATOM     13  C   UNL     1      -2.792  -3.472  -1.753  0.00  0.00    -0.017 C 
ATOM     14  C   UNL     1      -3.395  -2.459  -2.727  0.00  0.00    -0.017 C 
ENDBRANCH   9  12
ENDBRANCH   8   9
ENDBRANCH   6   8
BRANCH   3  15
ATOM     15  O   UNL     1       3.548   2.105  -0.021  0.00  0.00    -0.485 OA
BRANCH  15  16
ATOM     16  C   UNL     1       3.456   3.528  -0.124  0.00  0.00    +0.202 C 
ATOM     17  C   UNL     1       3.400   3.947  -1.607  0.00  0.00    +0.047 C 
ATOM     18  C   UNL     1       4.223   5.258  -1.663  0.00  0.00    +0.006 C 
ATOM     19  C   UNL     1       5.381   4.976  -0.673  0.00  0.00    +0.035 C 
ATOM     20  C   UNL     1       4.716   4.182   0.471  0.00  0.00    +0.155 C 
BRANCH  20  21
ATOM     21  O   UNL     1       4.353   5.064   1.535  0.00  0.00    -0.388 OA
ATOM     22  H   UNL     1       5.104   5.508   1.951  0.00  0.00    +0.210 HD
ENDBRANCH  20  21
ENDBRANCH  15  16
ENDBRANCH   3  15
TORSDOF 6
