REMARK  Name = ZINC39623594
REMARK  6 active torsions:
REMARK  status: ('A' for Active; 'I' for Inactive)
REMARK    1  A    between atoms: C_4  and  C_7
REMARK    2  A    between atoms: C_7  and  C_8
REMARK    3  A    between atoms: C_8  and  C_9
REMARK    4  A    between atoms: C_9  and  N_10
REMARK    5  A    between atoms: C_11  and  C_13
REMARK    6  A    between atoms: C_24  and  C_26
REMARK                            x       y       z     vdW  Elec       q    Type
REMARK                         _______ _______ _______ _____ _____    ______ ____
ROOT
ATOM      1  C   UNL     1       7.644  -2.624   4.242  0.00  0.00    +0.100 C 
ATOM      2  C   UNL     1       8.032  -1.350   5.025  0.00  0.00    +0.121 C 
ATOM      3  N   UNL     1       9.150  -1.774   5.899  0.00  0.00    -0.296 N 
ATOM      4  C   UNL     1       9.953  -2.689   5.053  0.00  0.00    +0.115 C 
ATOM      5  C   UNL     1       8.908  -3.500   4.262  0.00  0.00    -0.004 C 
ATOM      6  C   UNL     1       8.623  -4.823   4.967  0.00  0.00    -0.010 C 
ATOM      7  C   UNL     1       9.877  -5.699   4.925  0.00  0.00    -0.082 C 
ATOM      8  N   UNL     1      10.262  -5.939   3.528  0.00  0.00    +0.379 N 
ATOM      9  C   UNL     1      10.624  -4.670   2.884  0.00  0.00    -0.082 C 
ATOM     10  C   UNL     1       9.401  -3.750   2.840  0.00  0.00    -0.010 C 
ATOM     11  C   UNL     1       9.385  -1.409   7.176  0.00  0.00    +0.247 C 
ATOM     12  O   UNL     1      10.400  -1.775   7.735  0.00  0.00    -0.270 OA
ATOM     13  H   UNL     1      11.053  -6.566   3.501  0.00  0.00    -0.086 HD
ATOM     14  H   UNL     1       9.488  -6.356   3.034  0.00  0.00    -0.086 HD
ENDROOT
BRANCH  11  15
ATOM     15  C   UNL     1       8.409  -0.565   7.894  0.00  0.00    +0.045 A 
ATOM     16  C   UNL     1       7.931   0.612   7.307  0.00  0.00    +0.014 A 
ATOM     17  C   UNL     1       7.020   1.401   7.975  0.00  0.00    +0.001 A 
ATOM     18  C   UNL     1       6.567   1.039   9.234  0.00  0.00    +0.012 A 
ATOM     19  C   UNL     1       7.029  -0.126   9.835  0.00  0.00    +0.031 A 
ATOM     20  C   UNL     1       7.952  -0.943   9.164  0.00  0.00    +0.006 A 
ATOM     21  C   UNL     1       8.266  -2.113  10.022  0.00  0.00    -0.006 A 
ATOM     22  C   UNL     1       9.110  -3.200   9.835  0.00  0.00    +0.009 A 
ATOM     23  C   UNL     1       9.218  -4.171  10.818  0.00  0.00    +0.001 A 
ATOM     24  C   UNL     1       8.490  -4.067  11.987  0.00  0.00    +0.001 A 
ATOM     25  C   UNL     1       7.644  -2.989  12.189  0.00  0.00    +0.012 A 
ATOM     26  C   UNL     1       7.526  -2.008  11.212  0.00  0.00    +0.030 A 
ATOM     27  C   UNL     1       6.733  -0.757  11.143  0.00  0.00    +0.194 C 
ATOM     28  O   UNL     1       5.973  -0.337  11.992  0.00  0.00    -0.287 OA
ENDBRANCH  11  15
BRANCH   1  30
ATOM     29  N   UNL     1       6.495  -3.112   2.106  0.00  0.00    -0.315 N 
ATOM     30  C   UNL     1       7.270  -2.275   2.824  0.00  0.00    +0.218 C 
ATOM     31  O   UNL     1       7.667  -1.242   2.329  0.00  0.00    -0.275 OA
ATOM     32  H   UNL     1       6.178  -3.939   2.502  0.00  0.00    +0.149 HD
BRANCH  29  33
ATOM     33  C   UNL     1       6.132  -2.773   0.728  0.00  0.00    +0.104 C 
BRANCH  33  34
ATOM     34  C   UNL     1       5.254  -3.882   0.144  0.00  0.00    +0.023 C 
BRANCH  34  35
ATOM     35  C   UNL     1       4.875  -3.527  -1.295  0.00  0.00    +0.036 C 
BRANCH  35  39
ATOM     36  C   UNL     1       2.423  -6.622  -2.926  0.00  0.00    +0.000 A 
ATOM     37  C   UNL     1       1.842  -5.556  -2.265  0.00  0.00    +0.000 A 
ATOM     38  C   UNL     1       2.635  -4.555  -1.737  0.00  0.00    +0.003 A 
ATOM     39  C   UNL     1       4.010  -4.620  -1.870  0.00  0.00    -0.047 A 
ATOM     40  C   UNL     1       4.591  -5.686  -2.531  0.00  0.00    +0.003 A 
ATOM     41  C   UNL     1       3.797  -6.686  -3.060  0.00  0.00    +0.000 A 
ENDBRANCH  35  39
ENDBRANCH  34  35
ENDBRANCH  33  34
ENDBRANCH  29  33
ENDBRANCH   1  30
TORSDOF 6
