REMARK  Name = ZINC61881488
REMARK  11 active torsions:
REMARK  status: ('A' for Active; 'I' for Inactive)
REMARK    1  A    between atoms: C_1  and  C_2
REMARK    2  A    between atoms: C_2  and  N_3
REMARK    3  A    between atoms: N_3  and  C_4
REMARK    4  A    between atoms: N_3  and  C_6
REMARK    5  A    between atoms: C_4  and  C_5
REMARK    6  A    between atoms: C_6  and  C_7
REMARK    7  A    between atoms: C_7  and  C_8
REMARK    8  A    between atoms: C_8  and  N_9
REMARK    9  A    between atoms: N_9  and  S_10
REMARK   10  A    between atoms: S_10  and  C_13
REMARK   11  A    between atoms: C_17  and  N_20
REMARK                            x       y       z     vdW  Elec       q    Type
REMARK                         _______ _______ _______ _____ _____    ______ ____
ROOT
ATOM      1  S   UNL     1      -3.567  -5.708  -2.515  0.00  0.00    +0.060 S 
ATOM      2  O   UNL     1      -4.970  -5.720  -2.742  0.00  0.00    -0.153 OA
ATOM      3  O   UNL     1      -2.630  -6.069  -3.520  0.00  0.00    -0.153 OA
ENDROOT
BRANCH   1   4
ATOM      4  C   UNL     1      -3.270  -6.773  -1.143  0.00  0.00    +0.122 A 
ATOM      5  C   UNL     1      -2.297  -7.753  -1.228  0.00  0.00    +0.049 A 
ATOM      6  C   UNL     1      -2.061  -8.591  -0.152  0.00  0.00    +0.045 A 
ATOM      7  C   UNL     1      -2.796  -8.452   1.010  0.00  0.00    +0.044 A 
ATOM      8  C   UNL     1      -3.773  -7.469   1.097  0.00  0.00    +0.042 A 
ATOM      9  C   UNL     1      -4.005  -6.625   0.017  0.00  0.00    +0.065 A 
ATOM     10 BR   UNL     1      -5.329  -5.281   0.134  0.00  0.00    -0.046 Br
ATOM     11 CL   UNL     1      -0.839  -9.819  -0.263  0.00  0.00    -0.083 Cl
BRANCH   8  12
ATOM     12  N   UNL     1      -4.519  -7.326   2.270  0.00  0.00    -0.357 N 
ATOM     13  H   UNL     1      -4.354  -7.913   3.024  0.00  0.00    +0.142 HD
ATOM     14  H   UNL     1      -5.202  -6.639   2.330  0.00  0.00    +0.142 HD
ENDBRANCH   8  12
ENDBRANCH   1   4
BRANCH   1  15
ATOM     15  N   UNL     1      -3.179  -4.171  -2.035  0.00  0.00    -0.190 NA
ATOM     16  H   UNL     1      -3.866  -3.489  -1.990  0.00  0.00    +0.148 HD
BRANCH  15  17
ATOM     17  C   UNL     1      -1.796  -3.843  -1.678  0.00  0.00    +0.104 C 
BRANCH  17  18
ATOM     18  C   UNL     1      -1.619  -2.324  -1.667  0.00  0.00    -0.002 C 
BRANCH  18  19
ATOM     19  C   UNL     1      -0.176  -1.981  -1.294  0.00  0.00    -0.078 C 
BRANCH  19  20
ATOM     20  N   UNL     1      -0.006  -0.522  -1.284  0.00  0.00    +0.379 N 
ATOM     21  H   UNL     1      -0.292  -0.143  -2.174  0.00  0.00    -0.082 HD
BRANCH  20  23
ATOM     22  C   UNL     1      -0.765   1.586  -0.294  0.00  0.00    -0.017 C 
ATOM     23  C   UNL     1      -0.831   0.059  -0.216  0.00  0.00    -0.082 C 
ENDBRANCH  20  23
BRANCH  20  24
ATOM     24  C   UNL     1       1.406  -0.195  -1.044  0.00  0.00    -0.082 C 
ATOM     25  C   UNL     1       2.250  -0.681  -2.224  0.00  0.00    -0.017 C 
ENDBRANCH  20  24
ENDBRANCH  19  20
ENDBRANCH  18  19
ENDBRANCH  17  18
ENDBRANCH  15  17
ENDBRANCH   1  15
TORSDOF 9
