REMARK  Name = ZINC40464341
REMARK  10 active torsions:
REMARK  status: ('A' for Active; 'I' for Inactive)
REMARK    1  A    between atoms: C_1  and  C_2
REMARK    2  A    between atoms: C_2  and  C_3
REMARK    3  A    between atoms: C_2  and  C_4
REMARK    4  A    between atoms: C_2  and  C_5
REMARK    5  A    between atoms: C_5  and  C_7
REMARK    6  A    between atoms: C_5  and  N_22
REMARK    7  A    between atoms: N_9  and  C_10
REMARK    8  A    between atoms: C_11  and  C_18
REMARK    9  A    between atoms: C_18  and  O_20
REMARK   10  A    between atoms: O_20  and  C_21
REMARK                            x       y       z     vdW  Elec       q    Type
REMARK                         _______ _______ _______ _____ _____    ______ ____
ROOT
ATOM      1  C   UNL     1       2.101   0.595  -0.014  0.00  0.00    +0.203 C 
ATOM      2  O   UNL     1       2.978   0.318   0.776  0.00  0.00    -0.277 OA
ATOM      3  N   UNL     1       2.382   1.343  -1.098  0.00  0.00    -0.285 N 
ATOM      4  H   UNL     1       1.687   1.542  -1.745  0.00  0.00    +0.155 HD
ENDROOT
BRANCH   3   5
ATOM      5  C   UNL     1       3.673   1.832  -1.292  0.00  0.00    +0.062 A 
ATOM      6  C   UNL     1       3.877   3.193  -1.567  0.00  0.00    +0.082 A 
ATOM      7  C   UNL     1       5.176   3.670  -1.759  0.00  0.00    +0.032 A 
ATOM      8  C   UNL     1       6.247   2.805  -1.677  0.00  0.00    +0.020 A 
ATOM      9  C   UNL     1       6.041   1.461  -1.405  0.00  0.00    +0.032 A 
ATOM     10  C   UNL     1       4.763   0.976  -1.207  0.00  0.00    +0.041 A 
ATOM     11 BR   UNL     1       4.497  -0.858  -0.828  0.00  0.00    -0.048 Br
ATOM     12 BR   UNL     1       8.004   3.454  -1.937  0.00  0.00    -0.050 Br
BRANCH   6  13
ATOM     13  C   UNL     1       2.729   4.112  -1.654  0.00  0.00    +0.341 C 
ATOM     14  O   UNL     1       1.596   3.673  -1.640  0.00  0.00    -0.245 OA
BRANCH  13  15
ATOM     15  O   UNL     1       2.935   5.441  -1.748  0.00  0.00    -0.464 OA
ATOM     16  C   UNL     1       1.776   6.273  -1.829  0.00  0.00    +0.280 C 
ENDBRANCH  13  15
ENDBRANCH   6  13
ENDBRANCH   3   5
BRANCH   1  17
ATOM     17  C   UNL     1       0.695   0.102   0.218  0.00  0.00    +0.019 C 
BRANCH  17  19
ATOM     18  C   UNL     1      -0.175   2.417  -0.139  0.00  0.00    +0.009 C 
ATOM     19  C   UNL     1      -0.146   1.227   0.823  0.00  0.00    -0.042 C 
ATOM     20  C   UNL     1       0.467   1.663   2.155  0.00  0.00    +0.009 C 
ATOM     21  C   UNL     1      -1.573   0.727   1.058  0.00  0.00    +0.009 C 
ENDBRANCH  17  19
BRANCH  17  22
ATOM     22  N   UNL     1       0.723  -1.040   1.141  0.00  0.00    +0.386 N 
ATOM     23  H   UNL     1      -0.218  -1.370   1.296  0.00  0.00    -0.089 HD
ATOM     24  H   UNL     1       1.278  -1.782   0.742  0.00  0.00    -0.089 HD
ATOM     25  H   UNL     1       1.127  -0.753   2.019  0.00  0.00    -0.089 HD
ENDBRANCH  17  22
ENDBRANCH   1  17
TORSDOF 6
