REMARK  Name = ZINC16293950
REMARK  8 active torsions:
REMARK  status: ('A' for Active; 'I' for Inactive)
REMARK    1  A    between atoms: C_1  and  C_2
REMARK    2  A    between atoms: C_10  and  C_13
REMARK    3  A    between atoms: C_18  and  C_23
REMARK    4  A    between atoms: C_29  and  C_41
REMARK    5  A    between atoms: C_30  and  C_31
REMARK    6  A    between atoms: C_31  and  O_33
REMARK    7  A    between atoms: O_33  and  C_34
REMARK    8  A    between atoms: C_34  and  C_35
REMARK                            x       y       z     vdW  Elec       q    Type
REMARK                         _______ _______ _______ _____ _____    ______ ____
ROOT
ATOM      1  C   UNL     1      -3.064   0.856   5.694  0.00  0.00    +0.099 C 
ATOM      2  C   UNL     1      -2.815   0.807   7.182  0.00  0.00    +0.024 C 
ATOM      3  C   UNL     1      -3.483   1.628   8.019  0.00  0.00    +0.016 C 
ATOM      4  C   UNL     1      -3.262   1.564   9.510  0.00  0.00    +0.062 C 
ATOM      5  C   UNL     1      -1.821   1.135   9.798  0.00  0.00    +0.068 C 
ATOM      6  C   UNL     1      -1.579  -0.227   9.140  0.00  0.00    +0.091 C 
ATOM      7  C   UNL     1      -1.879  -0.122   7.670  0.00  0.00    +0.162 C 
ATOM      8  O   UNL     1      -1.301  -0.852   6.889  0.00  0.00    -0.292 OA
ATOM      9  N   UNL     1      -4.381   2.538   7.530  0.00  0.00    -0.321 N 
ATOM     10  C   UNL     1      -4.350   2.912   6.216  0.00  0.00    +0.016 C 
ATOM     11  C   UNL     1      -3.728   2.144   5.304  0.00  0.00    +0.065 C 
ATOM     12  C   UNL     1      -5.017   4.192   5.786  0.00  0.00    +0.061 C 
ATOM     13  H   UNL     1      -5.138   2.977   8.197  0.00  0.00    +0.152 HD
ENDROOT
BRANCH   1  23
ATOM     14  C   UNL     1      -4.531  -5.492   1.906  0.00  0.00    +0.044 C 
ATOM     15  C   UNL     1      -4.923  -4.396   2.863  0.00  0.00    -0.050 A 
ATOM     16  C   UNL     1      -6.182  -4.405   3.446  0.00  0.00    +0.007 A 
ATOM     17  C   UNL     1      -6.560  -3.412   4.324  0.00  0.00    +0.047 A 
ATOM     18  C   UNL     1      -5.674  -2.386   4.632  0.00  0.00    +0.138 A 
ATOM     19  C   UNL     1      -4.400  -2.378   4.041  0.00  0.00    +0.064 A 
ATOM     20  C   UNL     1      -4.030  -3.388   3.155  0.00  0.00    +0.018 A 
ATOM     21  C   UNL     1      -3.480  -1.275   4.380  0.00  0.00    +0.197 A 
ATOM     22  O   UNL     1      -2.362  -1.208   3.897  0.00  0.00    -0.287 OA
ATOM     23  C   UNL     1      -3.949  -0.297   5.296  0.00  0.00    +0.047 A 
ATOM     24  C   UNL     1      -5.190  -0.403   5.803  0.00  0.00    +0.204 A 
ATOM     25  O   UNL     1      -6.020  -1.403   5.487  0.00  0.00    -0.462 OA
ENDBRANCH   1  23
BRANCH   5  26
ATOM     26  C   UNL     1      -1.609   1.024  11.286  0.00  0.00    +0.109 A 
ATOM     27  C   UNL     1      -0.702   1.709  12.004  0.00  0.00    +0.045 A 
ATOM     28  C   UNL     1      -0.850   1.300  13.349  0.00  0.00    +0.041 A 
ATOM     29  C   UNL     1      -1.835   0.383  13.371  0.00  0.00    +0.195 A 
ATOM     30  O   UNL     1      -2.291   0.220  12.118  0.00  0.00    -0.468 OA
ENDBRANCH   5  26
BRANCH  11  31
ATOM     31  C   UNL     1      -3.704   2.556   3.951  0.00  0.00    +0.338 C 
ATOM     32  O   UNL     1      -4.332   3.538   3.603  0.00  0.00    -0.245 OA
BRANCH  31  33
ATOM     33  O   UNL     1      -2.985   1.859   3.046  0.00  0.00    -0.459 OA
BRANCH  33  34
ATOM     34  C   UNL     1      -3.006   2.331   1.698  0.00  0.00    +0.264 C 
BRANCH  34  35
ATOM     35  C   UNL     1      -2.140   1.421   0.825  0.00  0.00    +0.156 C 
ATOM     36  C   UNL     1      -2.248   1.837  -0.659  0.00  0.00    +0.037 C 
ATOM     37  C   UNL     1      -0.821   1.625  -1.213  0.00  0.00    +0.031 C 
ATOM     38  C   UNL     1      -0.021   1.105   0.002  0.00  0.00    +0.160 C 
ATOM     39  O   UNL     1      -0.742   1.588   1.156  0.00  0.00    -0.373 OA
ENDBRANCH  34  35
ENDBRANCH  33  34
ENDBRANCH  31  33
ENDBRANCH  11  31
TORSDOF 6
