REMARK  Name = ZINC08920584
REMARK  11 active torsions:
REMARK  status: ('A' for Active; 'I' for Inactive)
REMARK    1  A    between atoms: C_1  and  C_2
REMARK    2  A    between atoms: C_2  and  C_3
REMARK    3  A    between atoms: C_3  and  N_72
REMARK    4  A    between atoms: C_9  and  N_15
REMARK    5  A    between atoms: C_10  and  C_11
REMARK    6  A    between atoms: N_13  and  C_14
REMARK    7  A    between atoms: C_16  and  C_18
REMARK    8  A    between atoms: C_21  and  S_24
REMARK    9  A    between atoms: S_24  and  N_27
REMARK   10  A    between atoms: C_29  and  C_36
REMARK   11  A    between atoms: C_32  and  C_35
REMARK                            x       y       z     vdW  Elec       q    Type
REMARK                         _______ _______ _______ _____ _____    ______ ____
ROOT
ATOM      1  N   UNL     1       1.141  -4.913   0.436  0.00  0.00    -0.275 N 
ATOM      2  C   UNL     1       0.060  -4.251  -0.022  0.00  0.00    +0.249 C 
ATOM      3  O   UNL     1      -0.898  -4.869  -0.442  0.00  0.00    -0.270 OA
ATOM      4  H   UNL     1       1.906  -4.419   0.771  0.00  0.00    +0.156 HD
ENDROOT
BRANCH   1  10
ATOM      5  C   UNL     1       2.174 -10.977   1.287  0.00  0.00    -0.074 C 
ATOM      6  C   UNL     1       2.933  -9.653   1.152  0.00  0.00    +0.018 C 
ATOM      7  C   UNL     1       1.938  -8.576   0.735  0.00  0.00    -0.027 A 
ATOM      8  C   UNL     1       0.740  -8.925   0.214  0.00  0.00    -0.021 A 
ATOM      9  S   UNL     1      -0.072  -7.388  -0.117  0.00  0.00    -0.079 S 
ATOM     10  C   UNL     1       1.160  -6.298   0.428  0.00  0.00    +0.085 A 
ATOM     11  C   UNL     1       2.174  -7.149   0.848  0.00  0.00    +0.068 A 
ATOM     12  C   UNL     1       0.243 -10.317  -0.019  0.00  0.00    -0.035 C 
ATOM     13  N   UNL     1       1.409 -11.232   0.050  0.00  0.00    +0.383 N 
ATOM     14  H   UNL     1       2.016 -11.060  -0.760  0.00  0.00    -0.081 HD
BRANCH  11  15
ATOM     15  C   UNL     1       3.432  -6.626   1.388  0.00  0.00    +0.246 C 
ATOM     16  O   UNL     1       3.543  -6.421   2.583  0.00  0.00    -0.270 OA
ATOM     17  N   UNL     1       4.467  -6.373   0.562  0.00  0.00    -0.314 N 
ATOM     18  C   UNL     1       5.724  -5.850   1.102  0.00  0.00    +0.128 C 
ATOM     19  H   UNL     1       4.378  -6.537  -0.390  0.00  0.00    +0.149 HD
ENDBRANCH  11  15
BRANCH  13  20
ATOM     20  C   UNL     1       0.951 -12.637   0.018  0.00  0.00    -0.079 C 
BRANCH  20  22
ATOM     21  C   UNL     1      -0.332 -14.418   1.213  0.00  0.00    +0.002 C 
ATOM     22  C   UNL     1       0.128 -12.960   1.267  0.00  0.00    -0.022 C 
ENDBRANCH  20  22
ENDBRANCH  13  20
ENDBRANCH   1  10
BRANCH   2  23
ATOM     23  C   UNL     1       0.040  -2.773  -0.014  0.00  0.00    +0.037 A 
ATOM     24  C   UNL     1      -1.078  -2.084  -0.487  0.00  0.00    +0.015 A 
ATOM     25  C   UNL     1      -1.091  -0.705  -0.477  0.00  0.00    +0.029 A 
ATOM     26  C   UNL     1       0.002  -0.004   0.002  0.00  0.00    +0.106 A 
ATOM     27  C   UNL     1       1.116  -0.680   0.468  0.00  0.00    +0.029 A 
ATOM     28  C   UNL     1       1.139  -2.060   0.468  0.00  0.00    +0.015 A 
BRANCH  26  29
ATOM     29  S   UNL     1      -0.022   1.758   0.012  0.00  0.00    +0.061 S 
ATOM     30  O   UNL     1       1.334   2.182   0.001  0.00  0.00    -0.153 OA
ATOM     31  O   UNL     1      -0.953   2.157  -0.985  0.00  0.00    -0.153 OA
BRANCH  29  32
ATOM     32  N   UNL     1      -0.654   2.231   1.467  0.00  0.00    -0.176 NA
ATOM     33  C   UNL     1      -2.101   2.438   1.623  0.00  0.00    +0.112 C 
ATOM     34  C   UNL     1      -2.589   1.597   2.813  0.00  0.00    +0.002 C 
ATOM     35  C   UNL     1      -1.766   1.953   4.053  0.00  0.00    +0.009 C 
ATOM     36  C   UNL     1      -0.293   1.623   3.803  0.00  0.00    +0.002 C 
ATOM     37  C   UNL     1       0.221   2.458   2.626  0.00  0.00    +0.112 C 
ATOM     38  C   UNL     1       0.523   1.948   5.055  0.00  0.00    +0.009 C 
ATOM     39  C   UNL     1      -2.418   0.110   2.496  0.00  0.00    +0.009 C 
ENDBRANCH  29  32
ENDBRANCH  26  29
ENDBRANCH   2  23
TORSDOF 7
