REMARK  Name = ZINC35636293
REMARK  12 active torsions:
REMARK  status: ('A' for Active; 'I' for Inactive)
REMARK    1  A    between atoms: C_1  and  C_2
REMARK    2  A    between atoms: C_2  and  N_3
REMARK    3  A    between atoms: C_6  and  C_11
REMARK    4  A    between atoms: C_16  and  C_17
REMARK    5  A    between atoms: N_23  and  C_25
REMARK    6  A    between atoms: C_25  and  C_27
REMARK    7  A    between atoms: C_25  and  C_33
REMARK    8  A    between atoms: N_35  and  C_36
REMARK    9  A    between atoms: C_36  and  C_37
REMARK   10  A    between atoms: C_37  and  N_38
REMARK   11  A    between atoms: N_38  and  C_39
REMARK   12  A    between atoms: N_38  and  C_40
REMARK                            x       y       z     vdW  Elec       q    Type
REMARK                         _______ _______ _______ _____ _____    ______ ____
ROOT
ATOM      1  N   UNL     1      -1.450  -0.443   0.066  0.00  0.00    -0.257 N 
ATOM      2  C   UNL     1      -2.119  -0.623   1.243  0.00  0.00    +0.042 C 
ATOM      3  C   UNL     1      -3.342  -1.190   1.271  0.00  0.00    +0.058 C 
ATOM      4  C   UNL     1      -3.950  -1.620  -0.049  0.00  0.00    +0.142 C 
ATOM      5  N   UNL     1      -3.148  -1.382  -1.261  0.00  0.00    -0.288 N 
ATOM      6  C   UNL     1      -1.941  -0.799  -1.128  0.00  0.00    +0.307 C 
ATOM      7  O   UNL     1      -1.273  -0.594  -2.123  0.00  0.00    -0.252 OA
ATOM      8  C   UNL     1      -3.818  -1.264   2.596  0.00  0.00    +0.247 C 
ATOM      9  O   UNL     1      -4.896  -1.731   2.915  0.00  0.00    -0.270 OA
ATOM     10  N   UNL     1      -2.925  -0.752   3.462  0.00  0.00    -0.277 N 
ATOM     11  C   UNL     1      -1.767  -0.300   2.678  0.00  0.00    +0.160 C 
ATOM     12  H   UNL     1      -3.483  -1.636  -2.135  0.00  0.00    +0.151 HD
ENDROOT
BRANCH   4  13
ATOM     13  C   UNL     1      -4.240  -3.097   0.033  0.00  0.00    -0.011 A 
ATOM     14  C   UNL     1      -3.200  -4.007   0.030  0.00  0.00    +0.006 A 
ATOM     15  C   UNL     1      -3.466  -5.361   0.105  0.00  0.00    +0.000 A 
ATOM     16  C   UNL     1      -4.773  -5.805   0.183  0.00  0.00    +0.001 A 
ATOM     17  C   UNL     1      -5.813  -4.895   0.186  0.00  0.00    +0.013 A 
ATOM     18  C   UNL     1      -5.547  -3.541   0.116  0.00  0.00    +0.060 A 
BRANCH  18  19
ATOM     19  C   UNL     1      -6.681  -2.548   0.125  0.00  0.00    +0.418 C 
ATOM     20  F   UNL     1      -7.892  -3.225   0.300  0.00  0.00    -0.166 F 
ATOM     21  F   UNL     1      -6.498  -1.641   1.175  0.00  0.00    -0.166 F 
ATOM     22  F   UNL     1      -6.704  -1.856  -1.090  0.00  0.00    -0.166 F 
ENDBRANCH  18  19
ENDBRANCH   4  13
BRANCH   1  24
ATOM     23  C   UNL     1      -0.270   1.698  -0.011  0.00  0.00    +0.025 C 
ATOM     24  C   UNL     1      -0.124   0.180   0.112  0.00  0.00    +0.111 C 
ENDBRANCH   1  24
BRANCH  10  25
ATOM     25  C   UNL     1      -3.078  -0.661   4.917  0.00  0.00    +0.193 C 
BRANCH  25  26
ATOM     26  C   UNL     1      -4.196   0.295   5.245  0.00  0.00    -0.018 A 
ATOM     27  C   UNL     1      -4.281   1.510   4.591  0.00  0.00    +0.006 A 
ATOM     28  C   UNL     1      -5.306   2.387   4.893  0.00  0.00    +0.000 A 
ATOM     29  C   UNL     1      -6.247   2.049   5.848  0.00  0.00    +0.000 A 
ATOM     30  C   UNL     1      -6.162   0.833   6.501  0.00  0.00    +0.000 A 
ATOM     31  C   UNL     1      -5.140  -0.045   6.196  0.00  0.00    +0.006 A 
ENDBRANCH  25  26
BRANCH  25  32
ATOM     32  C   UNL     1      -1.794  -0.161   5.527  0.00  0.00    +0.238 C 
ATOM     33  O   UNL     1      -0.845   0.094   4.817  0.00  0.00    -0.273 OA
ATOM     34  N   UNL     1      -1.701   0.002   6.861  0.00  0.00    -0.315 N 
ATOM     35  H   UNL     1      -2.461  -0.202   7.429  0.00  0.00    +0.149 HD
BRANCH  34  36
ATOM     36  C   UNL     1      -0.453   0.488   7.455  0.00  0.00    +0.086 C 
BRANCH  36  37
ATOM     37  C   UNL     1      -0.613   0.582   8.973  0.00  0.00    -0.061 C 
BRANCH  37  38
ATOM     38  N   UNL     1       0.639   1.069   9.568  0.00  0.00    +0.377 N 
ATOM     39  C   UNL     1       0.893   2.444   9.118  0.00  0.00    -0.097 C 
ATOM     40  C   UNL     1       0.526   1.047  11.033  0.00  0.00    -0.097 C 
ATOM     41  H   UNL     1       1.401   0.475   9.280  0.00  0.00    -0.083 HD
ENDBRANCH  37  38
ENDBRANCH  36  37
ENDBRANCH  34  36
ENDBRANCH  25  32
ENDBRANCH  10  25
TORSDOF 9
