REMARK  Name = ZINC41328675
REMARK  10 active torsions:
REMARK  status: ('A' for Active; 'I' for Inactive)
REMARK    1  A    between atoms: C_1  and  C_2
REMARK    2  A    between atoms: C_2  and  C_3
REMARK    3  A    between atoms: C_2  and  C_4
REMARK    4  A    between atoms: C_4  and  C_6
REMARK    5  A    between atoms: C_4  and  N_23
REMARK    6  A    between atoms: C_6  and  N_7
REMARK    7  A    between atoms: C_8  and  C_10
REMARK    8  A    between atoms: N_12  and  C_13
REMARK    9  A    between atoms: C_18  and  C_19
REMARK   10  A    between atoms: C_19  and  C_20
REMARK                            x       y       z     vdW  Elec       q    Type
REMARK                         _______ _______ _______ _____ _____    ______ ____
ROOT
ATOM      1  N   UNL     1      -2.417  -2.630  -0.219  0.00  0.00    -0.309 N 
ATOM      2  C   UNL     1      -2.530  -3.970  -0.127  0.00  0.00    +0.299 C 
ATOM      3  O   UNL     1      -1.574  -4.638   0.207  0.00  0.00    -0.265 OA
ATOM      4  H   UNL     1      -3.181  -2.096  -0.487  0.00  0.00    +0.149 HD
ENDROOT
BRANCH   2   5
ATOM      5  C   UNL     1      -3.832  -4.632  -0.437  0.00  0.00    +0.303 C 
ATOM      6  O   UNL     1      -4.789  -3.964  -0.772  0.00  0.00    -0.265 OA
ATOM      7  N   UNL     1      -3.945  -5.972  -0.345  0.00  0.00    -0.277 N 
ATOM      8  H   UNL     1      -3.203  -6.500  -0.013  0.00  0.00    +0.155 HD
BRANCH   7   9
ATOM      9  C   UNL     1      -5.133  -6.601  -0.729  0.00  0.00    +0.037 A 
ATOM     10  C   UNL     1      -6.338  -5.914  -0.660  0.00  0.00    +0.023 A 
ATOM     11  C   UNL     1      -7.510  -6.538  -1.040  0.00  0.00    +0.002 A 
ATOM     12  C   UNL     1      -7.484  -7.846  -1.490  0.00  0.00    +0.000 A 
ATOM     13  C   UNL     1      -6.286  -8.533  -1.559  0.00  0.00    +0.006 A 
ATOM     14  C   UNL     1      -5.109  -7.912  -1.187  0.00  0.00    -0.017 A 
BRANCH  14  15
ATOM     15  C   UNL     1      -3.803  -8.659  -1.269  0.00  0.00    +0.132 C 
BRANCH  15  16
ATOM     16  C   UNL     1      -3.490  -9.274   0.071  0.00  0.00    +0.215 C 
ATOM     17  O   UNL     1      -4.252  -9.120   1.001  0.00  0.00    -0.276 OA
ATOM     18  N   UNL     1      -2.362  -9.994   0.235  0.00  0.00    -0.329 N 
ATOM     19  H   UNL     1      -1.753 -10.117  -0.510  0.00  0.00    +0.145 HD
ATOM     20  H   UNL     1      -2.161 -10.389   1.097  0.00  0.00    +0.145 HD
ENDBRANCH  15  16
ENDBRANCH  14  15
ENDBRANCH   7   9
ENDBRANCH   2   5
BRANCH   1  21
ATOM     21  C   UNL     1      -1.139  -1.980   0.085  0.00  0.00    +0.089 C 
BRANCH  21  22
ATOM     22  C   UNL     1      -1.224  -0.496  -0.277  0.00  0.00    -0.049 C 
BRANCH  22  23
ATOM     23  N   UNL     1      -1.372  -0.354  -1.731  0.00  0.00    +0.383 N 
ATOM     24  C   UNL     1      -2.727  -0.797  -2.115  0.00  0.00    -0.078 C 
ATOM     25  C   UNL     1      -3.097  -0.120  -3.410  0.00  0.00    -0.019 C 
ATOM     26  C   UNL     1      -2.805  -1.024  -4.622  0.00  0.00    -0.002 C 
ATOM     27  C   UNL     1      -1.467  -1.775  -4.466  0.00  0.00    -0.002 C 
ATOM     28  C   UNL     1      -0.382  -0.902  -3.891  0.00  0.00    -0.019 C 
ATOM     29  C   UNL     1      -0.355  -1.076  -2.358  0.00  0.00    -0.078 C 
ATOM     30  H   UNL     1      -1.272   0.621  -1.972  0.00  0.00    -0.081 HD
ENDBRANCH  22  23
BRANCH  22  32
ATOM     31  C   UNL     1      -0.045   1.704  -0.152  0.00  0.00    +0.005 C 
ATOM     32  C   UNL     1       0.054   0.213   0.177  0.00  0.00    -0.029 C 
ATOM     33  C   UNL     1       0.227   0.034   1.687  0.00  0.00    +0.005 C 
ENDBRANCH  22  32
ENDBRANCH  21  22
ENDBRANCH   1  21
TORSDOF 8
