REMARK  Name = ZINC20613894
REMARK  14 active torsions:
REMARK  status: ('A' for Active; 'I' for Inactive)
REMARK    1  A    between atoms: C_1  and  C_2
REMARK    2  A    between atoms: C_2  and  N_3
REMARK    3  A    between atoms: N_3  and  C_4
REMARK    4  A    between atoms: N_3  and  C_6
REMARK    5  A    between atoms: C_4  and  C_5
REMARK    6  A    between atoms: C_6  and  C_7
REMARK    7  A    between atoms: C_7  and  C_8
REMARK    8  A    between atoms: C_8  and  N_9
REMARK    9  A    between atoms: N_9  and  C_10
REMARK   10  A    between atoms: C_10  and  N_12
REMARK   11  A    between atoms: N_12  and  N_13
REMARK   12  A    between atoms: C_14  and  C_16
REMARK   13  A    between atoms: C_22  and  C_30
REMARK   14  A    between atoms: C_25  and  C_27
REMARK                            x       y       z     vdW  Elec       q    Type
REMARK                         _______ _______ _______ _____ _____    ______ ____
ROOT
ATOM      1  N   UNL     1      -5.513  -4.329  -2.128  0.00  0.00    -0.231 N 
ATOM      2  C   UNL     1      -6.837  -4.563  -2.223  0.00  0.00    +0.265 C 
ATOM      3  O   UNL     1      -7.242  -5.695  -2.412  0.00  0.00    -0.268 OA
ATOM      4  H   UNL     1      -5.190  -3.426  -1.977  0.00  0.00    +0.173 HD
ENDROOT
BRANCH   2   5
ATOM      5  C   UNL     1      -7.790  -3.454  -2.098  0.00  0.00    +0.097 A 
ATOM      6  C   UNL     1      -7.475  -2.088  -1.883  0.00  0.00    +0.149 A 
ATOM      7  N   UNL     1      -8.592  -1.415  -1.829  0.00  0.00    -0.177 NA
ATOM      8  N   UNL     1      -9.663  -2.290  -2.000  0.00  0.00    -0.241 N 
ATOM      9  C   UNL     1      -9.167  -3.538  -2.172  0.00  0.00    +0.130 A 
ATOM     10  N   UNL     1      -9.971  -4.645  -2.379  0.00  0.00    -0.322 N 
ATOM     11  C   UNL     1     -11.387  -4.372  -2.695  0.00  0.00    +0.104 C 
ATOM     12  C   UNL     1     -11.888  -3.262  -1.763  0.00  0.00    +0.059 C 
ATOM     13  C   UNL     1     -11.096  -1.976  -2.009  0.00  0.00    +0.177 C 
ATOM     14  H   UNL     1      -9.624  -5.549  -2.320  0.00  0.00    +0.148 HD
BRANCH  11  15
ATOM     15  C   UNL     1     -11.510  -3.928  -4.130  0.00  0.00    -0.027 A 
ATOM     16  C   UNL     1     -10.563  -3.080  -4.674  0.00  0.00    +0.005 A 
ATOM     17  C   UNL     1     -10.675  -2.673  -5.990  0.00  0.00    +0.000 A 
ATOM     18  C   UNL     1     -11.734  -3.114  -6.762  0.00  0.00    +0.000 A 
ATOM     19  C   UNL     1     -12.680  -3.962  -6.218  0.00  0.00    +0.000 A 
ATOM     20  C   UNL     1     -12.566  -4.373  -4.903  0.00  0.00    +0.005 A 
ENDBRANCH  11  15
BRANCH  13  21
ATOM     21  C   UNL     1     -11.403  -0.954  -0.912  0.00  0.00    +0.365 C 
ATOM     22  F   UNL     1     -10.670   0.215  -1.146  0.00  0.00    -0.207 F 
ATOM     23  F   UNL     1     -12.770  -0.656  -0.922  0.00  0.00    -0.207 F 
ENDBRANCH  13  21
ENDBRANCH   2   5
BRANCH   1  24
ATOM     24  N   UNL     1      -4.603  -5.387  -2.247  0.00  0.00    -0.246 N 
ATOM     25  H   UNL     1      -4.926  -6.290  -2.398  0.00  0.00    +0.172 HD
BRANCH  24  26
ATOM     26  C   UNL     1      -3.280  -5.152  -2.153  0.00  0.00    +0.147 C 
ATOM     27  S   UNL     1      -2.168  -6.446  -2.298  0.00  0.00    -0.017 S 
BRANCH  26  28
ATOM     28  N   UNL     1      -2.831  -3.899  -1.943  0.00  0.00    -0.326 N 
ATOM     29  H   UNL     1      -3.461  -3.166  -1.860  0.00  0.00    +0.148 HD
BRANCH  28  30
ATOM     30  C   UNL     1      -1.392  -3.644  -1.840  0.00  0.00    +0.101 C 
BRANCH  30  31
ATOM     31  C   UNL     1      -1.155  -2.151  -1.603  0.00  0.00    +0.000 C 
BRANCH  31  32
ATOM     32  C   UNL     1       0.348  -1.884  -1.496  0.00  0.00    -0.077 C 
BRANCH  32  33
ATOM     33  N   UNL     1       0.576  -0.451  -1.269  0.00  0.00    +0.379 N 
ATOM     34  H   UNL     1       0.124   0.081  -1.998  0.00  0.00    -0.082 HD
BRANCH  33  36
ATOM     35  C   UNL     1       0.128   1.449   0.210  0.00  0.00    -0.017 C 
ATOM     36  C   UNL     1       0.019  -0.067   0.035  0.00  0.00    -0.082 C 
ENDBRANCH  33  36
BRANCH  33  37
ATOM     37  C   UNL     1       2.019  -0.176  -1.285  0.00  0.00    -0.082 C 
ATOM     38  C   UNL     1       2.573  -0.440  -2.687  0.00  0.00    -0.017 C 
ENDBRANCH  33  37
ENDBRANCH  32  33
ENDBRANCH  31  32
ENDBRANCH  30  31
ENDBRANCH  28  30
ENDBRANCH  26  28
ENDBRANCH  24  26
ENDBRANCH   1  24
TORSDOF 12
