REMARK  Name = ZINC35987626
REMARK  8 active torsions:
REMARK  status: ('A' for Active; 'I' for Inactive)
REMARK    1  A    between atoms: C_1  and  C_2
REMARK    2  A    between atoms: C_5  and  C_8
REMARK    3  A    between atoms: C_11  and  C_32
REMARK    4  A    between atoms: C_21  and  C_23
REMARK    5  A    between atoms: C_27  and  N_29
REMARK    6  A    between atoms: N_34  and  C_35
REMARK    7  A    between atoms: C_35  and  C_36
REMARK    8  A    between atoms: C_35  and  C_37
REMARK                            x       y       z     vdW  Elec       q    Type
REMARK                         _______ _______ _______ _____ _____    ______ ____
ROOT
ATOM      1  C   UNL     1       4.394  -7.070   2.450  0.00  0.00    +0.249 C 
ATOM      2  O   UNL     1       5.069  -7.898   1.871  0.00  0.00    -0.270 OA
ATOM      3  N   UNL     1       3.386  -7.465   3.253  0.00  0.00    -0.255 N 
ATOM      4  C   UNL     1       2.484  -6.595   4.042  0.00  0.00    +0.190 C 
ATOM      5  C   UNL     1       1.949  -7.557   5.132  0.00  0.00    +0.194 C 
ATOM      6  O   UNL     1       1.831  -8.806   4.412  0.00  0.00    -0.353 OA
ATOM      7  C   UNL     1       2.954  -8.845   3.518  0.00  0.00    +0.142 C 
ATOM      8  C   UNL     1       2.546  -9.518   2.206  0.00  0.00    +0.074 C 
ATOM      9  C   UNL     1       3.741  -9.529   1.248  0.00  0.00    +0.112 C 
ATOM     10  N   UNL     1       4.883 -10.158   1.924  0.00  0.00    -0.297 N 
ATOM     11  C   UNL     1       5.306  -9.636   3.231  0.00  0.00    +0.112 C 
ATOM     12  C   UNL     1       4.097  -9.624   4.171  0.00  0.00    +0.074 C 
ATOM     13  C   UNL     1       5.532 -11.194   1.356  0.00  0.00    +0.247 C 
ATOM     14  O   UNL     1       6.560 -11.613   1.852  0.00  0.00    -0.270 OA
ENDROOT
BRANCH   1  19
ATOM     15  C   UNL     1       5.497  -1.465   1.758  0.00  0.00    +0.044 C 
ATOM     16  C   UNL     1       5.208  -2.933   1.939  0.00  0.00    -0.050 A 
ATOM     17  C   UNL     1       6.217  -3.861   1.752  0.00  0.00    +0.004 A 
ATOM     18  C   UNL     1       5.959  -5.207   1.917  0.00  0.00    +0.013 A 
ATOM     19  C   UNL     1       4.677  -5.630   2.272  0.00  0.00    +0.037 A 
ATOM     20  C   UNL     1       3.664  -4.688   2.459  0.00  0.00    +0.013 A 
ATOM     21  C   UNL     1       3.937  -3.345   2.297  0.00  0.00    +0.004 A 
ENDBRANCH   1  19
BRANCH  13  22
ATOM     22  C   UNL     1       4.993 -11.821   0.130  0.00  0.00    +0.039 A 
ATOM     23  C   UNL     1       4.605 -11.027  -0.951  0.00  0.00    +0.013 A 
ATOM     24  C   UNL     1       4.104 -11.618  -2.092  0.00  0.00    +0.003 A 
ATOM     25  C   UNL     1       3.985 -12.995  -2.166  0.00  0.00    +0.033 A 
ATOM     26  C   UNL     1       4.367 -13.787  -1.099  0.00  0.00    +0.127 A 
ATOM     27  C   UNL     1       4.876 -13.209   0.046  0.00  0.00    +0.045 A 
BRANCH  26  28
ATOM     28  N   UNL     1       4.236 -15.259  -1.187  0.00  0.00    +0.056 N 
ATOM     29  O   UNL     1       3.795 -15.767  -2.192  0.00  0.00    -0.126 OA
ATOM     30  O   UNL     1       4.570 -15.953  -0.255  0.00  0.00    -0.126 OA
ENDBRANCH  26  28
ENDBRANCH  13  22
BRANCH   4  31
ATOM     31  C   UNL     1       3.250  -5.454   4.660  0.00  0.00    +0.236 C 
ATOM     32  O   UNL     1       4.449  -5.370   4.500  0.00  0.00    -0.274 OA
ATOM     33  N   UNL     1       2.602  -4.526   5.393  0.00  0.00    -0.311 N 
ATOM     34  H   UNL     1       1.657  -4.633   5.583  0.00  0.00    +0.149 HD
BRANCH  33  35
ATOM     35  C   UNL     1       3.325  -3.358   5.900  0.00  0.00    +0.067 C 
ATOM     36  C   UNL     1       2.330  -2.237   6.208  0.00  0.00    +0.027 C 
ATOM     37  C   UNL     1       4.075  -3.738   7.178  0.00  0.00    +0.027 C 
ENDBRANCH  33  35
ENDBRANCH   4  31
TORSDOF 5
