REMARK  Name = ZINC61996275
REMARK  7 active torsions:
REMARK  status: ('A' for Active; 'I' for Inactive)
REMARK    1  A    between atoms: C_1  and  C_2
REMARK    2  A    between atoms: C_2  and  C_3
REMARK    3  A    between atoms: C_2  and  N_10
REMARK    4  A    between atoms: N_13  and  C_14
REMARK    5  A    between atoms: C_14  and  C_15
REMARK    6  A    between atoms: C_19  and  S_21
REMARK    7  A    between atoms: S_21  and  N_24
REMARK                            x       y       z     vdW  Elec       q    Type
REMARK                         _______ _______ _______ _____ _____    ______ ____
ROOT
ATOM      1  N   UNL     1       0.837  -0.272   1.176  0.00  0.00    -0.297 N 
ATOM      2  C   UNL     1       0.269  -0.407   2.390  0.00  0.00    +0.300 C 
ATOM      3  O   UNL     1      -0.937  -0.305   2.512  0.00  0.00    -0.253 OA
ATOM      4  N   UNL     1       1.037  -0.653   3.470  0.00  0.00    -0.295 N 
ATOM      5  H   UNL     1       1.799  -0.353   1.078  0.00  0.00    +0.151 HD
ATOM      6  H   UNL     1       1.999  -0.734   3.373  0.00  0.00    +0.151 HD
ENDROOT
BRANCH   1   8
ATOM      7  C   UNL     1      -0.250   1.501  -0.111  0.00  0.00    +0.028 C 
ATOM      8  C   UNL     1       0.002  -0.004   0.002  0.00  0.00    +0.075 C 
BRANCH   8   9
ATOM      9  C   UNL     1       0.718  -0.497  -1.257  0.00  0.00    +0.012 C 
ATOM     10  C   UNL     1       0.756  -2.043  -1.284  0.00  0.00    +0.009 C 
ATOM     11  C   UNL     1      -0.030  -2.433  -2.573  0.00  0.00    -0.010 C 
ATOM     12  C   UNL     1      -1.513  -2.082  -2.247  0.00  0.00    +0.004 C 
ATOM     13  C   UNL     1      -1.552  -0.536  -2.220  0.00  0.00    +0.004 C 
ATOM     14  C   UNL     1      -0.087  -0.100  -2.531  0.00  0.00    -0.006 C 
ATOM     15  C   UNL     1       0.351  -1.239  -3.518  0.00  0.00    +0.007 C 
ENDBRANCH   8   9
ENDBRANCH   1   8
BRANCH   4  16
ATOM     16  C   UNL     1       0.419  -0.799   4.790  0.00  0.00    +0.141 C 
BRANCH  16  17
ATOM     17  C   UNL     1       1.488  -1.068   5.818  0.00  0.00    -0.028 A 
ATOM     18  C   UNL     1       1.865  -2.368   6.100  0.00  0.00    +0.005 A 
ATOM     19  C   UNL     1       2.845  -2.614   7.043  0.00  0.00    +0.002 A 
ATOM     20  C   UNL     1       3.450  -1.560   7.703  0.00  0.00    +0.028 A 
ATOM     21  C   UNL     1       3.074  -0.261   7.420  0.00  0.00    +0.105 A 
ATOM     22  C   UNL     1       2.096  -0.014   6.475  0.00  0.00    +0.033 A 
BRANCH  21  23
ATOM     23  S   UNL     1       3.843   1.082   8.263  0.00  0.00    +0.056 S 
ATOM     24  O   UNL     1       2.930   2.170   8.212  0.00  0.00    -0.153 OA
ATOM     25  O   UNL     1       4.341   0.561   9.488  0.00  0.00    -0.153 OA
BRANCH  23  26
ATOM     26  N   UNL     1       5.163   1.530   7.368  0.00  0.00    -0.204 NA
ATOM     27  H   UNL     1       5.372   1.061   6.545  0.00  0.00    +0.144 HD
ATOM     28  H   UNL     1       5.726   2.260   7.666  0.00  0.00    +0.144 HD
ENDBRANCH  23  26
ENDBRANCH  21  23
ENDBRANCH  16  17
ENDBRANCH   4  16
TORSDOF 6
