REMARK  Name = ZINC46763202
REMARK  10 active torsions:
REMARK  status: ('A' for Active; 'I' for Inactive)
REMARK    1  A    between atoms: C_1  and  C_2
REMARK    2  A    between atoms: C_5  and  C_31
REMARK    3  A    between atoms: N_8  and  C_10
REMARK    4  A    between atoms: C_10  and  C_11
REMARK    5  A    between atoms: C_11  and  C_12
REMARK    6  A    between atoms: C_12  and  C_13
REMARK    7  A    between atoms: C_13  and  N_14
REMARK    8  A    between atoms: N_17  and  N_18
REMARK    9  A    between atoms: C_19  and  C_21
REMARK   10  A    between atoms: N_23  and  C_30
REMARK                            x       y       z     vdW  Elec       q    Type
REMARK                         _______ _______ _______ _____ _____    ______ ____
ROOT
ATOM      1  N   UNL     1       6.033  -2.576   4.436  0.00  0.00    -0.298 N 
ATOM      2  C   UNL     1       7.352  -2.312   4.518  0.00  0.00    +0.316 C 
ATOM      3  O   UNL     1       7.900  -1.674   3.640  0.00  0.00    -0.251 OA
ATOM      4  N   UNL     1       8.063  -2.753   5.575  0.00  0.00    -0.218 N 
ATOM      5  H   UNL     1       5.596  -3.085   5.136  0.00  0.00    +0.150 HD
ATOM      6  H   UNL     1       9.012  -2.563   5.634  0.00  0.00    +0.174 HD
ENDROOT
BRANCH   4   7
ATOM      7  N   UNL     1       7.431  -3.488   6.587  0.00  0.00    -0.229 N 
ATOM      8  C   UNL     1       8.142  -3.929   7.643  0.00  0.00    +0.262 C 
ATOM      9  O   UNL     1       9.333  -3.690   7.718  0.00  0.00    -0.269 OA
ATOM     10  H   UNL     1       6.482  -3.678   6.527  0.00  0.00    +0.173 HD
BRANCH   8  11
ATOM     11  C   UNL     1       7.480  -4.700   8.704  0.00  0.00    +0.063 A 
ATOM     12  C   UNL     1       6.163  -5.050   8.758  0.00  0.00    +0.099 A 
ATOM     13  N   UNL     1       5.923  -5.757   9.888  0.00  0.00    -0.349 N 
ATOM     14  C   UNL     1       7.081  -5.899  10.623  0.00  0.00    +0.050 A 
ATOM     15  C   UNL     1       8.109  -5.252   9.918  0.00  0.00    +0.012 A 
ATOM     16  C   UNL     1       9.405  -5.238  10.428  0.00  0.00    +0.011 A 
ATOM     17  C   UNL     1       9.673  -5.865  11.625  0.00  0.00    +0.001 A 
ATOM     18  C   UNL     1       8.660  -6.508  12.321  0.00  0.00    +0.002 A 
ATOM     19  C   UNL     1       7.371  -6.522  11.832  0.00  0.00    +0.026 A 
ATOM     20  C   UNL     1       4.616  -6.296  10.275  0.00  0.00    +0.149 C 
ENDBRANCH   8  11
ENDBRANCH   4   7
BRANCH   1  21
ATOM     21  C   UNL     1       5.260  -2.096   3.288  0.00  0.00    +0.106 C 
BRANCH  21  22
ATOM     22  C   UNL     1       3.800  -2.529   3.438  0.00  0.00    +0.017 C 
BRANCH  22  23
ATOM     23  C   UNL     1       2.993  -2.028   2.239  0.00  0.00    -0.017 C 
BRANCH  23  24
ATOM     24  C   UNL     1       1.534  -2.461   2.390  0.00  0.00    -0.079 C 
BRANCH  24  30
ATOM     25  C   UNL     1      -0.019   1.526   0.010  0.00  0.00    +0.005 C 
ATOM     26  C   UNL     1       0.002  -0.004   0.002  0.00  0.00    -0.031 C 
ATOM     27  C   UNL     1      -1.434  -0.535   0.015  0.00  0.00    +0.003 C 
ATOM     28  C   UNL     1      -1.402  -2.064   0.086  0.00  0.00    -0.031 C 
ATOM     29  C   UNL     1      -0.613  -2.496   1.324  0.00  0.00    -0.076 C 
ATOM     30  N   UNL     1       0.758  -1.980   1.239  0.00  0.00    +0.380 N 
ATOM     31  C   UNL     1       0.740  -0.512   1.242  0.00  0.00    -0.076 C 
ATOM     32  C   UNL     1      -2.832  -2.602   0.177  0.00  0.00    +0.005 C 
ATOM     33  H   UNL     1       1.188  -2.307   0.386  0.00  0.00    -0.082 HD
ENDBRANCH  24  30
ENDBRANCH  23  24
ENDBRANCH  22  23
ENDBRANCH  21  22
ENDBRANCH   1  21
TORSDOF 7
