REMARK  Name = ZINC64041609
REMARK  8 active torsions:
REMARK  status: ('A' for Active; 'I' for Inactive)
REMARK    1  A    between atoms: C_2  and  C_3
REMARK    2  A    between atoms: C_3  and  N_4
REMARK    3  A    between atoms: N_4  and  C_5
REMARK    4  A    between atoms: C_5  and  N_7
REMARK    5  A    between atoms: N_7  and  C_8
REMARK    6  A    between atoms: C_8  and  C_9
REMARK    7  A    between atoms: C_9  and  C_11
REMARK    8  A    between atoms: C_9  and  C_18
REMARK                            x       y       z     vdW  Elec       q    Type
REMARK                         _______ _______ _______ _____ _____    ______ ____
ROOT
ATOM      1  C   UNL     1      -3.342  -5.076  -3.825  0.00  0.00    +0.066 C 
ENDROOT
BRANCH   1   2
ATOM      2  C   UNL     1      -4.584  -5.879  -4.115  0.00  0.00    -0.033 C 
ATOM      3  C   UNL     1      -5.332  -5.842  -5.241  0.00  0.00    -0.000 A 
ATOM      4  C   UNL     1      -5.217  -5.073  -6.486  0.00  0.00    +0.010 A 
ATOM      5  C   UNL     1      -6.140  -5.256  -7.457  0.00  0.00    +0.001 A 
ATOM      6  C   UNL     1      -7.201  -6.159  -7.306  0.00  0.00    +0.002 A 
ATOM      7  C   UNL     1      -7.372  -6.902  -6.192  0.00  0.00    +0.026 A 
ATOM      8  C   UNL     1      -6.460  -6.790  -5.106  0.00  0.00    +0.043 A 
ATOM      9  N   UNL     1      -6.413  -7.390  -3.941  0.00  0.00    -0.380 N 
ATOM     10  C   UNL     1      -5.243  -6.894  -3.207  0.00  0.00    +0.145 C 
ATOM     11  H   UNL     1      -7.043  -8.053  -3.620  0.00  0.00    +0.160 HD
ENDBRANCH   1   2
BRANCH   1  12
ATOM     12  C   UNL     1      -2.184  -6.011  -3.585  0.00  0.00    -0.020 A 
ATOM     13  C   UNL     1      -2.241  -6.931  -2.555  0.00  0.00    +0.006 A 
ATOM     14  C   UNL     1      -1.179  -7.788  -2.336  0.00  0.00    +0.000 A 
ATOM     15  C   UNL     1      -0.060  -7.726  -3.146  0.00  0.00    +0.001 A 
ATOM     16  C   UNL     1      -0.003  -6.806  -4.175  0.00  0.00    +0.020 A 
ATOM     17  C   UNL     1      -1.068  -5.952  -4.400  0.00  0.00    +0.045 A 
ATOM     18 CL   UNL     1      -0.999  -4.801  -5.697  0.00  0.00    -0.083 Cl
ENDBRANCH   1  12
BRANCH   1  19
ATOM     19  C   UNL     1      -3.570  -4.216  -2.580  0.00  0.00    +0.115 C 
BRANCH  19  20
ATOM     20  N   UNL     1      -2.409  -3.349  -2.367  0.00  0.00    -0.326 N 
ATOM     21  H   UNL     1      -1.657  -3.386  -2.978  0.00  0.00    +0.148 HD
BRANCH  20  22
ATOM     22  C   UNL     1      -2.386  -2.498  -1.322  0.00  0.00    +0.131 C 
ATOM     23  S   UNL     1      -3.713  -2.432  -0.243  0.00  0.00    -0.019 S 
BRANCH  22  24
ATOM     24  N   UNL     1      -1.318  -1.700  -1.126  0.00  0.00    -0.323 N 
ATOM     25  H   UNL     1      -0.566  -1.737  -1.737  0.00  0.00    +0.148 HD
BRANCH  24  26
ATOM     26  C   UNL     1      -1.293  -0.775   0.010  0.00  0.00    +0.130 C 
BRANCH  26  28
ATOM     27  C   UNL     1      -0.016   1.306   0.009  0.00  0.00    +0.005 C 
ATOM     28  C   UNL     1       0.002  -0.004   0.002  0.00  0.00    -0.016 C 
ENDBRANCH  26  28
ENDBRANCH  24  26
ENDBRANCH  22  24
ENDBRANCH  20  22
ENDBRANCH  19  20
ENDBRANCH   1  19
TORSDOF 8
