REMARK  Name = ZINC36990280
REMARK  7 active torsions:
REMARK  status: ('A' for Active; 'I' for Inactive)
REMARK    1  A    between atoms: C_1  and  C_2
REMARK    2  A    between atoms: C_2  and  C_4
REMARK    3  A    between atoms: C_2  and  N_11
REMARK    4  A    between atoms: N_11  and  C_12
REMARK    5  A    between atoms: N_15  and  C_18
REMARK    6  A    between atoms: C_18  and  C_19
REMARK    7  A    between atoms: N_21  and  C_22
REMARK                            x       y       z     vdW  Elec       q    Type
REMARK                         _______ _______ _______ _____ _____    ______ ____
ROOT
ATOM      1  N   UNL     1       0.690  -0.478  -1.207  0.00  0.00    +0.385 N 
ATOM      2  H   UNL     1       1.608  -0.063  -1.256  0.00  0.00    -0.085 HD
ATOM      3  H   UNL     1       0.776  -1.482  -1.172  0.00  0.00    -0.085 HD
ENDROOT
BRANCH   1   4
ATOM      4  C   UNL     1      -0.086  -0.093  -2.394  0.00  0.00    -0.069 C 
ATOM      5  C   UNL     1      -1.429  -0.827  -2.387  0.00  0.00    -0.000 C 
ATOM      6  C   UNL     1      -2.207  -0.469  -3.656  0.00  0.00    +0.083 C 
ATOM      7  N   UNL     1      -1.423  -0.856  -4.837  0.00  0.00    -0.294 NA
ATOM      8  C   UNL     1      -0.149  -0.128  -4.889  0.00  0.00    +0.083 C 
ATOM      9  C   UNL     1       0.690  -0.476  -3.657  0.00  0.00    -0.000 C 
BRANCH   7  10
ATOM     10  C   UNL     1      -2.196  -0.654  -6.070  0.00  0.00    +0.180 C 
BRANCH  10  11
ATOM     11  C   UNL     1      -1.466  -1.284  -7.228  0.00  0.00    +0.227 C 
ATOM     12  O   UNL     1      -0.406  -1.844  -7.045  0.00  0.00    -0.274 OA
ATOM     13  N   UNL     1      -1.990  -1.223  -8.468  0.00  0.00    -0.317 N 
ATOM     14  C   UNL     1      -1.280  -1.834  -9.594  0.00  0.00    +0.128 C 
ATOM     15  H   UNL     1      -2.837  -0.775  -8.615  0.00  0.00    +0.148 HD
ENDBRANCH  10  11
ENDBRANCH   7  10
ENDBRANCH   1   4
BRANCH   1  17
ATOM     16  C   UNL     1      -0.019   1.526   0.010  0.00  0.00    -0.009 C 
ATOM     17  C   UNL     1       0.002  -0.004   0.002  0.00  0.00    -0.044 C 
BRANCH  17  18
ATOM     18  C   UNL     1       0.731  -0.503   1.223  0.00  0.00    -0.062 A 
ATOM     19  C   UNL     1       2.113  -0.514   1.246  0.00  0.00    +0.003 A 
ATOM     20  C   UNL     1       2.782  -0.971   2.366  0.00  0.00    +0.015 A 
ATOM     21  C   UNL     1       2.068  -1.418   3.463  0.00  0.00    +0.018 A 
ATOM     22  C   UNL     1       0.685  -1.408   3.439  0.00  0.00    +0.015 A 
ATOM     23  C   UNL     1       0.017  -0.945   2.321  0.00  0.00    +0.003 A 
ATOM     24 BR   UNL     1       2.983  -2.045   4.995  0.00  0.00    -0.050 Br
ENDBRANCH  17  18
ENDBRANCH   1  17
TORSDOF 5
