REMARK  Name = ZINC42398122
REMARK  6 active torsions:
REMARK  status: ('A' for Active; 'I' for Inactive)
REMARK    1  A    between atoms: C_1  and  N_2
REMARK    2  A    between atoms: N_2  and  C_3
REMARK    3  A    between atoms: N_2  and  C_10
REMARK    4  A    between atoms: C_3  and  C_4
REMARK    5  A    between atoms: C_10  and  C_11
REMARK    6  A    between atoms: C_16  and  N_20
REMARK                            x       y       z     vdW  Elec       q    Type
REMARK                         _______ _______ _______ _____ _____    ______ ____
ROOT
ATOM      1  C   UNL     1      -0.106  -0.083  -2.424  0.00  0.00    +0.091 A 
ATOM      2  N   UNL     1      -1.102  -0.760  -2.915  0.00  0.00    -0.234 NA
ATOM      3  C   UNL     1      -1.591  -0.123  -4.011  0.00  0.00    +0.089 A 
ATOM      4  C   UNL     1      -2.632  -0.402  -4.901  0.00  0.00    +0.031 A 
ATOM      5  C   UNL     1      -2.892   0.449  -5.936  0.00  0.00    +0.025 A 
ATOM      6  C   UNL     1      -2.126   1.600  -6.117  0.00  0.00    +0.027 A 
ATOM      7  C   UNL     1      -1.091   1.894  -5.246  0.00  0.00    +0.050 A 
ATOM      8  C   UNL     1      -0.818   1.036  -4.190  0.00  0.00    +0.068 A 
ATOM      9  N   UNL     1       0.110   1.037  -3.168  0.00  0.00    -0.343 N 
ATOM     10  H   UNL     1       0.791   1.709  -3.010  0.00  0.00    +0.167 HD
ENDROOT
BRANCH   6  11
ATOM     11  N   UNL     1      -2.405   2.461  -7.183  0.00  0.00    -0.358 N 
ATOM     12  H   UNL     1      -3.130   2.256  -7.795  0.00  0.00    +0.142 HD
ATOM     13  H   UNL     1      -1.873   3.262  -7.311  0.00  0.00    +0.142 HD
ENDBRANCH   6  11
BRANCH   1  14
ATOM     14  C   UNL     1       0.690  -0.478  -1.207  0.00  0.00    -0.003 C 
BRANCH  14  16
ATOM     15  C   UNL     1      -0.018   1.465   0.010  0.00  0.00    -0.095 C 
ATOM     16  N   UNL     1       0.002  -0.004   0.002  0.00  0.00    +0.386 N 
ATOM     17  H   UNL     1      -0.945  -0.353   0.009  0.00  0.00    -0.081 HD
BRANCH  16  18
ATOM     18  C   UNL     1       0.713  -0.491   1.192  0.00  0.00    -0.035 C 
BRANCH  18  19
ATOM     19  C   UNL     1      -0.059  -0.109   2.429  0.00  0.00    -0.026 A 
ATOM     20  C   UNL     1      -1.025  -0.802   3.080  0.00  0.00    +0.024 A 
ATOM     21  C   UNL     1      -1.602  -0.250   4.209  0.00  0.00    +0.025 A 
ATOM     22  C   UNL     1      -1.184   0.969   4.631  0.00  0.00    +0.060 A 
ATOM     23  S   UNL     1       0.067   1.369   3.421  0.00  0.00    -0.102 S 
ATOM     24 BR   UNL     1      -2.954  -1.180   5.149  0.00  0.00    -0.050 Br
ENDBRANCH  18  19
ENDBRANCH  16  18
ENDBRANCH  14  16
ENDBRANCH   1  14
TORSDOF 5
