REMARK  Name = ZINC67129649
REMARK  7 active torsions:
REMARK  status: ('A' for Active; 'I' for Inactive)
REMARK    1  A    between atoms: C_1  and  C_2
REMARK    2  A    between atoms: C_2  and  O_3
REMARK    3  A    between atoms: O_3  and  C_4
REMARK    4  A    between atoms: C_9  and  N_12
REMARK    5  A    between atoms: C_13  and  C_15
REMARK    6  A    between atoms: C_15  and  N_16
REMARK    7  A    between atoms: C_21  and  C_23
REMARK                            x       y       z     vdW  Elec       q    Type
REMARK                         _______ _______ _______ _____ _____    ______ ____
ROOT
ATOM      1  N   UNL     1       5.210  -3.511   4.036  0.00  0.00    -0.314 N 
ATOM      2  C   UNL     1       5.463  -4.577   4.822  0.00  0.00    +0.197 C 
ATOM      3  O   UNL     1       4.552  -5.138   5.393  0.00  0.00    -0.278 OA
ATOM      4  H   UNL     1       5.938  -3.062   3.579  0.00  0.00    +0.149 HD
ENDROOT
BRANCH   1  10
ATOM      5  C   UNL     1       1.063  -1.358   1.343  0.00  0.00    +0.403 C 
ATOM      6  O   UNL     1       0.473  -2.076   0.560  0.00  0.00    -0.226 OA
ATOM      7  N   UNL     1       1.702  -1.897   2.401  0.00  0.00    -0.267 N 
ATOM      8  C   UNL     1       2.415  -1.042   3.360  0.00  0.00    +0.113 C 
ATOM      9  C   UNL     1       3.854  -1.548   3.497  0.00  0.00    +0.041 C 
ATOM     10  C   UNL     1       3.835  -3.032   3.871  0.00  0.00    +0.076 C 
ATOM     11  C   UNL     1       3.146  -3.830   2.763  0.00  0.00    +0.041 C 
ATOM     12  C   UNL     1       1.694  -3.349   2.620  0.00  0.00    +0.113 C 
BRANCH   5  13
ATOM     13  O   UNL     1       1.079  -0.025   1.155  0.00  0.00    -0.451 OA
BRANCH  13  15
ATOM     14  C   UNL     1       0.510   2.001  -0.034  0.00  0.00    +0.048 C 
ATOM     15  C   UNL     1       0.382   0.477   0.013  0.00  0.00    +0.230 C 
ENDBRANCH  13  15
ENDBRANCH   5  13
ENDBRANCH   1  10
BRANCH   2  16
ATOM     16  C   UNL     1       6.876  -5.070   4.991  0.00  0.00    +0.020 C 
BRANCH  16  17
ATOM     17  N   UNL     1       6.885  -6.232   5.889  0.00  0.00    +0.393 N 
ATOM     18  C   UNL     1       6.193  -7.354   5.242  0.00  0.00    -0.077 C 
ATOM     19  C   UNL     1       6.129  -8.541   6.205  0.00  0.00    -0.019 C 
ATOM     20  C   UNL     1       7.552  -8.966   6.580  0.00  0.00    -0.003 C 
ATOM     21  C   UNL     1       8.288  -7.767   7.185  0.00  0.00    -0.006 C 
ATOM     22  C   UNL     1       8.273  -6.608   6.187  0.00  0.00    +0.020 C 
ATOM     23  H   UNL     1       6.410  -5.997   6.747  0.00  0.00    -0.080 HD
BRANCH  22  24
ATOM     24  C   UNL     1       8.997  -5.426   6.778  0.00  0.00    +0.197 C 
ATOM     25  O   UNL     1       8.382  -4.592   7.408  0.00  0.00    -0.278 OA
ATOM     26  N   UNL     1      10.327  -5.297   6.608  0.00  0.00    -0.331 N 
ATOM     27  H   UNL     1      10.819  -5.964   6.104  0.00  0.00    +0.145 HD
ATOM     28  H   UNL     1      10.793  -4.536   6.989  0.00  0.00    +0.145 HD
ENDBRANCH  22  24
ENDBRANCH  16  17
ENDBRANCH   2  16
TORSDOF 6
