REMARK  Name = ZINC61882374
REMARK  10 active torsions:
REMARK  status: ('A' for Active; 'I' for Inactive)
REMARK    1  A    between atoms: C_1  and  C_2
REMARK    2  A    between atoms: C_2  and  C_4
REMARK    3  A    between atoms: C_2  and  N_9
REMARK    4  A    between atoms: C_4  and  C_5
REMARK    5  A    between atoms: C_5  and  N_6
REMARK    6  A    between atoms: N_6  and  C_7
REMARK    7  A    between atoms: N_6  and  C_8
REMARK    8  A    between atoms: N_9  and  S_10
REMARK    9  A    between atoms: S_10  and  C_13
REMARK   10  A    between atoms: C_17  and  N_20
REMARK                            x       y       z     vdW  Elec       q    Type
REMARK                         _______ _______ _______ _____ _____    ______ ____
ROOT
ATOM      1  S   UNL     1      -0.124  -0.784   2.588  0.00  0.00    +0.060 S 
ATOM      2  O   UNL     1       0.780  -1.121   3.632  0.00  0.00    -0.153 OA
ATOM      3  O   UNL     1      -1.010   0.323   2.676  0.00  0.00    -0.153 OA
ENDROOT
BRANCH   1   4
ATOM      4  C   UNL     1      -1.123  -2.208   2.309  0.00  0.00    +0.122 A 
ATOM      5  C   UNL     1      -2.497  -2.081   2.221  0.00  0.00    +0.049 A 
ATOM      6  C   UNL     1      -3.286  -3.197   2.001  0.00  0.00    +0.045 A 
ATOM      7  C   UNL     1      -2.701  -4.443   1.868  0.00  0.00    +0.044 A 
ATOM      8  C   UNL     1      -1.322  -4.574   1.956  0.00  0.00    +0.042 A 
ATOM      9  C   UNL     1      -0.532  -3.450   2.172  0.00  0.00    +0.065 A 
ATOM     10 BR   UNL     1       1.347  -3.621   2.284  0.00  0.00    -0.046 Br
ATOM     11 CL   UNL     1      -5.011  -3.033   1.892  0.00  0.00    -0.083 Cl
BRANCH   8  12
ATOM     12  N   UNL     1      -0.728  -5.831   1.823  0.00  0.00    -0.357 N 
ATOM     13  H   UNL     1      -1.279  -6.614   1.669  0.00  0.00    +0.142 HD
ATOM     14  H   UNL     1       0.236  -5.921   1.885  0.00  0.00    +0.142 HD
ENDBRANCH   8  12
ENDBRANCH   1   4
BRANCH   1  15
ATOM     15  N   UNL     1       0.790  -0.553   1.227  0.00  0.00    -0.187 NA
ATOM     16  H   UNL     1       1.754  -0.656   1.267  0.00  0.00    +0.148 HD
BRANCH  15  18
ATOM     17  C   UNL     1       0.150   1.330  -0.196  0.00  0.00    +0.025 C 
ATOM     18  C   UNL     1       0.144  -0.192  -0.037  0.00  0.00    +0.072 C 
BRANCH  18  19
ATOM     19  C   UNL     1       0.905  -0.830  -1.200  0.00  0.00    +0.001 C 
BRANCH  19  20
ATOM     20  C   UNL     1       0.793  -2.353  -1.109  0.00  0.00    -0.078 C 
BRANCH  20  21
ATOM     21  N   UNL     1       1.525  -2.966  -2.226  0.00  0.00    +0.376 N 
ATOM     22  C   UNL     1       2.958  -2.673  -2.092  0.00  0.00    -0.097 C 
ATOM     23  C   UNL     1       1.318  -4.420  -2.207  0.00  0.00    -0.097 C 
ATOM     24  H   UNL     1       1.185  -2.588  -3.098  0.00  0.00    -0.083 HD
ENDBRANCH  20  21
ENDBRANCH  19  20
ENDBRANCH  18  19
ENDBRANCH  15  18
ENDBRANCH   1  15
TORSDOF 7
