REMARK  Name = ZINC38550267
REMARK  6 active torsions:
REMARK  status: ('A' for Active; 'I' for Inactive)
REMARK    1  A    between atoms: C_1  and  O_2
REMARK    2  A    between atoms: O_2  and  C_3
REMARK    3  A    between atoms: C_6  and  C_18
REMARK    4  A    between atoms: C_8  and  C_9
REMARK    5  A    between atoms: C_9  and  N_10
REMARK    6  A    between atoms: C_12  and  N_15
REMARK                            x       y       z     vdW  Elec       q    Type
REMARK                         _______ _______ _______ _____ _____    ______ ____
ROOT
ATOM      1  C   UNL     1      -1.200  -0.637   0.010  0.00  0.00    +0.125 A 
ATOM      2  C   UNL     1      -2.375   0.101   0.019  0.00  0.00    +0.046 A 
ATOM      3  C   UNL     1      -3.596  -0.545   0.027  0.00  0.00    +0.006 A 
ATOM      4  C   UNL     1      -3.648  -1.927   0.026  0.00  0.00    -0.055 A 
ATOM      5  C   UNL     1      -2.479  -2.665   0.017  0.00  0.00    +0.011 A 
ATOM      6  C   UNL     1      -1.255  -2.023   0.003  0.00  0.00    +0.010 A 
ENDROOT
BRANCH   4   7
ATOM      7  C   UNL     1      -4.981  -2.629   0.034  0.00  0.00    +0.007 C 
ATOM      8  C   UNL     1      -5.559  -2.637  -1.361  0.00  0.00    +0.010 A 
ATOM      9  H   UNL     1      -3.953  -3.097  -2.606  0.00  0.00    +0.166 HD
ATOM     10  C   UNL     1      -6.862  -2.384  -1.619  0.00  0.00    -0.022 A 
ATOM     11  C   UNL     1      -7.042  -2.477  -3.050  0.00  0.00    +0.003 A 
ATOM     12  C   UNL     1      -8.155  -2.316  -3.881  0.00  0.00    +0.010 A 
ATOM     13  C   UNL     1      -7.953  -2.483  -5.229  0.00  0.00    +0.001 A 
ATOM     14  C   UNL     1      -6.710  -2.796  -5.753  0.00  0.00    +0.002 A 
ATOM     15  C   UNL     1      -5.591  -2.962  -4.954  0.00  0.00    +0.026 A 
ATOM     16  C   UNL     1      -5.766  -2.798  -3.582  0.00  0.00    +0.047 A 
ATOM     17  N   UNL     1      -4.897  -2.888  -2.532  0.00  0.00    -0.359 N 
ATOM     18  C   UNL     1      -7.872  -2.075  -0.542  0.00  0.00    +0.018 C 
ATOM     19  C   UNL     1      -7.261  -2.482   0.806  0.00  0.00    -0.076 C 
ATOM     20  N   UNL     1      -5.909  -1.917   0.926  0.00  0.00    +0.387 N 
ATOM     21  H   UNL     1      -5.590  -2.005   1.879  0.00  0.00    -0.084 HD
ATOM     22  H   UNL     1      -5.933  -0.940   0.673  0.00  0.00    -0.084 HD
ENDBRANCH   4   7
BRANCH   1  24
ATOM     23  C   UNL     1      -0.017   1.425   0.010  0.00  0.00    +0.277 C 
ATOM     24  O   UNL     1       0.002  -0.004   0.002  0.00  0.00    -0.495 OA
ENDBRANCH   1  24
BRANCH   6  25
ATOM     25  C   UNL     1       0.018  -2.829  -0.013  0.00  0.00    +0.144 C 
BRANCH  25  26
ATOM     26  N   UNL     1       0.611  -2.780  -1.356  0.00  0.00    -0.219 NA
ATOM     27  C   UNL     1       1.830  -3.611  -1.427  0.00  0.00    +0.167 C 
ATOM     28  C   UNL     1       2.921  -2.640  -1.820  0.00  0.00    +0.134 C 
ATOM     29  C   UNL     1       2.353  -1.457  -1.940  0.00  0.00    +0.114 C 
ATOM     30  N   UNL     1       1.000  -1.510  -1.674  0.00  0.00    -0.282 N 
ATOM     31  H   UNL     1       0.403  -0.746  -1.708  0.00  0.00    +0.166 HD
BRANCH  28  32
ATOM     32  N   UNL     1       4.352  -2.957  -2.029  0.00  0.00    +0.055 N 
ATOM     33  O   UNL     1       5.126  -2.082  -2.344  0.00  0.00    -0.126 OA
ATOM     34  O   UNL     1       4.747  -4.090  -1.885  0.00  0.00    -0.126 OA
ENDBRANCH  28  32
ENDBRANCH  25  26
ENDBRANCH   6  25
TORSDOF 5
