REMARK  Name = ZINC09536194
REMARK  11 active torsions:
REMARK  status: ('A' for Active; 'I' for Inactive)
REMARK    1  A    between atoms: C_1  and  C_2
REMARK    2  A    between atoms: C_5  and  S_8
REMARK    3  A    between atoms: S_8  and  N_11
REMARK    4  A    between atoms: N_11  and  C_12
REMARK    5  A    between atoms: N_11  and  C_13
REMARK    6  A    between atoms: C_16  and  C_19
REMARK    7  A    between atoms: N_21  and  C_22
REMARK    8  A    between atoms: C_22  and  C_23
REMARK    9  A    between atoms: C_23  and  C_25
REMARK   10  A    between atoms: C_23  and  N_66
REMARK   11  A    between atoms: C_28  and  C_30
REMARK                            x       y       z     vdW  Elec       q    Type
REMARK                         _______ _______ _______ _____ _____    ______ ____
ROOT
ATOM      1  C   UNL     1      -4.779   6.949   2.248  0.00  0.00    +0.244 C 
ATOM      2  O   UNL     1      -4.036   7.667   1.608  0.00  0.00    -0.270 OA
ATOM      3  N   UNL     1      -4.310   5.808   2.792  0.00  0.00    -0.312 N 
ATOM      4  H   UNL     1      -4.903   5.235   3.303  0.00  0.00    +0.149 HD
ENDROOT
BRANCH   1   8
ATOM      5  C   UNL     1      -8.851   8.034   2.773  0.00  0.00    +0.051 A 
ATOM      6  C   UNL     1      -8.001   8.858   2.040  0.00  0.00    +0.025 A 
ATOM      7  C   UNL     1      -6.681   8.509   1.868  0.00  0.00    +0.015 A 
ATOM      8  C   UNL     1      -6.194   7.326   2.431  0.00  0.00    +0.037 A 
ATOM      9  C   UNL     1      -7.050   6.498   3.162  0.00  0.00    +0.015 A 
ATOM     10  C   UNL     1      -8.368   6.856   3.335  0.00  0.00    +0.025 A 
BRANCH   5  11
ATOM     11  N   UNL     1     -10.184   8.390   2.945  0.00  0.00    -0.206 N 
ATOM     12  C   UNL     1     -10.577   9.801   2.909  0.00  0.00    +0.157 C 
BRANCH  11  13
ATOM     13  S   UNL     1     -11.328   7.218   3.191  0.00  0.00    +0.074 S 
ATOM     14  O   UNL     1     -12.546   7.723   2.661  0.00  0.00    -0.150 OA
ATOM     15  O   UNL     1     -10.756   5.994   2.752  0.00  0.00    -0.150 OA
BRANCH  13  20
ATOM     16  C   UNL     1     -12.116   6.716   9.152  0.00  0.00    +0.044 C 
ATOM     17  C   UNL     1     -11.920   6.841   7.663  0.00  0.00    -0.050 A 
ATOM     18  C   UNL     1     -12.593   7.821   6.957  0.00  0.00    +0.005 A 
ATOM     19  C   UNL     1     -12.412   7.936   5.591  0.00  0.00    +0.029 A 
ATOM     20  C   UNL     1     -11.558   7.072   4.932  0.00  0.00    +0.109 A 
ATOM     21  C   UNL     1     -10.889   6.089   5.637  0.00  0.00    +0.029 A 
ATOM     22  C   UNL     1     -11.066   5.977   7.003  0.00  0.00    +0.005 A 
ENDBRANCH  13  20
ENDBRANCH  11  13
ENDBRANCH   5  11
ENDBRANCH   1   8
BRANCH   3  23
ATOM     23  C   UNL     1      -2.906   5.434   2.610  0.00  0.00    +0.097 C 
BRANCH  23  24
ATOM     24  C   UNL     1      -2.607   4.169   3.418  0.00  0.00    +0.017 C 
BRANCH  24  30
ATOM     25  C   UNL     1      -3.344   1.903   3.851  0.00  0.00    -0.049 C 
ATOM     26  C   UNL     1      -4.387   0.850   3.467  0.00  0.00    +0.141 C 
ATOM     27  O   UNL     1      -4.295   0.585   2.064  0.00  0.00    -0.383 OA
ATOM     28  C   UNL     1      -4.495   1.740   1.245  0.00  0.00    +0.141 C 
ATOM     29  C   UNL     1      -3.453   2.801   1.607  0.00  0.00    -0.049 C 
ATOM     30  N   UNL     1      -3.579   3.119   3.045  0.00  0.00    +0.390 N 
ATOM     31  H   UNL     1      -4.529   3.463   3.229  0.00  0.00    -0.081 HD
ENDBRANCH  24  30
BRANCH  24  32
ATOM     32  C   UNL     1      -1.200   3.710   3.131  0.00  0.00    +0.093 A 
ATOM     33  C   UNL     1      -0.152   3.815   3.968  0.00  0.00    +0.043 A 
ATOM     34  C   UNL     1       0.964   3.264   3.298  0.00  0.00    +0.044 A 
ATOM     35  C   UNL     1       0.531   2.855   2.091  0.00  0.00    +0.102 A 
ATOM     36  O   UNL     1      -0.779   3.134   1.994  0.00  0.00    -0.466 OA
ATOM     37  C   UNL     1       1.375   2.202   1.027  0.00  0.00    +0.086 C 
ENDBRANCH  24  32
ENDBRANCH  23  24
ENDBRANCH   3  23
TORSDOF 8
