REMARK  Name = ZINC42362483
REMARK  6 active torsions:
REMARK  status: ('A' for Active; 'I' for Inactive)
REMARK    1  A    between atoms: C_1  and  N_2
REMARK    2  A    between atoms: N_2  and  C_3
REMARK    3  A    between atoms: N_2  and  C_13
REMARK    4  A    between atoms: C_3  and  C_4
REMARK    5  A    between atoms: C_9  and  C_10
REMARK    6  A    between atoms: C_13  and  C_14
REMARK                            x       y       z     vdW  Elec       q    Type
REMARK                         _______ _______ _______ _____ _____    ______ ____
ROOT
ATOM      1  C   UNL     1      -0.025  -0.145   2.443  0.00  0.00    -0.054 A 
ATOM      2  C   UNL     1       0.420   0.895   3.232  0.00  0.00    +0.002 A 
ATOM      3  C   UNL     1      -0.313   1.292   4.336  0.00  0.00    +0.000 A 
ATOM      4  C   UNL     1      -1.496   0.650   4.656  0.00  0.00    +0.001 A 
ATOM      5  C   UNL     1      -1.952  -0.392   3.875  0.00  0.00    +0.011 A 
ATOM      6  C   UNL     1      -1.220  -0.794   2.757  0.00  0.00    +0.013 A 
ENDROOT
BRANCH   6   7
ATOM      7  C   UNL     1      -1.706  -1.907   1.912  0.00  0.00    +0.094 C 
ATOM      8  N   UNL     1      -0.934  -2.972   1.705  0.00  0.00    -0.387 N 
ATOM      9  N   UNL     1      -2.915  -1.843   1.358  0.00  0.00    -0.345 N 
ATOM     10  H   UNL     1      -1.218  -3.664   1.088  0.00  0.00    +0.157 HD
ATOM     11  H   UNL     1      -3.477  -1.067   1.508  0.00  0.00    +0.144 HD
ATOM     12  H   UNL     1      -3.233  -2.572   0.803  0.00  0.00    +0.144 HD
ATOM     13  H   UNL     1      -0.088  -3.055   2.171  0.00  0.00    +0.157 HD
ENDBRANCH   6   7
BRANCH   1  14
ATOM     14  C   UNL     1       0.775  -0.577   1.241  0.00  0.00    -0.042 C 
BRANCH  14  16
ATOM     15  C   UNL     1       0.137   1.369  -0.008  0.00  0.00    -0.095 C 
ATOM     16  N   UNL     1       0.116  -0.099   0.018  0.00  0.00    +0.383 N 
ATOM     17  H   UNL     1      -0.840  -0.423   0.002  0.00  0.00    -0.081 HD
BRANCH  16  18
ATOM     18  C   UNL     1       0.828  -0.620  -1.157  0.00  0.00    -0.042 C 
BRANCH  18  19
ATOM     19  C   UNL     1       0.083  -0.233  -2.408  0.00  0.00    -0.056 A 
ATOM     20  C   UNL     1      -0.899  -1.058  -2.924  0.00  0.00    +0.024 A 
ATOM     21  C   UNL     1      -1.550  -0.680  -4.052  0.00  0.00    +0.055 A 
ATOM     22  S   UNL     1      -0.774   0.885  -4.419  0.00  0.00    -0.090 S 
ATOM     23  C   UNL     1       0.361   0.932  -3.042  0.00  0.00    +0.048 A 
ATOM     24 BR   UNL     1      -2.924  -1.577  -4.992  0.00  0.00    -0.043 Br
ENDBRANCH  18  19
ENDBRANCH  16  18
ENDBRANCH  14  16
ENDBRANCH   1  14
TORSDOF 5
