REMARK  Name = ZINC02293100
REMARK  7 active torsions:
REMARK  status: ('A' for Active; 'I' for Inactive)
REMARK    1  A    between atoms: C_1  and  O_2
REMARK    2  A    between atoms: O_2  and  C_3
REMARK    3  A    between atoms: C_6  and  N_9
REMARK    4  A    between atoms: C_10  and  N_31
REMARK    5  A    between atoms: C_11  and  C_22
REMARK    6  A    between atoms: N_24  and  C_25
REMARK    7  A    between atoms: C_25  and  C_26
REMARK                            x       y       z     vdW  Elec       q    Type
REMARK                         _______ _______ _______ _____ _____    ______ ____
ROOT
ATOM      1  N   UNL     1      -4.891  -2.582   0.036  0.00  0.00    -0.280 N 
ATOM      2  C   UNL     1      -5.792  -2.520   1.057  0.00  0.00    +0.117 A 
ATOM      3  C   UNL     1      -6.919  -3.277   0.756  0.00  0.00    +0.102 A 
ATOM      4  C   UNL     1      -6.689  -3.859  -0.576  0.00  0.00    +0.099 A 
ATOM      5  C   UNL     1      -5.371  -3.372  -0.991  0.00  0.00    +0.164 A 
ATOM      6  N   UNL     1      -4.889  -3.727  -2.163  0.00  0.00    -0.226 NA
ATOM      7  C   UNL     1      -5.605  -4.525  -2.964  0.00  0.00    +0.089 A 
ATOM      8  C   UNL     1      -5.098  -4.911  -4.219  0.00  0.00    +0.030 A 
ATOM      9  C   UNL     1      -5.832  -5.722  -5.027  0.00  0.00    +0.002 A 
ATOM     10  C   UNL     1      -7.087  -6.182  -4.631  0.00  0.00    +0.002 A 
ATOM     11  C   UNL     1      -7.612  -5.831  -3.426  0.00  0.00    +0.028 A 
ATOM     12  C   UNL     1      -6.881  -4.993  -2.562  0.00  0.00    +0.065 A 
ATOM     13  N   UNL     1      -7.385  -4.647  -1.371  0.00  0.00    -0.350 N 
ATOM     14  H   UNL     1      -8.259  -4.967  -1.099  0.00  0.00    +0.166 HD
ENDROOT
BRANCH   1  18
ATOM     15  C   UNL     1      -1.201  -0.638   0.010  0.00  0.00    +0.120 A 
ATOM     16  C   UNL     1      -2.374   0.102   0.020  0.00  0.00    +0.047 A 
ATOM     17  C   UNL     1      -3.596  -0.541   0.028  0.00  0.00    +0.030 A 
ATOM     18  C   UNL     1      -3.650  -1.928   0.027  0.00  0.00    +0.050 A 
ATOM     19  C   UNL     1      -2.476  -2.668   0.017  0.00  0.00    +0.030 A 
ATOM     20  C   UNL     1      -1.254  -2.024   0.003  0.00  0.00    +0.047 A 
BRANCH  15  22
ATOM     21  C   UNL     1      -0.017   1.425   0.010  0.00  0.00    +0.277 C 
ATOM     22  O   UNL     1       0.002  -0.004   0.002  0.00  0.00    -0.495 OA
ENDBRANCH  15  22
ENDBRANCH   1  18
BRANCH   3  23
ATOM     23  C   UNL     1      -8.100  -3.459   1.598  0.00  0.00    +0.250 C 
ATOM     24  O   UNL     1      -9.040  -2.691   1.503  0.00  0.00    -0.270 OA
ATOM     25  N   UNL     1      -8.148  -4.477   2.480  0.00  0.00    -0.304 N 
ATOM     26  H   UNL     1      -7.400  -5.089   2.555  0.00  0.00    +0.149 HD
BRANCH  25  27
ATOM     27  C   UNL     1      -9.332  -4.660   3.324  0.00  0.00    +0.179 C 
BRANCH  27  28
ATOM     28  C   UNL     1      -9.134  -5.860   4.213  0.00  0.00    +0.122 A 
ATOM     29  C   UNL     1      -8.590  -5.845   5.444  0.00  0.00    +0.046 A 
ATOM     30  C   UNL     1      -8.600  -7.180   5.911  0.00  0.00    +0.041 A 
ATOM     31  C   UNL     1      -9.149  -7.929   4.939  0.00  0.00    +0.195 A 
ATOM     32  O   UNL     1      -9.476  -7.124   3.915  0.00  0.00    -0.466 OA
ENDBRANCH  27  28
ENDBRANCH  25  27
ENDBRANCH   3  23
BRANCH   2  33
ATOM     33  N   UNL     1      -5.612  -1.812   2.217  0.00  0.00    -0.343 N 
ATOM     34  H   UNL     1      -4.795  -1.307   2.355  0.00  0.00    +0.144 HD
ATOM     35  H   UNL     1      -6.300  -1.817   2.900  0.00  0.00    +0.144 HD
ENDBRANCH   2  33
TORSDOF 6
