REMARK  Name = ZINC40720532
REMARK  12 active torsions:
REMARK  status: ('A' for Active; 'I' for Inactive)
REMARK    1  A    between atoms: C_1  and  C_2
REMARK    2  A    between atoms: C_2  and  N_3
REMARK    3  A    between atoms: C_7  and  C_9
REMARK    4  A    between atoms: C_9  and  N_10
REMARK    5  A    between atoms: N_10  and  C_11
REMARK    6  A    between atoms: C_11  and  C_12
REMARK    7  A    between atoms: C_14  and  O_29
REMARK    8  A    between atoms: C_15  and  O_19
REMARK    9  A    between atoms: O_19  and  C_20
REMARK   10  A    between atoms: C_20  and  C_21
REMARK   11  A    between atoms: O_29  and  C_30
REMARK   12  A    between atoms: C_30  and  C_31
REMARK                            x       y       z     vdW  Elec       q    Type
REMARK                         _______ _______ _______ _____ _____    ______ ____
ROOT
ATOM      1  C   UNL     1      -1.674  -0.993  -5.007  0.00  0.00    -0.059 A 
ATOM      2  C   UNL     1      -2.131   0.281  -5.293  0.00  0.00    +0.051 A 
ATOM      3  C   UNL     1      -1.566   1.003  -6.332  0.00  0.00    +0.164 A 
ATOM      4  C   UNL     1      -0.539   0.444  -7.086  0.00  0.00    +0.181 A 
ATOM      5  C   UNL     1      -0.085  -0.833  -6.794  0.00  0.00    +0.086 A 
ATOM      6  C   UNL     1      -0.650  -1.547  -5.752  0.00  0.00    +0.025 A 
ATOM      7 CL   UNL     1       1.196  -1.535  -7.733  0.00  0.00    -0.080 Cl
ENDROOT
BRANCH   1   8
ATOM      8  C   UNL     1      -2.290  -1.776  -3.877  0.00  0.00    -0.047 C 
BRANCH   8   9
ATOM      9  N   UNL     1      -1.562  -1.495  -2.632  0.00  0.00    +0.383 N 
ATOM     10  H   UNL     1      -1.617  -0.509  -2.426  0.00  0.00    -0.085 HD
ATOM     11  H   UNL     1      -0.596  -1.764  -2.740  0.00  0.00    -0.085 HD
BRANCH   9  12
ATOM     12  C   UNL     1      -2.163  -2.259  -1.530  0.00  0.00    -0.063 C 
BRANCH  12  17
ATOM     13  N   UNL     1      -1.376  -0.512   0.012  0.00  0.00    -0.301 NA
ATOM     14  C   UNL     1      -2.031  -0.242   1.310  0.00  0.00    +0.084 C 
ATOM     15  C   UNL     1      -2.976  -1.449   1.535  0.00  0.00    +0.017 C 
ATOM     16  C   UNL     1      -2.134  -2.618   0.959  0.00  0.00    +0.018 C 
ATOM     17  C   UNL     1      -1.405  -1.966  -0.234  0.00  0.00    +0.040 C 
BRANCH  13  19
ATOM     18  C   UNL     1      -0.019   1.526   0.010  0.00  0.00    +0.020 C 
ATOM     19  C   UNL     1       0.002  -0.004   0.002  0.00  0.00    +0.081 C 
ENDBRANCH  13  19
ENDBRANCH  12  17
ENDBRANCH   9  12
ENDBRANCH   8   9
ENDBRANCH   1   8
BRANCH   4  20
ATOM     20  O   UNL     1       0.018   1.149  -8.107  0.00  0.00    -0.482 OA
BRANCH  20  21
ATOM     21  C   UNL     1       1.141   1.974  -7.789  0.00  0.00    +0.266 C 
BRANCH  21  22
ATOM     22  C   UNL     1       1.620   2.672  -9.036  0.00  0.00    +0.008 A 
ATOM     23  C   UNL     1       0.973   2.460 -10.239  0.00  0.00    +0.011 A 
ATOM     24  C   UNL     1       1.411   3.099 -11.383  0.00  0.00    +0.039 A 
ATOM     25  C   UNL     1       2.499   3.954 -11.324  0.00  0.00    +0.125 A 
ATOM     26  C   UNL     1       3.147   4.167 -10.120  0.00  0.00    +0.058 A 
ATOM     27  C   UNL     1       2.703   3.530  -8.975  0.00  0.00    +0.050 A 
ATOM     28 CL   UNL     1       3.511   3.801  -7.462  0.00  0.00    -0.083 Cl
ATOM     29  F   UNL     1       2.928   4.579 -12.442  0.00  0.00    -0.205 F 
ENDBRANCH  21  22
ENDBRANCH  20  21
ENDBRANCH   4  20
BRANCH   3  30
ATOM     30  O   UNL     1      -2.015   2.255  -6.614  0.00  0.00    -0.489 OA
BRANCH  30  31
ATOM     31  C   UNL     1      -3.072   2.764  -5.799  0.00  0.00    +0.226 C 
ATOM     32  C   UNL     1      -3.441   4.175  -6.264  0.00  0.00    +0.048 C 
ENDBRANCH  30  31
ENDBRANCH   3  30
TORSDOF 10
