REMARK  Name = ZINC39686446
REMARK  8 active torsions:
REMARK  status: ('A' for Active; 'I' for Inactive)
REMARK    1  A    between atoms: C_1  and  C_2
REMARK    2  A    between atoms: C_2  and  C_4
REMARK    3  A    between atoms: C_2  and  N_13
REMARK    4  A    between atoms: C_4  and  C_5
REMARK    5  A    between atoms: C_10  and  O_11
REMARK    6  A    between atoms: O_11  and  C_12
REMARK    7  A    between atoms: C_14  and  C_16
REMARK    8  A    between atoms: C_27  and  C_29
REMARK                            x       y       z     vdW  Elec       q    Type
REMARK                         _______ _______ _______ _____ _____    ______ ____
ROOT
ATOM      1  C   UNL     1       0.373  -1.529   3.258  0.00  0.00    +0.100 C 
ATOM      2  C   UNL     1       1.079  -2.903   3.230  0.00  0.00    +0.121 C 
ATOM      3  N   UNL     1       0.901  -3.442   4.599  0.00  0.00    -0.296 N 
ATOM      4  C   UNL     1      -0.480  -3.055   4.972  0.00  0.00    +0.115 C 
ATOM      5  C   UNL     1      -0.650  -1.633   4.401  0.00  0.00    -0.004 C 
ATOM      6  C   UNL     1      -2.066  -1.446   3.863  0.00  0.00    -0.010 C 
ATOM      7  C   UNL     1      -3.060  -1.496   5.026  0.00  0.00    -0.082 C 
ATOM      8  N   UNL     1      -2.739  -0.438   5.992  0.00  0.00    +0.379 N 
ATOM      9  C   UNL     1      -1.413  -0.677   6.574  0.00  0.00    -0.082 C 
ATOM     10  C   UNL     1      -0.349  -0.593   5.476  0.00  0.00    -0.010 C 
ATOM     11  C   UNL     1       1.794  -4.129   5.338  0.00  0.00    +0.247 C 
ATOM     12  O   UNL     1       2.932  -4.275   4.936  0.00  0.00    -0.270 OA
ATOM     13  H   UNL     1      -2.743   0.456   5.524  0.00  0.00    -0.086 HD
ATOM     14  H   UNL     1      -3.431  -0.433   6.726  0.00  0.00    -0.086 HD
ENDROOT
BRANCH  11  15
ATOM     15  C   UNL     1       1.390  -4.706   6.638  0.00  0.00    +0.038 A 
ATOM     16  C   UNL     1       0.042  -4.946   6.910  0.00  0.00    +0.013 A 
ATOM     17  C   UNL     1      -0.329  -5.484   8.125  0.00  0.00    +0.002 A 
ATOM     18  C   UNL     1       0.632  -5.785   9.074  0.00  0.00    +0.015 A 
ATOM     19  C   UNL     1       1.971  -5.550   8.812  0.00  0.00    +0.019 A 
ATOM     20  C   UNL     1       2.356  -5.018   7.597  0.00  0.00    +0.028 A 
ATOM     21 BR   UNL     1       3.275  -5.964  10.116  0.00  0.00    -0.050 Br
ENDBRANCH  11  15
BRANCH   1  23
ATOM     22  N   UNL     1      -0.501  -0.009   1.513  0.00  0.00    -0.312 N 
ATOM     23  C   UNL     1      -0.328  -1.273   1.948  0.00  0.00    +0.218 C 
ATOM     24  O   UNL     1      -0.737  -2.204   1.287  0.00  0.00    -0.275 OA
ATOM     25  H   UNL     1      -0.174   0.736   2.042  0.00  0.00    +0.149 HD
BRANCH  22  27
ATOM     26  C   UNL     1      -2.695   0.267   0.468  0.00  0.00    +0.028 C 
ATOM     27  C   UNL     1      -1.183   0.240   0.240  0.00  0.00    +0.074 C 
BRANCH  27  28
ATOM     28  C   UNL     1      -0.728   1.586  -0.327  0.00  0.00    +0.060 C 
BRANCH  28  29
ATOM     29  C   UNL     1       0.739   1.519  -0.667  0.00  0.00    -0.004 A 
ATOM     30  C   UNL     1       1.681   1.953   0.246  0.00  0.00    +0.007 A 
ATOM     31  C   UNL     1       3.026   1.891  -0.065  0.00  0.00    +0.000 A 
ATOM     32  C   UNL     1       3.433   1.395  -1.290  0.00  0.00    +0.004 A 
ATOM     33  C   UNL     1       2.496   0.960  -2.206  0.00  0.00    +0.046 A 
ATOM     34  C   UNL     1       1.145   1.015  -1.894  0.00  0.00    +0.123 A 
BRANCH  34  35
ATOM     35  O   UNL     1       0.221   0.582  -2.791  0.00  0.00    -0.495 OA
ATOM     36  C   UNL     1       0.711   0.076  -4.035  0.00  0.00    +0.277 C 
ENDBRANCH  34  35
ENDBRANCH  28  29
ENDBRANCH  27  28
ENDBRANCH  22  27
ENDBRANCH   1  23
TORSDOF 6
