REMARK  Name = ZINC59121695
REMARK  10 active torsions:
REMARK  status: ('A' for Active; 'I' for Inactive)
REMARK    1  A    between atoms: C_1  and  C_2
REMARK    2  A    between atoms: C_2  and  C_3
REMARK    3  A    between atoms: C_3  and  N_4
REMARK    4  A    between atoms: N_4  and  C_5
REMARK    5  A    between atoms: N_4  and  C_17
REMARK    6  A    between atoms: C_5  and  C_6
REMARK    7  A    between atoms: N_8  and  C_9
REMARK    8  A    between atoms: C_10  and  C_14
REMARK    9  A    between atoms: C_17  and  C_19
REMARK   10  A    between atoms: C_17  and  C_20
REMARK                            x       y       z     vdW  Elec       q    Type
REMARK                         _______ _______ _______ _____ _____    ______ ____
ROOT
ATOM      1  C   UNL     1       1.626  -2.350  -0.020  0.00  0.00    +0.020 C 
ENDROOT
BRANCH   1   2
ATOM      2  C   UNL     1       1.077  -1.745  -1.286  0.00  0.00    +0.201 C 
ATOM      3  O   UNL     1       0.025  -1.143  -1.265  0.00  0.00    -0.278 OA
ATOM      4  N   UNL     1       1.757  -1.872  -2.443  0.00  0.00    -0.281 N 
ATOM      5  H   UNL     1       2.599  -2.353  -2.461  0.00  0.00    +0.155 HD
BRANCH   4   6
ATOM      6  C   UNL     1       1.253  -1.315  -3.609  0.00  0.00    +0.084 A 
ATOM      7  C   UNL     1       1.807  -1.350  -4.880  0.00  0.00    +0.065 A 
ATOM      8  C   UNL     1       1.066  -0.682  -5.926  0.00  0.00    +0.022 A 
ATOM      9  C   UNL     1      -0.085  -0.098  -5.548  0.00  0.00    +0.048 A 
ATOM     10  S   UNL     1      -0.171  -0.450  -3.806  0.00  0.00    -0.081 S 
BRANCH   7  11
ATOM     11  C   UNL     1       3.079  -2.029  -5.148  0.00  0.00    +0.244 C 
ATOM     12  O   UNL     1       3.676  -2.581  -4.243  0.00  0.00    -0.270 OA
ATOM     13  N   UNL     1       3.585  -2.041  -6.397  0.00  0.00    -0.325 N 
ATOM     14  H   UNL     1       3.109  -1.601  -7.118  0.00  0.00    +0.145 HD
ATOM     15  H   UNL     1       4.427  -2.490  -6.574  0.00  0.00    +0.145 HD
ENDBRANCH   7  11
ENDBRANCH   4   6
ENDBRANCH   1   2
BRANCH   1  16
ATOM     16  N   UNL     1       0.787  -1.948   1.117  0.00  0.00    +0.390 N 
ATOM     17  H   UNL     1      -0.177  -2.169   0.919  0.00  0.00    -0.080 HD
BRANCH  16  18
ATOM     18  C   UNL     1       1.216  -2.672   2.322  0.00  0.00    -0.039 C 
ATOM     19  C   UNL     1       0.343  -2.254   3.506  0.00  0.00    -0.008 C 
BRANCH  18  20
ATOM     20  C   UNL     1       1.077  -4.155   2.093  0.00  0.00    -0.047 A 
ATOM     21  C   UNL     1       0.248  -4.625   1.091  0.00  0.00    +0.003 A 
ATOM     22  C   UNL     1       0.120  -5.985   0.881  0.00  0.00    +0.000 A 
ATOM     23  C   UNL     1       0.821  -6.876   1.673  0.00  0.00    +0.001 A 
ATOM     24  C   UNL     1       1.649  -6.407   2.675  0.00  0.00    +0.015 A 
ATOM     25  C   UNL     1       1.781  -5.046   2.883  0.00  0.00    +0.019 A 
ATOM     26 BR   UNL     1       2.920  -4.403   4.249  0.00  0.00    -0.050 Br
ENDBRANCH  18  20
ENDBRANCH  16  18
BRANCH  16  27
ATOM     27  C   UNL     1       0.924  -0.503   1.340  0.00  0.00    -0.078 C 
BRANCH  27  29
ATOM     28  C   UNL     1       2.511   1.324   1.962  0.00  0.00    +0.002 C 
ATOM     29  C   UNL     1       2.356  -0.187   1.775  0.00  0.00    -0.022 C 
ENDBRANCH  27  29
ENDBRANCH  16  27
ENDBRANCH   1  16
TORSDOF 8
