REMARK  Name = ZINC34749982
REMARK  9 active torsions:
REMARK  status: ('A' for Active; 'I' for Inactive)
REMARK    1  A    between atoms: C_1  and  C_2
REMARK    2  A    between atoms: C_2  and  C_3
REMARK    3  A    between atoms: C_3  and  S_4
REMARK    4  A    between atoms: S_4  and  C_5
REMARK    5  A    between atoms: C_16  and  C_18
REMARK    6  A    between atoms: C_16  and  C_19
REMARK    7  A    between atoms: N_23  and  C_26
REMARK    8  A    between atoms: C_26  and  C_27
REMARK    9  A    between atoms: N_29  and  C_30
REMARK                            x       y       z     vdW  Elec       q    Type
REMARK                         _______ _______ _______ _____ _____    ______ ____
ROOT
ATOM      1  C   UNL     1      -4.265  -2.535  -1.155  0.00  0.00    +0.191 A 
ATOM      2  N   UNL     1      -4.559  -3.830  -1.113  0.00  0.00    -0.206 NA
ATOM      3  C   UNL     1      -4.708  -4.480   0.029  0.00  0.00    +0.134 A 
ATOM      4  C   UNL     1      -4.549  -3.777   1.256  0.00  0.00    +0.051 A 
ATOM      5  C   UNL     1      -4.666  -4.282   2.623  0.00  0.00    -0.020 A 
ATOM      6  C   UNL     1      -4.465  -3.398   3.624  0.00  0.00    +0.021 A 
ATOM      7  S   UNL     1      -4.111  -1.862   2.819  0.00  0.00    -0.071 S 
ATOM      8  C   UNL     1      -4.236  -2.408   1.135  0.00  0.00    +0.115 A 
ATOM      9  N   UNL     1      -4.099  -1.831  -0.043  0.00  0.00    -0.215 NA
ATOM     10  C   UNL     1      -4.535  -3.690   5.091  0.00  0.00    +0.203 C 
ATOM     11  O   UNL     1      -5.160  -4.973   5.257  0.00  0.00    -0.368 OA
ATOM     12  C   UNL     1      -4.607  -5.988   4.415  0.00  0.00    +0.068 C 
ATOM     13  C   UNL     1      -4.998  -5.734   2.957  0.00  0.00    +0.071 C 
ATOM     14  C   UNL     1      -3.082  -5.977   4.541  0.00  0.00    +0.041 C 
ATOM     15  C   UNL     1      -5.139  -7.354   4.853  0.00  0.00    +0.041 C 
ATOM     16  N   UNL     1      -5.016  -5.828   0.030  0.00  0.00    -0.318 N 
ATOM     17  C   UNL     1      -6.409  -6.286   0.145  0.00  0.00    +0.088 C 
ATOM     18  C   UNL     1      -6.682  -7.295  -0.975  0.00  0.00    -0.059 C 
ATOM     19  N   UNL     1      -5.684  -8.371  -0.918  0.00  0.00    +0.387 N 
ATOM     20  C   UNL     1      -4.348  -7.828  -1.194  0.00  0.00    -0.059 C 
ATOM     21  C   UNL     1      -3.959  -6.845  -0.090  0.00  0.00    +0.088 C 
ATOM     22  H   UNL     1      -5.694  -8.788  -0.000  0.00  0.00    -0.081 HD
ENDROOT
BRANCH   1  23
ATOM     23  S   UNL     1      -4.083  -1.740  -2.717  0.00  0.00    -0.086 S 
BRANCH  23  24
ATOM     24  C   UNL     1      -3.683  -0.023  -2.291  0.00  0.00    +0.077 C 
BRANCH  24  26
ATOM     25  C   UNL     1      -3.160   2.239  -3.215  0.00  0.00    +0.004 C 
ATOM     26  C   UNL     1      -3.497   0.790  -3.574  0.00  0.00    +0.008 C 
ENDBRANCH  24  26
ENDBRANCH  23  24
ENDBRANCH   1  23
BRANCH  19  27
ATOM     27  C   UNL     1      -6.011  -9.393  -1.921  0.00  0.00    +0.019 C 
BRANCH  27  28
ATOM     28  C   UNL     1      -5.061 -10.555  -1.782  0.00  0.00    +0.197 C 
ATOM     29  O   UNL     1      -4.197 -10.533  -0.932  0.00  0.00    -0.278 OA
ATOM     30  N   UNL     1      -5.172 -11.618  -2.603  0.00  0.00    -0.314 N 
ATOM     31  H   UNL     1      -5.863 -11.635  -3.283  0.00  0.00    +0.149 HD
BRANCH  30  32
ATOM     32  C   UNL     1      -4.248 -12.747  -2.468  0.00  0.00    +0.073 C 
ATOM     33  C   UNL     1      -2.970 -12.457  -3.256  0.00  0.00    +0.022 C 
ATOM     34  C   UNL     1      -2.005 -13.636  -3.115  0.00  0.00    +0.002 C 
ATOM     35  C   UNL     1      -2.665 -14.903  -3.663  0.00  0.00    +0.000 C 
ATOM     36  C   UNL     1      -3.944 -15.194  -2.874  0.00  0.00    +0.002 C 
ATOM     37  C   UNL     1      -4.909 -14.014  -3.015  0.00  0.00    +0.022 C 
ENDBRANCH  30  32
ENDBRANCH  27  28
ENDBRANCH  19  27
TORSDOF 6
