REMARK  Name = ZINC06169232
REMARK  10 active torsions:
REMARK  status: ('A' for Active; 'I' for Inactive)
REMARK    1  A    between atoms: C_1  and  N_41
REMARK    2  A    between atoms: C_2  and  N_41
REMARK    3  A    between atoms: C_3  and  C_4
REMARK    4  A    between atoms: C_3  and  N_41
REMARK    5  A    between atoms: C_5  and  O_22
REMARK    6  A    between atoms: C_8  and  C_11
REMARK    7  A    between atoms: C_9  and  O_10
REMARK    8  A    between atoms: C_11  and  C_13
REMARK    9  A    between atoms: C_13  and  O_14
REMARK   10  A    between atoms: O_14  and  C_15
REMARK                            x       y       z     vdW  Elec       q    Type
REMARK                         _______ _______ _______ _____ _____    ______ ____
ROOT
ATOM      1  C   UNL     1       1.841   1.829  -1.202  0.00  0.00    +0.020 A 
ATOM      2  C   UNL     1       3.101   2.411  -1.204  0.00  0.00    +0.122 A 
ATOM      3  C   UNL     1       3.746   2.697  -0.004  0.00  0.00    +0.046 A 
ATOM      4  C   UNL     1       3.146   2.409   1.188  0.00  0.00    +0.019 A 
ATOM      5  C   UNL     1       1.872   1.827   1.210  0.00  0.00    +0.063 A 
ATOM      6  C   UNL     1       1.220   1.531  -0.001  0.00  0.00    +0.132 A 
ENDROOT
BRANCH   6   7
ATOM      7  O   UNL     1      -0.011   0.963   0.007  0.00  0.00    -0.506 OA
ATOM      8  H   UNL     1       0.002  -0.004   0.002  0.00  0.00    +0.292 HD
ENDBRANCH   6   7
BRANCH   5   9
ATOM      9  C   UNL     1       1.224   1.522   2.488  0.00  0.00    +0.204 C 
ATOM     10  O   UNL     1       0.122   1.013   2.503  0.00  0.00    -0.288 OA
BRANCH   9  11
ATOM     11  C   UNL     1       1.925   1.840   3.783  0.00  0.00    +0.308 C 
BRANCH  11  12
ATOM     12  O   UNL     1       1.097   1.452   4.881  0.00  0.00    -0.483 OA
BRANCH  12  13
ATOM     13  C   UNL     1       1.585   1.672   6.130  0.00  0.00    +0.135 A 
ATOM     14  C   UNL     1       2.838   2.243   6.296  0.00  0.00    +0.047 A 
ATOM     15  C   UNL     1       3.330   2.471   7.567  0.00  0.00    +0.004 A 
ATOM     16  C   UNL     1       2.579   2.120   8.673  0.00  0.00    +0.001 A 
ATOM     17  C   UNL     1       1.333   1.545   8.512  0.00  0.00    +0.019 A 
ATOM     18  C   UNL     1       0.833   1.320   7.243  0.00  0.00    +0.059 A 
ATOM     19 BR   UNL     1      -0.872   0.533   7.022  0.00  0.00    -0.047 Br
ENDBRANCH  12  13
ENDBRANCH  11  12
ENDBRANCH   9  11
ENDBRANCH   5   9
BRANCH   2  20
ATOM     20  O   UNL     1       3.708   2.702  -2.382  0.00  0.00    -0.506 OA
ATOM     21  H   UNL     1       3.513   3.588  -2.716  0.00  0.00    +0.292 HD
ENDBRANCH   2  20
BRANCH   1  22
ATOM     22  C   UNL     1       1.149   1.523  -2.505  0.00  0.00    -0.036 C 
BRANCH  22  25
ATOM     23  C   UNL     1       1.201   3.831  -3.237  0.00  0.00    -0.096 C 
ATOM     24  C   UNL     1      -0.527   2.342  -4.049  0.00  0.00    -0.096 C 
ATOM     25  N   UNL     1       0.327   2.689  -2.894  0.00  0.00    +0.379 N 
ATOM     26  H   UNL     1      -0.272   2.953  -2.103  0.00  0.00    -0.082 HD
ENDBRANCH  22  25
ENDBRANCH   1  22
TORSDOF 8
