REMARK  Name = ZINC04533843
REMARK  12 active torsions:
REMARK  status: ('A' for Active; 'I' for Inactive)
REMARK    1  A    between atoms: CB_1  and  CA_2
REMARK    2  A    between atoms: CB_1  and  CG_26
REMARK    3  A    between atoms: CA_2  and  C_4
REMARK    4  A    between atoms: CA_2  and  N_25
REMARK    5  A    between atoms: N_6  and  CA_7
REMARK    6  A    between atoms: CA_7  and  CB_9
REMARK    7  A    between atoms: CA_7  and  C_13
REMARK    8  A    between atoms: CB_9  and  CG_10
REMARK    9  A    between atoms: N_15  and  CA_16
REMARK   10  A    between atoms: CA_16  and  CB_18
REMARK   11  A    between atoms: CA_16  and  C_22
REMARK   12  A    between atoms: CB_18  and  CG_19
REMARK                            x       y       z     vdW  Elec       q    Type
REMARK                         _______ _______ _______ _____ _____    ______ ____
ROOT
ATOM      1  CA  ASP A   2      -3.353  -1.030   1.583  0.00  0.00    +0.169 C 
ENDROOT
BRANCH   1   4
ATOM      2  C   ASP A   1      -1.686   0.606   0.890  0.00  0.00    +0.200 C 
ATOM      3  O   ASP A   1      -2.568   1.231   0.341  0.00  0.00    -0.278 OA
ATOM      4  N   ASP A   2      -1.967  -0.565   1.495  0.00  0.00    -0.305 N 
ATOM      5  H   ASP A   2      -1.251  -1.100   1.873  0.00  0.00    +0.149 HD
BRANCH   2   6
ATOM      6  CA  ASP A   1      -0.276   1.137   0.895  0.00  0.00    +0.023 C 
BRANCH   6   7
ATOM      7  N   ASP A   1      -0.119   2.120  -0.185  0.00  0.00    +0.386 N 
ATOM      8  H1  ASP A   1      -0.308   1.678  -1.072  0.00  0.00    -0.089 HD
ATOM      9  H2  ASP A   1      -0.766   2.882  -0.044  0.00  0.00    -0.089 HD
ATOM     10  H3  ASP A   1       0.825   2.477  -0.182  0.00  0.00    -0.089 HD
ENDBRANCH   6   7
BRANCH   6  11
ATOM     11  CB  ASP A   1       0.011   1.808   2.240  0.00  0.00    +0.118 C 
BRANCH  11  12
ATOM     12  CG  ASP A   1       1.457   2.230   2.292  0.00  0.00    +0.355 C 
ATOM     13  OD1 ASP A   1       2.190   2.015   1.342  0.00  0.00    -0.246 OA
ATOM     14  OD2 ASP A   1       1.894   2.787   3.285  0.00  0.00    -0.246 OA
ENDBRANCH  11  12
ENDBRANCH   6  11
ENDBRANCH   2   6
ENDBRANCH   1   4
BRANCH   1  15
ATOM     15  C   ASP A   2      -4.038  -0.353   2.741  0.00  0.00    +0.235 C 
ATOM     16  O   ASP A   2      -3.429   0.441   3.426  0.00  0.00    -0.274 OA
ATOM     17  N   ASP A   3      -5.329  -0.628   3.016  0.00  0.00    -0.300 N 
ATOM     18  H   ASP A   3      -5.816  -1.263   2.468  0.00  0.00    +0.150 HD
BRANCH  17  19
ATOM     19  CA  ASP A   3      -5.995   0.030   4.142  0.00  0.00    +0.197 C 
BRANCH  19  20
ATOM     20  C   ASP A   3      -5.712  -0.734   5.410  0.00  0.00    +0.376 C 
ATOM     21  O   ASP A   3      -5.669  -0.148   6.478  0.00  0.00    -0.244 OA
ATOM     22  OXT ASP A   3      -5.526  -1.938   5.367  0.00  0.00    -0.244 OA
ENDBRANCH  19  20
BRANCH  19  23
ATOM     23  CB  ASP A   3      -7.504   0.065   3.893  0.00  0.00    +0.159 C 
BRANCH  23  24
ATOM     24  CG  ASP A   3      -7.796   0.931   2.695  0.00  0.00    +0.358 C 
ATOM     25  OD1 ASP A   3      -6.882   1.471   2.096  0.00  0.00    -0.246 OA
ATOM     26  OD2 ASP A   3      -8.947   1.091   2.325  0.00  0.00    -0.246 OA
ENDBRANCH  23  24
ENDBRANCH  19  23
ENDBRANCH  17  19
ENDBRANCH   1  15
BRANCH   1  27
ATOM     27  CB  ASP A   2      -3.370  -2.546   1.796  0.00  0.00    +0.156 C 
BRANCH  27  28
ATOM     28  CG  ASP A   2      -2.810  -3.231   0.576  0.00  0.00    +0.358 C 
ATOM     29  OD1 ASP A   2      -2.526  -2.577  -0.414  0.00  0.00    -0.246 OA
ATOM     30  OD2 ASP A   2      -2.640  -4.438   0.579  0.00  0.00    -0.246 OA
ENDBRANCH  27  28
ENDBRANCH   1  27
TORSDOF 12
