REMARK  Name = ZINC59170716
REMARK  7 active torsions:
REMARK  status: ('A' for Active; 'I' for Inactive)
REMARK    1  A    between atoms: C_3  and  N_10
REMARK    2  A    between atoms: C_5  and  N_7
REMARK    3  A    between atoms: C_11  and  C_13
REMARK    4  A    between atoms: C_17  and  N_34
REMARK    5  A    between atoms: N_23  and  C_24
REMARK    6  A    between atoms: C_27  and  S_30
REMARK    7  A    between atoms: S_30  and  N_33
REMARK                            x       y       z     vdW  Elec       q    Type
REMARK                         _______ _______ _______ _____ _____    ______ ____
ROOT
ATOM      1  C   UNL     1       4.818   4.190  -0.284  0.00  0.00    +0.098 A 
ATOM      2  C   UNL     1       4.823   5.578  -0.266  0.00  0.00    +0.030 A 
ATOM      3  C   UNL     1       6.124   6.248  -0.335  0.00  0.00    +0.020 A 
ATOM      4  C   UNL     1       6.242   7.615  -0.057  0.00  0.00    +0.044 A 
ATOM      5  C   UNL     1       7.468   8.216  -0.124  0.00  0.00    +0.127 A 
ATOM      6  C   UNL     1       8.595   7.483  -0.466  0.00  0.00    +0.036 A 
ATOM      7  C   UNL     1       8.499   6.134  -0.745  0.00  0.00    +0.049 A 
ATOM      8  C   UNL     1       7.266   5.503  -0.684  0.00  0.00    +0.138 A 
ATOM      9  O   UNL     1       7.151   4.181  -0.962  0.00  0.00    -0.439 OA
ATOM     10  C   UNL     1       6.128   3.514  -0.364  0.00  0.00    +0.212 A 
ATOM     11  N   UNL     1       6.297   2.304   0.123  0.00  0.00    -0.325 N 
ATOM     12  H   UNL     1       5.590   1.885   0.637  0.00  0.00    +0.169 HD
ENDROOT
BRANCH  11  13
ATOM     13  C   UNL     1       7.470   1.636  -0.096  0.00  0.00    +0.042 A 
ATOM     14  C   UNL     1       8.048   1.631  -1.369  0.00  0.00    +0.027 A 
ATOM     15  C   UNL     1       9.232   0.956  -1.582  0.00  0.00    +0.030 A 
ATOM     16  C   UNL     1       9.846   0.284  -0.541  0.00  0.00    +0.105 A 
ATOM     17  C   UNL     1       9.280   0.284   0.722  0.00  0.00    +0.030 A 
ATOM     18  C   UNL     1       8.100   0.961   0.952  0.00  0.00    +0.027 A 
BRANCH  16  19
ATOM     19  S   UNL     1      11.358  -0.577  -0.823  0.00  0.00    +0.056 S 
ATOM     20  O   UNL     1      11.448  -1.579   0.180  0.00  0.00    -0.153 OA
ATOM     21  O   UNL     1      11.398  -0.882  -2.211  0.00  0.00    -0.153 OA
BRANCH  19  22
ATOM     22  N   UNL     1      12.590   0.492  -0.538  0.00  0.00    -0.204 NA
ATOM     23  H   UNL     1      12.390   1.402  -0.268  0.00  0.00    +0.144 HD
ATOM     24  H   UNL     1      13.512   0.208  -0.640  0.00  0.00    +0.144 HD
ENDBRANCH  19  22
ENDBRANCH  16  19
ENDBRANCH  11  13
BRANCH   1  26
ATOM     25  N   UNL     1       3.578   2.086  -0.376  0.00  0.00    -0.281 N 
ATOM     26  C   UNL     1       3.561   3.425  -0.219  0.00  0.00    +0.253 C 
ATOM     27  O   UNL     1       2.508   4.001  -0.024  0.00  0.00    -0.270 OA
ATOM     28  H   UNL     1       4.423   1.621  -0.478  0.00  0.00    +0.155 HD
BRANCH  25  31
ATOM     29  C   UNL     1       0.134   1.058   0.394  0.00  0.00    +0.004 A 
ATOM     30  C   UNL     1       1.318   1.769   0.412  0.00  0.00    +0.023 A 
ATOM     31  C   UNL     1       2.378   1.369  -0.391  0.00  0.00    +0.036 A 
ATOM     32  C   UNL     1       2.244   0.254  -1.209  0.00  0.00    +0.056 A 
ATOM     33  C   UNL     1       1.057  -0.452  -1.222  0.00  0.00    +0.128 A 
ATOM     34  C   UNL     1       0.003  -0.051  -0.422  0.00  0.00    +0.033 A 
BRANCH  33  35
ATOM     35  N   UNL     1       0.913  -1.639  -2.094  0.00  0.00    +0.056 N 
ATOM     36  O   UNL     1       1.834  -1.990  -2.794  0.00  0.00    -0.126 OA
ATOM     37  O   UNL     1      -0.126  -2.258  -2.106  0.00  0.00    -0.126 OA
ENDBRANCH  33  35
ENDBRANCH  25  31
ENDBRANCH   1  26
BRANCH   5  38
ATOM     38  N   UNL     1       7.593   9.661   0.169  0.00  0.00    +0.056 N 
ATOM     39  O   UNL     1       6.614  10.305   0.467  0.00  0.00    -0.126 OA
ATOM     40  O   UNL     1       8.675  10.198   0.111  0.00  0.00    -0.126 OA
ENDBRANCH   5  38
TORSDOF 7
