REMARK  Name = ZINC46289809
REMARK  12 active torsions:
REMARK  status: ('A' for Active; 'I' for Inactive)
REMARK    1  A    between atoms: C_1  and  C_2
REMARK    2  A    between atoms: C_5  and  C_28
REMARK    3  A    between atoms: N_8  and  C_10
REMARK    4  A    between atoms: C_10  and  C_11
REMARK    5  A    between atoms: C_11  and  C_12
REMARK    6  A    between atoms: C_12  and  C_13
REMARK    7  A    between atoms: C_13  and  N_14
REMARK    8  A    between atoms: N_17  and  C_18
REMARK    9  A    between atoms: C_18  and  C_19
REMARK   10  A    between atoms: C_24  and  N_25
REMARK   11  A    between atoms: N_25  and  C_26
REMARK   12  A    between atoms: N_25  and  C_27
REMARK                            x       y       z     vdW  Elec       q    Type
REMARK                         _______ _______ _______ _____ _____    ______ ____
ROOT
ATOM      1  N   UNL     1       2.146   0.449   7.672  0.00  0.00    -0.299 N 
ATOM      2  C   UNL     1       1.961   0.892   8.932  0.00  0.00    +0.300 C 
ATOM      3  O   UNL     1       1.139   1.759   9.158  0.00  0.00    -0.253 OA
ATOM      4  N   UNL     1       2.688   0.373   9.941  0.00  0.00    -0.295 N 
ATOM      5  H   UNL     1       2.801  -0.242   7.492  0.00  0.00    +0.150 HD
ATOM      6  H   UNL     1       3.344  -0.319   9.761  0.00  0.00    +0.151 HD
ENDROOT
BRANCH   1   7
ATOM      7  C   UNL     1       1.356   1.013   6.575  0.00  0.00    +0.105 C 
BRANCH   7   8
ATOM      8  C   UNL     1       1.758   0.342   5.260  0.00  0.00    +0.017 C 
BRANCH   8   9
ATOM      9  C   UNL     1       0.933   0.931   4.114  0.00  0.00    -0.017 C 
BRANCH   9  10
ATOM     10  C   UNL     1       1.335   0.260   2.799  0.00  0.00    -0.079 C 
BRANCH  10  16
ATOM     11  C   UNL     1      -1.534   2.667   0.853  0.00  0.00    +0.005 C 
ATOM     12  C   UNL     1      -1.713   1.149   0.797  0.00  0.00    -0.031 C 
ATOM     13  C   UNL     1      -1.251   0.630  -0.568  0.00  0.00    +0.003 C 
ATOM     14  C   UNL     1       0.244   0.915  -0.732  0.00  0.00    -0.031 C 
ATOM     15  C   UNL     1       1.011   0.269   0.424  0.00  0.00    -0.076 C 
ATOM     16  N   UNL     1       0.542   0.826   1.698  0.00  0.00    +0.380 N 
ATOM     17  C   UNL     1      -0.874   0.494   1.897  0.00  0.00    -0.076 C 
ATOM     18  C   UNL     1       0.733   0.332  -2.060  0.00  0.00    +0.005 C 
ATOM     19  H   UNL     1       0.654   1.829   1.687  0.00  0.00    -0.082 HD
ENDBRANCH  10  16
ENDBRANCH   9  10
ENDBRANCH   8   9
ENDBRANCH   7   8
ENDBRANCH   1   7
BRANCH   4  20
ATOM     20  C   UNL     1       2.487   0.854  11.311  0.00  0.00    +0.144 C 
BRANCH  20  21
ATOM     21  C   UNL     1       3.416   0.118  12.242  0.00  0.00    +0.008 A 
ATOM     22  C   UNL     1       2.940  -0.905  13.042  0.00  0.00    +0.010 A 
ATOM     23  C   UNL     1       3.830  -1.556  13.886  0.00  0.00    +0.018 A 
ATOM     24  C   UNL     1       5.154  -1.166  13.902  0.00  0.00    +0.084 A 
ATOM     25  N   UNL     1       5.580  -0.186  13.128  0.00  0.00    -0.349 N 
ATOM     26  C   UNL     1       4.764   0.455  12.306  0.00  0.00    +0.103 A 
ATOM     27  H   UNL     1       6.516   0.069  13.159  0.00  0.00    +0.167 HD
BRANCH  26  28
ATOM     28  N   UNL     1       5.256   1.477  11.503  0.00  0.00    -0.323 N 
ATOM     29  C   UNL     1       5.162   2.869  11.950  0.00  0.00    +0.130 C 
ATOM     30  C   UNL     1       5.870   1.163  10.211  0.00  0.00    +0.130 C 
ENDBRANCH  26  28
ENDBRANCH  20  21
ENDBRANCH   4  20
TORSDOF 8
