REMARK  Name = ZINC18581131
REMARK  14 active torsions:
REMARK  status: ('A' for Active; 'I' for Inactive)
REMARK    1  A    between atoms: C_1  and  C_2
REMARK    2  A    between atoms: C_2  and  C_4
REMARK    3  A    between atoms: C_2  and  S_17
REMARK    4  A    between atoms: N_6  and  C_7
REMARK    5  A    between atoms: C_11  and  S_13
REMARK    6  A    between atoms: S_13  and  N_16
REMARK    7  A    between atoms: S_17  and  C_18
REMARK    8  A    between atoms: C_21  and  C_24
REMARK    9  A    between atoms: N_22  and  N_23
REMARK   10  A    between atoms: C_24  and  O_25
REMARK   11  A    between atoms: O_25  and  C_26
REMARK   12  A    between atoms: C_29  and  C_32
REMARK   13  A    between atoms: C_32  and  C_33
REMARK   14  A    between atoms: C_32  and  C_34
REMARK                            x       y       z     vdW  Elec       q    Type
REMARK                         _______ _______ _______ _____ _____    ______ ____
ROOT
ATOM      1  S   UNL     1       0.882  -0.601   1.468  0.00  0.00    -0.072 S 
ENDROOT
BRANCH   1   2
ATOM      2  C   UNL     1       2.533  -0.027   1.238  0.00  0.00    +0.209 A 
ATOM      3  N   UNL     1       2.979   0.679   0.225  0.00  0.00    -0.121 NA
ATOM      4  N   UNL     1       4.232   0.922   0.381  0.00  0.00    -0.128 NA
ATOM      5  C   UNL     1       4.655   0.391   1.493  0.00  0.00    +0.189 A 
ATOM      6  N   UNL     1       3.587  -0.228   2.082  0.00  0.00    -0.225 N 
BRANCH   6   7
ATOM      7  N   UNL     1       3.578  -0.909   3.266  0.00  0.00    -0.295 N 
ATOM      8  H   UNL     1       3.789  -1.885   3.124  0.00  0.00    +0.163 HD
ATOM      9  H   UNL     1       4.217  -0.493   3.927  0.00  0.00    +0.163 HD
ENDBRANCH   6   7
BRANCH   5  10
ATOM     10  C   UNL     1       6.061   0.452   2.034  0.00  0.00    +0.306 C 
BRANCH  10  11
ATOM     11  O   UNL     1       6.202   1.607   2.863  0.00  0.00    -0.484 OA
BRANCH  11  12
ATOM     12  C   UNL     1       7.418   1.812   3.433  0.00  0.00    +0.121 A 
ATOM     13  C   UNL     1       8.456   0.923   3.195  0.00  0.00    +0.046 A 
ATOM     14  C   UNL     1       9.692   1.133   3.775  0.00  0.00    +0.007 A 
ATOM     15  C   UNL     1       9.895   2.229   4.594  0.00  0.00    -0.045 A 
ATOM     16  C   UNL     1       8.862   3.116   4.834  0.00  0.00    +0.007 A 
ATOM     17  C   UNL     1       7.626   2.913   4.251  0.00  0.00    +0.046 A 
BRANCH  15  18
ATOM     18  C   UNL     1      11.244   2.456   5.226  0.00  0.00    +0.013 C 
ATOM     19  C   UNL     1      11.801   3.805   4.768  0.00  0.00    +0.012 C 
ATOM     20  C   UNL     1      11.100   2.455   6.750  0.00  0.00    +0.012 C 
ENDBRANCH  15  18
ENDBRANCH  11  12
ENDBRANCH  10  11
ENDBRANCH   5  10
ENDBRANCH   1   2
BRANCH   1  22
ATOM     21  C   UNL     1      -0.030   1.532   0.018  0.00  0.00    +0.029 C 
ATOM     22  C   UNL     1      -0.000   0.002   0.002  0.00  0.00    +0.137 C 
BRANCH  22  23
ATOM     23  C   UNL     1      -1.411  -0.527   0.013  0.00  0.00    +0.230 C 
ATOM     24  O   UNL     1      -1.935  -0.837   1.062  0.00  0.00    -0.274 OA
ATOM     25  N   UNL     1      -2.090  -0.657  -1.144  0.00  0.00    -0.285 N 
ATOM     26  H   UNL     1      -1.697  -0.348  -1.975  0.00  0.00    +0.155 HD
BRANCH  25  27
ATOM     27  C   UNL     1      -3.363  -1.239  -1.147  0.00  0.00    +0.035 A 
ATOM     28  C   UNL     1      -3.765  -2.028  -2.216  0.00  0.00    +0.023 A 
ATOM     29  C   UNL     1      -5.022  -2.600  -2.216  0.00  0.00    +0.004 A 
ATOM     30  C   UNL     1      -5.880  -2.388  -1.152  0.00  0.00    +0.028 A 
ATOM     31  C   UNL     1      -5.483  -1.602  -0.086  0.00  0.00    +0.107 A 
ATOM     32  C   UNL     1      -4.224  -1.032  -0.077  0.00  0.00    +0.051 A 
BRANCH  31  33
ATOM     33  S   UNL     1      -6.579  -1.334   1.267  0.00  0.00    +0.056 S 
ATOM     34  O   UNL     1      -6.175  -0.119   1.883  0.00  0.00    -0.153 OA
ATOM     35  O   UNL     1      -7.895  -1.534   0.768  0.00  0.00    -0.153 OA
BRANCH  33  36
ATOM     36  N   UNL     1      -6.302  -2.538   2.368  0.00  0.00    -0.204 NA
ATOM     37  H   UNL     1      -6.442  -2.373   3.314  0.00  0.00    +0.144 HD
ATOM     38  H   UNL     1      -5.999  -3.410   2.068  0.00  0.00    +0.144 HD
ENDBRANCH  33  36
ENDBRANCH  31  33
ENDBRANCH  25  27
ENDBRANCH  22  23
ENDBRANCH   1  22
TORSDOF 11
