REMARK  Name = ZINC09378443
REMARK  11 active torsions:
REMARK  status: ('A' for Active; 'I' for Inactive)
REMARK    1  A    between atoms: C_6  and  C_7
REMARK    2  A    between atoms: C_8  and  C_13
REMARK    3  A    between atoms: C_13  and  N_48
REMARK    4  A    between atoms: C_14  and  C_15
REMARK    5  A    between atoms: C_14  and  N_48
REMARK    6  A    between atoms: C_15  and  C_16
REMARK    7  A    between atoms: C_16  and  C_17
REMARK    8  A    between atoms: C_17  and  C_18
REMARK    9  A    between atoms: C_18  and  C_19
REMARK   10  A    between atoms: C_20  and  C_26
REMARK   11  A    between atoms: C_21  and  N_25
REMARK                            x       y       z     vdW  Elec       q    Type
REMARK                         _______ _______ _______ _____ _____    ______ ____
ROOT
ATOM      1  N   UNL     1       7.641   1.217  -4.898  0.00  0.00    +0.382 N 
ATOM      2  H   UNL     1       7.424   0.345  -5.394  0.00  0.00    -0.085 HD
ATOM      3  H   UNL     1       7.366   2.018  -5.479  0.00  0.00    -0.085 HD
ENDROOT
BRANCH   1   4
ATOM      4  C   UNL     1       9.091   1.281  -4.636  0.00  0.00    -0.043 C 
BRANCH   4   6
ATOM      5  C   UNL     1      10.002  -0.094  -6.645  0.00  0.00    +0.094 A 
ATOM      6  C   UNL     1       9.836   1.111  -5.935  0.00  0.00    -0.019 A 
ATOM      7  C   UNL     1      10.467   2.087  -6.623  0.00  0.00    +0.107 A 
ATOM      8  N   UNL     1      11.010   1.534  -7.729  0.00  0.00    -0.284 N 
ATOM      9  H   UNL     1      11.539   2.016  -8.428  0.00  0.00    +0.188 HD
ATOM     10  N   UNL     1      10.705   0.167  -7.727  0.00  0.00    -0.174 NA
BRANCH   5  16
ATOM     11  C   UNL     1       9.569  -1.842  -4.920  0.00  0.00    +0.011 A 
ATOM     12  C   UNL     1       9.071  -3.076  -4.552  0.00  0.00    +0.020 A 
ATOM     13  C   UNL     1       8.490  -3.900  -5.500  0.00  0.00    +0.041 A 
ATOM     14  C   UNL     1       8.398  -3.490  -6.819  0.00  0.00    +0.020 A 
ATOM     15  C   UNL     1       8.888  -2.256  -7.195  0.00  0.00    +0.011 A 
ATOM     16  C   UNL     1       9.474  -1.422  -6.245  0.00  0.00    +0.002 A 
ATOM     17 CL   UNL     1       7.873  -5.455  -5.033  0.00  0.00    -0.084 Cl
ENDBRANCH   5  16
ENDBRANCH   4   6
ENDBRANCH   1   4
BRANCH   1  18
ATOM     18  C   UNL     1       6.889   1.255  -3.630  0.00  0.00    -0.082 C 
BRANCH  18  19
ATOM     19  C   UNL     1       5.391   1.188  -3.933  0.00  0.00    -0.019 C 
BRANCH  19  20
ATOM     20  C   UNL     1       4.603   1.227  -2.622  0.00  0.00    -0.001 C 
BRANCH  20  21
ATOM     21  C   UNL     1       3.105   1.159  -2.924  0.00  0.00    +0.006 C 
BRANCH  21  22
ATOM     22  C   UNL     1       2.317   1.198  -1.613  0.00  0.00    +0.058 C 
BRANCH  22  23
ATOM     23  C   UNL     1       0.842   1.132  -1.912  0.00  0.00    +0.082 A 
ATOM     24  C   UNL     1       0.069  -0.048  -2.018  0.00  0.00    +0.113 A 
ATOM     25  C   UNL     1      -1.236   0.344  -2.302  0.00  0.00    +0.129 A 
ATOM     26  N   UNL     1      -1.242   1.692  -2.362  0.00  0.00    -0.263 N 
ATOM     27  H   UNL     1      -2.039   2.265  -2.550  0.00  0.00    +0.190 HD
ATOM     28  N   UNL     1       0.057   2.152  -2.117  0.00  0.00    -0.176 NA
BRANCH  25  29
ATOM     29  N   UNL     1      -2.322  -0.490  -2.488  0.00  0.00    -0.342 N 
ATOM     30  H   UNL     1      -3.194  -0.114  -2.683  0.00  0.00    +0.144 HD
ATOM     31  H   UNL     1      -2.211  -1.452  -2.423  0.00  0.00    +0.144 HD
ENDBRANCH  25  29
BRANCH  24  32
ATOM     32  C   UNL     1       0.541  -1.391  -1.863  0.00  0.00    +0.104 C 
ATOM     33  N   UNL     1       0.915  -2.457  -1.741  0.00  0.00    -0.191 NA
ENDBRANCH  24  32
ENDBRANCH  22  23
ENDBRANCH  21  22
ENDBRANCH  20  21
ENDBRANCH  19  20
ENDBRANCH  18  19
ENDBRANCH   1  18
TORSDOF 11
