REMARK  Name = ZINC62702542
REMARK  8 active torsions:
REMARK  status: ('A' for Active; 'I' for Inactive)
REMARK    1  A    between atoms: C_1  and  C_2
REMARK    2  A    between atoms: C_2  and  N_3
REMARK    3  A    between atoms: N_3  and  C_4
REMARK    4  A    between atoms: C_4  and  C_5
REMARK    5  A    between atoms: C_9  and  N_12
REMARK    6  A    between atoms: N_12  and  C_13
REMARK    7  A    between atoms: C_13  and  C_14
REMARK    8  A    between atoms: C_17  and  O_21
REMARK                            x       y       z     vdW  Elec       q    Type
REMARK                         _______ _______ _______ _____ _____    ______ ____
ROOT
ATOM      1  N   UNL     1      -1.372  -0.511   0.012  0.00  0.00    -0.317 N 
ATOM      2  C   UNL     1      -2.014  -0.759   1.224  0.00  0.00    +0.099 A 
ATOM      3  C   UNL     1      -1.345  -0.516   2.419  0.00  0.00    +0.043 A 
ATOM      4  C   UNL     1      -1.991  -0.765   3.616  0.00  0.00    +0.027 A 
ATOM      5  C   UNL     1      -3.297  -1.252   3.577  0.00  0.00    +0.044 A 
ATOM      6  C   UNL     1      -3.901  -1.470   2.348  0.00  0.00    +0.107 A 
ATOM      7  N   UNL     1      -3.256  -1.217   1.224  0.00  0.00    -0.348 N 
ATOM      8  H   UNL     1      -3.702  -1.374   0.378  0.00  0.00    +0.167 HD
ENDROOT
BRANCH   1  10
ATOM      9  C   UNL     1      -0.019   1.526   0.010  0.00  0.00    +0.024 C 
ATOM     10  C   UNL     1       0.002  -0.004   0.002  0.00  0.00    +0.103 C 
ENDBRANCH   1  10
BRANCH   1  11
ATOM     11  C   UNL     1      -2.072  -0.758  -1.251  0.00  0.00    +0.103 C 
ATOM     12  C   UNL     1      -1.816  -2.197  -1.703  0.00  0.00    +0.024 C 
ENDBRANCH   1  11
BRANCH   5  13
ATOM     13  N   UNL     1      -3.990  -1.518   4.764  0.00  0.00    -0.339 N 
ATOM     14  H   UNL     1      -3.562  -1.364   5.621  0.00  0.00    +0.146 HD
BRANCH  13  15
ATOM     15  C   UNL     1      -5.362  -2.030   4.713  0.00  0.00    +0.137 C 
BRANCH  15  16
ATOM     16  C   UNL     1      -5.876  -2.231   6.115  0.00  0.00    -0.029 A 
ATOM     17  C   UNL     1      -5.687  -3.444   6.752  0.00  0.00    +0.009 A 
ATOM     18  C   UNL     1      -6.158  -3.631   8.037  0.00  0.00    +0.047 A 
ATOM     19  C   UNL     1      -6.819  -2.602   8.690  0.00  0.00    +0.131 A 
ATOM     20  C   UNL     1      -7.007  -1.385   8.049  0.00  0.00    +0.060 A 
ATOM     21  C   UNL     1      -6.530  -1.201   6.764  0.00  0.00    +0.024 A 
ATOM     22 BR   UNL     1      -7.910   0.022   8.934  0.00  0.00    -0.047 Br
BRANCH  19  23
ATOM     23  O   UNL     1      -7.284  -2.784   9.954  0.00  0.00    -0.506 OA
ATOM     24  H   UNL     1      -6.649  -2.547  10.644  0.00  0.00    +0.292 HD
ENDBRANCH  19  23
ENDBRANCH  15  16
ENDBRANCH  13  15
ENDBRANCH   5  13
TORSDOF 6
