REMARK  Name = ZINC01872792
REMARK  7 active torsions:
REMARK  status: ('A' for Active; 'I' for Inactive)
REMARK    1  A    between atoms: C_1  and  C_2
REMARK    2  A    between atoms: C_6  and  C_8
REMARK    3  A    between atoms: C_11  and  S_14
REMARK    4  A    between atoms: N_12  and  N_13
REMARK    5  A    between atoms: S_14  and  C_15
REMARK    6  A    between atoms: C_15  and  C_16
REMARK    7  A    between atoms: N_18  and  C_19
REMARK                            x       y       z     vdW  Elec       q    Type
REMARK                         _______ _______ _______ _____ _____    ______ ____
ROOT
ATOM      1  C   UNL     1      -3.077  -2.012   4.148  0.00  0.00    +0.182 A 
ATOM      2  N   UNL     1      -1.970  -1.767   4.809  0.00  0.00    -0.127 NA
ATOM      3  N   UNL     1      -1.641  -2.793   5.510  0.00  0.00    -0.121 NA
ATOM      4  C   UNL     1      -2.519  -3.756   5.339  0.00  0.00    +0.209 A 
ATOM      5  N   UNL     1      -3.466  -3.292   4.471  0.00  0.00    -0.224 N 
ENDROOT
BRANCH   1  11
ATOM      6  C   UNL     1      -3.086   2.141   1.381  0.00  0.00    +0.044 C 
ATOM      7  C   UNL     1      -3.787   0.912   1.901  0.00  0.00    -0.050 A 
ATOM      8  C   UNL     1      -5.092   0.651   1.523  0.00  0.00    +0.003 A 
ATOM      9  C   UNL     1      -5.743  -0.474   1.995  0.00  0.00    +0.001 A 
ATOM     10  C   UNL     1      -5.095  -1.344   2.848  0.00  0.00    +0.011 A 
ATOM     11  C   UNL     1      -3.779  -1.085   3.234  0.00  0.00    +0.021 A 
ATOM     12  C   UNL     1      -3.125   0.049   2.749  0.00  0.00    +0.015 A 
ENDBRANCH   1  11
BRANCH   5  13
ATOM     13  N   UNL     1      -4.567  -3.960   4.016  0.00  0.00    -0.295 N 
ATOM     14  H   UNL     1      -4.357  -4.471   3.172  0.00  0.00    +0.163 HD
ATOM     15  H   UNL     1      -4.938  -4.572   4.728  0.00  0.00    +0.163 HD
ENDBRANCH   5  13
BRANCH   4  16
ATOM     16  S   UNL     1      -2.484  -5.348   6.094  0.00  0.00    -0.075 S 
BRANCH  16  17
ATOM     17  C   UNL     1      -0.990  -5.313   7.122  0.00  0.00    +0.173 C 
BRANCH  17  18
ATOM     18  C   UNL     1      -0.839  -6.633   7.833  0.00  0.00    +0.228 C 
ATOM     19  O   UNL     1      -1.659  -7.511   7.663  0.00  0.00    -0.275 OA
ATOM     20  N   UNL     1       0.206  -6.838   8.659  0.00  0.00    -0.283 N 
ATOM     21  H   UNL     1       0.900  -6.165   8.739  0.00  0.00    +0.155 HD
BRANCH  20  22
ATOM     22  C   UNL     1       0.291  -8.023   9.400  0.00  0.00    +0.062 A 
ATOM     23  C   UNL     1       0.962  -9.123   8.880  0.00  0.00    +0.041 A 
ATOM     24  C   UNL     1       1.044 -10.291   9.614  0.00  0.00    +0.032 A 
ATOM     25  C   UNL     1       0.460 -10.366  10.866  0.00  0.00    +0.020 A 
ATOM     26  C   UNL     1      -0.209  -9.272  11.387  0.00  0.00    +0.032 A 
ATOM     27  C   UNL     1      -0.290  -8.099  10.660  0.00  0.00    +0.041 A 
ATOM     28 BR   UNL     1      -1.197  -6.602  11.376  0.00  0.00    -0.048 Br
ATOM     29 BR   UNL     1       0.575 -11.966  11.867  0.00  0.00    -0.050 Br
ATOM     30 BR   UNL     1       1.760  -9.023   7.169  0.00  0.00    -0.048 Br
ENDBRANCH  20  22
ENDBRANCH  17  18
ENDBRANCH  16  17
ENDBRANCH   4  16
TORSDOF 6
