REMARK  Name = ZINC41664842
REMARK  3 active torsions:
REMARK  status: ('A' for Active; 'I' for Inactive)
REMARK    1  A    between atoms: C_1  and  C_2
REMARK    2  A    between atoms: N_6  and  C_7
REMARK    3  A    between atoms: C_10  and  N_13
REMARK                            x       y       z     vdW  Elec       q    Type
REMARK                         _______ _______ _______ _____ _____    ______ ____
ROOT
ATOM      1  C   UNL     1      -0.072   0.269   2.292  0.00  0.00    +0.048 A 
ATOM      2  C   UNL     1       0.791   1.214   2.829  0.00  0.00    +0.028 A 
ATOM      3  C   UNL     1       0.832   1.415   4.194  0.00  0.00    +0.025 A 
ATOM      4  C   UNL     1       0.009   0.671   5.030  0.00  0.00    +0.033 A 
ATOM      5  C   UNL     1      -0.855  -0.274   4.492  0.00  0.00    +0.025 A 
ATOM      6  C   UNL     1      -0.899  -0.471   3.126  0.00  0.00    +0.028 A 
ENDROOT
BRANCH   4   7
ATOM      7  N   UNL     1       0.051   0.873   6.413  0.00  0.00    -0.294 N 
ATOM      8  C   UNL     1       1.255   1.205   7.033  0.00  0.00    +0.208 A 
ATOM      9  C   UNL     1       1.292   1.537   8.467  0.00  0.00    +0.295 A 
ATOM     10  O   UNL     1       0.271   1.526   9.129  0.00  0.00    -0.264 OA
ATOM     11  N   UNL     1       2.473   1.853   9.037  0.00  0.00    -0.271 N 
ATOM     12  H   UNL     1       2.512   2.074   9.981  0.00  0.00    +0.174 HD
ATOM     13  C   UNL     1       3.598   1.862   8.298  0.00  0.00    +0.343 A 
ATOM     14  O   UNL     1       4.656   2.149   8.824  0.00  0.00    -0.245 OA
ATOM     15  N   UNL     1       3.571   1.559   6.988  0.00  0.00    -0.226 N 
ATOM     16  H   UNL     1       4.396   1.573   6.478  0.00  0.00    +0.194 HD
ATOM     17  N   UNL     1       2.372   1.220   6.352  0.00  0.00    -0.149 NA
ATOM     18  H   UNL     1      -0.758   0.783   6.941  0.00  0.00    +0.154 HD
ENDBRANCH   4   7
BRANCH   1  24
ATOM     19  C   UNL     1      -0.352   2.506   0.203  0.00  0.00    +0.084 C 
ATOM     20  C   UNL     1      -0.236   1.025  -0.050  0.00  0.00    +0.088 A 
ATOM     21  N   UNL     1      -0.231   0.450  -1.222  0.00  0.00    -0.350 N 
ATOM     22  C   UNL     1      -0.113  -0.877  -1.065  0.00  0.00    +0.102 A 
ATOM     23  C   UNL     1      -0.041  -1.140   0.254  0.00  0.00    +0.110 A 
ATOM     24  N   UNL     1      -0.114   0.065   0.903  0.00  0.00    -0.305 N 
ATOM     25  H   UNL     1      -0.302   0.910  -2.073  0.00  0.00    +0.166 HD
ENDBRANCH   1  24
TORSDOF 2
