REMARK  Name = ZINC05023241
REMARK  11 active torsions:
REMARK  status: ('A' for Active; 'I' for Inactive)
REMARK    1  A    between atoms: C_1  and  C_2
REMARK    2  A    between atoms: C_4  and  C_22
REMARK    3  A    between atoms: C_6  and  C_13
REMARK    4  A    between atoms: C_8  and  C_12
REMARK    5  A    between atoms: C_10  and  O_11
REMARK    6  A    between atoms: C_16  and  N_19
REMARK    7  A    between atoms: N_19  and  C_20
REMARK    8  A    between atoms: N_19  and  C_21
REMARK    9  A    between atoms: C_25  and  N_28
REMARK   10  A    between atoms: N_28  and  C_29
REMARK   11  A    between atoms: N_28  and  C_30
REMARK                            x       y       z     vdW  Elec       q    Type
REMARK                         _______ _______ _______ _____ _____    ______ ____
ROOT
ATOM      1  C   UNL     1       3.594   1.687  -1.194  0.00  0.00    +0.009 C 
ATOM      2  C   UNL     1       2.180   1.109  -1.288  0.00  0.00    +0.005 C 
ATOM      3  C   UNL     1       1.375   1.523  -0.054  0.00  0.00    -0.035 C 
ATOM      4  C   UNL     1      -0.686   1.525  -1.328  0.00  0.00    -0.035 C 
ATOM      5  C   UNL     1       0.057   1.111  -2.600  0.00  0.00    +0.005 C 
ATOM      6  C   UNL     1       1.490   1.647  -2.545  0.00  0.00    +0.118 C 
ATOM      7  C   UNL     1       0.085  -0.415  -2.701  0.00  0.00    +0.009 C 
ATOM      8  N   UNL     1       0.007   0.978  -0.146  0.00  0.00    +0.389 N 
ATOM      9  H   UNL     1      -0.515   1.231   0.701  0.00  0.00    -0.084 HD
ATOM     10  H   UNL     1       0.055  -0.045  -0.226  0.00  0.00    -0.084 HD
ENDROOT
BRANCH   4  11
ATOM     11  C   UNL     1      -2.092   0.984  -1.368  0.00  0.00    -0.061 A 
ATOM     12  C   UNL     1      -2.331  -0.339  -1.042  0.00  0.00    +0.004 A 
ATOM     13  C   UNL     1      -3.619  -0.837  -1.073  0.00  0.00    +0.023 A 
ATOM     14  C   UNL     1      -4.673  -0.011  -1.443  0.00  0.00    +0.029 A 
ATOM     15  C   UNL     1      -4.428   1.316  -1.775  0.00  0.00    +0.023 A 
ATOM     16  C   UNL     1      -3.139   1.809  -1.737  0.00  0.00    +0.004 A 
BRANCH  14  17
ATOM     17  N   UNL     1      -5.976  -0.513  -1.480  0.00  0.00    -0.336 N 
ATOM     18  C   UNL     1      -7.069   0.323  -1.983  0.00  0.00    +0.129 C 
ATOM     19  C   UNL     1      -6.249  -1.875  -1.017  0.00  0.00    +0.129 C 
ENDBRANCH  14  17
ENDBRANCH   4  11
BRANCH   3  20
ATOM     20  C   UNL     1       1.318   3.026   0.027  0.00  0.00    -0.061 A 
ATOM     21  C   UNL     1       0.754   3.752  -1.007  0.00  0.00    +0.004 A 
ATOM     22  C   UNL     1       0.695   5.130  -0.934  0.00  0.00    +0.023 A 
ATOM     23  C   UNL     1       1.213   5.787   0.175  0.00  0.00    +0.029 A 
ATOM     24  C   UNL     1       1.784   5.056   1.208  0.00  0.00    +0.023 A 
ATOM     25  C   UNL     1       1.835   3.678   1.131  0.00  0.00    +0.004 A 
BRANCH  23  26
ATOM     26  N   UNL     1       1.160   7.181   0.250  0.00  0.00    -0.336 N 
ATOM     27  C   UNL     1       1.706   7.873   1.419  0.00  0.00    +0.129 C 
ATOM     28  C   UNL     1       0.557   7.951  -0.842  0.00  0.00    +0.129 C 
ENDBRANCH  23  26
ENDBRANCH   3  20
BRANCH   6  29
ATOM     29  O   UNL     1       2.207   1.216  -3.704  0.00  0.00    -0.391 OA
ATOM     30  H   UNL     1       1.825   1.522  -4.538  0.00  0.00    +0.210 HD
ENDBRANCH   6  29
TORSDOF 5
