REMARK  Name = ZINC33326930
REMARK  9 active torsions:
REMARK  status: ('A' for Active; 'I' for Inactive)
REMARK    1  A    between atoms: C_1  and  C_2
REMARK    2  A    between atoms: C_3  and  S_8
REMARK    3  A    between atoms: C_4  and  C_7
REMARK    4  A    between atoms: S_8  and  N_11
REMARK    5  A    between atoms: N_11  and  C_12
REMARK    6  A    between atoms: C_15  and  N_18
REMARK    7  A    between atoms: C_21  and  N_26
REMARK    8  A    between atoms: C_23  and  C_25
REMARK    9  A    between atoms: N_26  and  C_27
REMARK                            x       y       z     vdW  Elec       q    Type
REMARK                         _______ _______ _______ _____ _____    ______ ____
ROOT
ATOM      1  N   UNL     1       2.756   1.642  -8.443  0.00  0.00    -0.301 N 
ATOM      2  C   UNL     1       4.072   1.885  -8.808  0.00  0.00    +0.105 A 
ATOM      3  C   UNL     1       5.112   1.595  -7.931  0.00  0.00    +0.085 A 
ATOM      4  C   UNL     1       6.415   1.857  -8.344  0.00  0.00    +0.124 A 
ATOM      5  N   UNL     1       6.617   2.371  -9.556  0.00  0.00    -0.220 NA
ATOM      6  C   UNL     1       5.605   2.632 -10.358  0.00  0.00    +0.107 A 
ATOM      7  N   UNL     1       4.358   2.393 -10.005  0.00  0.00    -0.332 N 
ATOM      8  C   UNL     1       5.882   3.214 -11.720  0.00  0.00    +0.086 C 
ATOM      9  H   UNL     1       2.047   1.722  -9.101  0.00  0.00    +0.154 HD
ATOM     10  H   UNL     1       3.639   2.594 -10.625  0.00  0.00    +0.168 HD
ENDROOT
BRANCH   1  14
ATOM     11  C   UNL     1       1.844   0.571  -4.517  0.00  0.00    +0.074 A 
ATOM     12  C   UNL     1       1.208  -0.063  -5.576  0.00  0.00    +0.028 A 
ATOM     13  C   UNL     1       1.510   0.291  -6.876  0.00  0.00    +0.025 A 
ATOM     14  C   UNL     1       2.449   1.283  -7.125  0.00  0.00    +0.032 A 
ATOM     15  C   UNL     1       3.086   1.918  -6.066  0.00  0.00    +0.025 A 
ATOM     16  C   UNL     1       2.780   1.567  -4.766  0.00  0.00    +0.028 A 
BRANCH  11  17
ATOM     17  N   UNL     1       1.538   0.212  -3.200  0.00  0.00    -0.098 NA
BRANCH  17  18
ATOM     18  S   UNL     1       0.422  -0.975  -2.903  0.00  0.00    +0.097 S 
ATOM     19  O   UNL     1       0.977  -2.187  -3.396  0.00  0.00    -0.148 OA
ATOM     20  O   UNL     1      -0.831  -0.474  -3.349  0.00  0.00    -0.148 OA
BRANCH  18  23
ATOM     21  C   UNL     1      -1.590   0.582  -0.751  0.00  0.00    +0.071 C 
ATOM     22  C   UNL     1      -0.583  -0.450  -0.314  0.00  0.00    +0.107 A 
ATOM     23  C   UNL     1       0.301  -1.150  -1.154  0.00  0.00    +0.174 A 
ATOM     24  C   UNL     1       1.038  -1.979  -0.390  0.00  0.00    +0.161 A 
ATOM     25  O   UNL     1       0.650  -1.823   0.885  0.00  0.00    -0.358 OA
ATOM     26  N   UNL     1      -0.374  -0.845   0.911  0.00  0.00    -0.081 NA
ATOM     27  C   UNL     1       2.110  -2.918  -0.881  0.00  0.00    +0.091 C 
ENDBRANCH  18  23
ENDBRANCH  17  18
ENDBRANCH  11  17
ENDBRANCH   1  14
BRANCH   4  28
ATOM     28  N   UNL     1       7.486   1.586  -7.507  0.00  0.00    -0.326 N 
ATOM     29  H   UNL     1       8.392   1.771  -7.802  0.00  0.00    +0.148 HD
BRANCH  28  30
ATOM     30  C   UNL     1       7.251   1.021  -6.176  0.00  0.00    +0.072 C 
ATOM     31  C   UNL     1       6.953   2.150  -5.188  0.00  0.00    +0.022 C 
ATOM     32  C   UNL     1       6.708   1.559  -3.798  0.00  0.00    +0.002 C 
ATOM     33  C   UNL     1       7.953   0.797  -3.340  0.00  0.00    +0.000 C 
ATOM     34  C   UNL     1       8.251  -0.333  -4.329  0.00  0.00    +0.002 C 
ATOM     35  C   UNL     1       8.496   0.258  -5.719  0.00  0.00    +0.022 C 
ENDBRANCH  28  30
ENDBRANCH   4  28
TORSDOF 6
