REMARK  Name = ZINC34660013
REMARK  7 active torsions:
REMARK  status: ('A' for Active; 'I' for Inactive)
REMARK    1  A    between atoms: C_1  and  C_2
REMARK    2  A    between atoms: C_2  and  C_4
REMARK    3  A    between atoms: C_2  and  O_7
REMARK    4  A    between atoms: O_7  and  C_8
REMARK    5  A    between atoms: C_13  and  C_14
REMARK    6  A    between atoms: C_14  and  N_15
REMARK    7  A    between atoms: N_15  and  C_16
REMARK                            x       y       z     vdW  Elec       q    Type
REMARK                         _______ _______ _______ _____ _____    ______ ____
ROOT
ATOM      1  C   UNL     1      -0.031  -0.600   2.303  0.00  0.00    +0.123 A 
ATOM      2  C   UNL     1      -1.400  -0.376   2.286  0.00  0.00    +0.047 A 
ATOM      3  C   UNL     1      -2.135  -0.501   3.449  0.00  0.00    +0.019 A 
ATOM      4  C   UNL     1      -1.506  -0.848   4.631  0.00  0.00    +0.018 A 
ATOM      5  C   UNL     1      -0.141  -1.071   4.651  0.00  0.00    +0.020 A 
ATOM      6  C   UNL     1       0.597  -0.953   3.489  0.00  0.00    -0.022 A 
ATOM      7 BR   UNL     1      -2.513  -1.018   6.222  0.00  0.00    -0.050 Br
ENDROOT
BRANCH   1   8
ATOM      8  O   UNL     1       0.693  -0.477   1.160  0.00  0.00    -0.480 OA
BRANCH   8  10
ATOM      9  C   UNL     1      -0.294   1.265  -0.192  0.00  0.00    +0.062 C 
ATOM     10  C   UNL     1      -0.034  -0.235  -0.046  0.00  0.00    +0.255 C 
BRANCH  10  11
ATOM     11  C   UNL     1       0.769  -0.723  -1.224  0.00  0.00    +0.251 C 
ATOM     12  O   UNL     1       1.895  -1.144  -1.058  0.00  0.00    -0.272 OA
ATOM     13  N   UNL     1       0.238  -0.691  -2.462  0.00  0.00    -0.326 N 
ATOM     14  H   UNL     1      -0.662  -0.353  -2.595  0.00  0.00    +0.145 HD
ATOM     15  H   UNL     1       0.755  -1.004  -3.220  0.00  0.00    +0.145 HD
ENDBRANCH  10  11
ENDBRANCH   8  10
ENDBRANCH   1   8
BRANCH   6  16
ATOM     16  C   UNL     1       2.083  -1.203   3.509  0.00  0.00    -0.043 C 
BRANCH  16  17
ATOM     17  N   UNL     1       2.795   0.081   3.559  0.00  0.00    +0.384 N 
ATOM     18  H   UNL     1       2.557   0.628   2.745  0.00  0.00    -0.085 HD
ATOM     19  H   UNL     1       2.526   0.582   4.392  0.00  0.00    -0.085 HD
BRANCH  17  20
ATOM     20  C   UNL     1       4.243  -0.163   3.579  0.00  0.00    -0.072 C 
ATOM     21  C   UNL     1       5.017   0.280   4.822  0.00  0.00    -0.017 C 
ATOM     22  C   UNL     1       5.165   1.056   3.512  0.00  0.00    -0.017 C 
ENDBRANCH  17  20
ENDBRANCH  16  17
ENDBRANCH   6  16
TORSDOF 6
