REMARK  Name = ZINC25229410
REMARK  12 active torsions:
REMARK  status: ('A' for Active; 'I' for Inactive)
REMARK    1  A    between atoms: C_1  and  C_2
REMARK    2  A    between atoms: C_3  and  C_36
REMARK    3  A    between atoms: C_11  and  C_13
REMARK    4  A    between atoms: C_13  and  N_14
REMARK    5  A    between atoms: N_17  and  C_20
REMARK    6  A    between atoms: C_20  and  C_21
REMARK    7  A    between atoms: C_21  and  C_23
REMARK    8  A    between atoms: C_21  and  O_35
REMARK    9  A    between atoms: C_23  and  O_24
REMARK   10  A    between atoms: O_24  and  C_25
REMARK   11  A    between atoms: C_25  and  C_27
REMARK   12  A    between atoms: C_25  and  C_28
REMARK                            x       y       z     vdW  Elec       q    Type
REMARK                         _______ _______ _______ _____ _____    ______ ____
ROOT
ATOM      1  N   UNL     1       3.617   0.674   3.446  0.00  0.00    +0.386 N 
ATOM      2  C   UNL     1       4.299   0.031   2.314  0.00  0.00    -0.063 C 
ATOM      3  C   UNL     1       3.733   0.580   1.002  0.00  0.00    +0.066 C 
ATOM      4  N   UNL     1       2.286   0.330   0.952  0.00  0.00    -0.303 NA
ATOM      5  C   UNL     1       1.604   0.974   2.084  0.00  0.00    +0.066 C 
ATOM      6  C   UNL     1       2.170   0.424   3.396  0.00  0.00    -0.063 C 
ATOM      7  H   UNL     1       3.777   1.760   3.366  0.00  0.00    -0.081 HD
ENDROOT
BRANCH   1   8
ATOM      8  C   UNL     1       4.185   0.228   4.725  0.00  0.00    -0.003 C 
BRANCH   8  19
ATOM      9  C   UNL     1      10.547   1.878   6.046  0.00  0.00    +0.045 C 
ATOM     10  C   UNL     1       9.527   2.182   4.979  0.00  0.00    -0.026 A 
ATOM     11  C   UNL     1       9.837   2.989   3.953  0.00  0.00    -0.008 A 
ATOM     12  S   UNL     1       8.335   3.032   2.993  0.00  0.00    -0.073 S 
ATOM     13  C   UNL     1       7.336   1.965   3.998  0.00  0.00    +0.116 A 
ATOM     14  C   UNL     1       8.197   1.606   5.051  0.00  0.00    +0.075 A 
ATOM     15  C   UNL     1       7.638   0.728   6.035  0.00  0.00    +0.260 A 
ATOM     16  O   UNL     1       8.305   0.359   6.987  0.00  0.00    -0.267 OA
ATOM     17  N   UNL     1       6.362   0.321   5.897  0.00  0.00    -0.312 N 
ATOM     18  H   UNL     1       5.913  -0.346   6.647  0.00  0.00    +0.170 HD
ATOM     19  C   UNL     1       5.606   0.716   4.841  0.00  0.00    +0.094 A 
ATOM     20  N   UNL     1       6.086   1.516   3.927  0.00  0.00    -0.229 NA
ATOM     21  C   UNL     1      11.142   3.692   3.678  0.00  0.00    +0.052 C 
ENDBRANCH   8  19
ENDBRANCH   1   8
BRANCH   4  22
ATOM     22  C   UNL     1       1.718   0.776  -0.327  0.00  0.00    +0.117 C 
BRANCH  22  23
ATOM     23  C   UNL     1       2.054  -0.243  -1.417  0.00  0.00    +0.154 C 
BRANCH  23  24
ATOM     24  O   UNL     1       1.396  -1.480  -1.133  0.00  0.00    -0.388 OA
ATOM     25  H   UNL     1       1.520  -2.337  -1.810  0.00  0.00    +0.210 HD
ENDBRANCH  23  24
BRANCH  23  26
ATOM     26  C   UNL     1       1.582   0.285  -2.773  0.00  0.00    +0.193 C 
BRANCH  26  27
ATOM     27  O   UNL     1       1.998  -0.611  -3.805  0.00  0.00    -0.370 OA
BRANCH  27  28
ATOM     28  C   UNL     1       1.606  -0.208  -5.119  0.00  0.00    +0.145 C 
ATOM     29  C   UNL     1       2.698   0.673  -5.729  0.00  0.00    +0.043 C 
BRANCH  28  30
ATOM     30  C   UNL     1       1.404  -1.428  -5.979  0.00  0.00    -0.019 A 
ATOM     31  C   UNL     1       2.214  -2.535  -5.810  0.00  0.00    +0.007 A 
ATOM     32  C   UNL     1       2.025  -3.656  -6.595  0.00  0.00    +0.020 A 
ATOM     33  C   UNL     1       1.033  -3.667  -7.559  0.00  0.00    +0.041 A 
ATOM     34  C   UNL     1       0.226  -2.556  -7.733  0.00  0.00    +0.020 A 
ATOM     35  C   UNL     1       0.412  -1.437  -6.943  0.00  0.00    +0.007 A 
ATOM     36 CL   UNL     1       0.800  -5.073  -8.551  0.00  0.00    -0.084 Cl
ENDBRANCH  28  30
ENDBRANCH  27  28
ENDBRANCH  26  27
ENDBRANCH  23  26
ENDBRANCH  22  23
ENDBRANCH   4  22
TORSDOF 9
