REMARK  Name = ZINC08742809
REMARK  9 active torsions:
REMARK  status: ('A' for Active; 'I' for Inactive)
REMARK    1  A    between atoms: C_1  and  C_2
REMARK    2  A    between atoms: C_2  and  C_3
REMARK    3  A    between atoms: C_3  and  C_5
REMARK    4  A    between atoms: C_3  and  C_6
REMARK    5  A    between atoms: C_6  and  C_8
REMARK    6  A    between atoms: C_6  and  N_18
REMARK    7  A    between atoms: N_10  and  C_11
REMARK    8  A    between atoms: C_11  and  C_12
REMARK    9  A    between atoms: C_19  and  C_21
REMARK                            x       y       z     vdW  Elec       q    Type
REMARK                         _______ _______ _______ _____ _____    ______ ____
ROOT
ATOM      1  N   UNL     1      -3.360  -2.938   1.071  0.00  0.00    -0.305 N 
ATOM      2  C   UNL     1      -2.359  -2.984   0.170  0.00  0.00    +0.200 C 
ATOM      3  O   UNL     1      -2.475  -3.658  -0.832  0.00  0.00    -0.278 OA
ATOM      4  H   UNL     1      -3.267  -2.399   1.872  0.00  0.00    +0.149 HD
ENDROOT
BRANCH   2   5
ATOM      5  C   UNL     1      -1.095  -2.199   0.407  0.00  0.00    +0.021 C 
ATOM      6  C   UNL     1      -1.313  -0.741  -0.000  0.00  0.00    +0.028 C 
ATOM      7  C   UNL     1       0.002  -0.004   0.002  0.00  0.00    -0.047 A 
ATOM      8  C   UNL     1      -0.017   1.383   0.010  0.00  0.00    +0.004 A 
ATOM      9  C   UNL     1       1.165   2.096   0.002  0.00  0.00    +0.000 A 
ATOM     10  C   UNL     1       2.373   1.425  -0.013  0.00  0.00    +0.000 A 
ATOM     11  C   UNL     1       2.393   0.045  -0.018  0.00  0.00    +0.002 A 
ATOM     12  C   UNL     1       1.207  -0.674  -0.009  0.00  0.00    -0.061 A 
ATOM     13  C   UNL     1       1.280  -2.178  -0.006  0.00  0.00    -0.045 C 
ATOM     14  N   UNL     1      -0.007  -2.759  -0.415  0.00  0.00    +0.389 N 
ATOM     15  H   UNL     1      -0.179  -2.540  -1.404  0.00  0.00    -0.084 HD
ATOM     16  H   UNL     1       0.025  -3.777  -0.291  0.00  0.00    -0.084 HD
ENDBRANCH   2   5
BRANCH   1  17
ATOM     17  C   UNL     1      -4.588  -3.702   0.841  0.00  0.00    +0.162 C 
BRANCH  17  18
ATOM     18  C   UNL     1      -5.253  -3.996   2.161  0.00  0.00    +0.234 C 
ATOM     19  O   UNL     1      -4.750  -3.605   3.193  0.00  0.00    -0.274 OA
ATOM     20  N   UNL     1      -6.406  -4.692   2.195  0.00  0.00    -0.311 N 
ATOM     21  H   UNL     1      -6.809  -5.005   1.370  0.00  0.00    +0.149 HD
BRANCH  20  22
ATOM     22  C   UNL     1      -7.052  -4.977   3.479  0.00  0.00    +0.135 C 
BRANCH  22  23
ATOM     23  C   UNL     1      -8.335  -5.775   3.238  0.00  0.00    +0.135 C 
ATOM     24  C   UNL     1      -9.082  -5.981   4.574  0.00  0.00    +0.035 C 
ATOM     25  C   UNL     1      -9.605  -7.437   4.438  0.00  0.00    +0.031 C 
ATOM     26  C   UNL     1      -8.454  -8.089   3.630  0.00  0.00    +0.160 C 
ATOM     27  O   UNL     1      -8.012  -7.070   2.719  0.00  0.00    -0.375 OA
ENDBRANCH  22  23
ENDBRANCH  20  22
ENDBRANCH  17  18
BRANCH  17  28
ATOM     28  C   UNL     1      -5.539  -2.887  -0.038  0.00  0.00    +0.015 C 
ATOM     29  C   UNL     1      -4.916  -2.696  -1.423  0.00  0.00    +0.010 C 
BRANCH  28  31
ATOM     30  C   UNL     1      -6.827  -0.753  -0.207  0.00  0.00    +0.004 C 
ATOM     31  C   UNL     1      -5.782  -1.520   0.605  0.00  0.00    +0.002 C 
ENDBRANCH  28  31
ENDBRANCH  17  28
ENDBRANCH   1  17
TORSDOF 7
