REMARK  Name = ZINC09045846
REMARK  8 active torsions:
REMARK  status: ('A' for Active; 'I' for Inactive)
REMARK    1  A    between atoms: C_1  and  C_2
REMARK    2  A    between atoms: C_12  and  C_21
REMARK    3  A    between atoms: C_15  and  C_17
REMARK    4  A    between atoms: C_17  and  C_19
REMARK    5  A    between atoms: C_17  and  O_20
REMARK    6  A    between atoms: N_23  and  C_24
REMARK    7  A    between atoms: C_29  and  O_30
REMARK    8  A    between atoms: O_30  and  C_31
REMARK                            x       y       z     vdW  Elec       q    Type
REMARK                         _______ _______ _______ _____ _____    ______ ____
ROOT
ATOM      1  C   UNL     1       0.124   2.172   6.775  0.00  0.00    +0.045 C 
ATOM      2  C   UNL     1       0.327   2.853   5.447  0.00  0.00    -0.029 A 
ATOM      3  C   UNL     1       0.384   4.230   5.382  0.00  0.00    +0.005 A 
ATOM      4  C   UNL     1       0.570   4.865   4.168  0.00  0.00    +0.001 A 
ATOM      5  C   UNL     1       0.700   4.116   3.011  0.00  0.00    +0.004 A 
ATOM      6  C   UNL     1       0.644   2.742   3.072  0.00  0.00    -0.027 A 
ATOM      7  C   UNL     1       0.458   2.092   4.288  0.00  0.00    +0.039 A 
ATOM      8  N   UNL     1       0.436   0.709   4.098  0.00  0.00    -0.286 N 
ATOM      9  C   UNL     1       0.599   0.371   2.805  0.00  0.00    +0.211 C 
ATOM     10  O   UNL     1       0.624  -0.753   2.349  0.00  0.00    -0.277 OA
ATOM     11  C   UNL     1       0.745   1.657   2.034  0.00  0.00    +0.049 C 
ATOM     12  C   UNL     1       2.095   1.712   1.308  0.00  0.00    +0.076 C 
ATOM     13  C   UNL     1       1.735   1.861  -0.190  0.00  0.00    -0.001 C 
ATOM     14  C   UNL     1       0.285   1.317  -0.254  0.00  0.00    -0.040 C 
ATOM     15  H   UNL     1       0.318   0.066   4.814  0.00  0.00    +0.155 HD
ATOM     16  N   UNL     1      -0.291   1.781   1.018  0.00  0.00    +0.395 N 
ATOM     17  H   UNL     1      -0.585   2.761   0.934  0.00  0.00    -0.083 HD
ATOM     18  H   UNL     1      -1.100   1.201   1.270  0.00  0.00    -0.083 HD
ENDROOT
BRANCH  12  19
ATOM     19  C   UNL     1       2.866   0.438   1.538  0.00  0.00    +0.220 C 
ATOM     20  O   UNL     1       2.775  -0.477   0.747  0.00  0.00    -0.275 OA
ATOM     21  N   UNL     1       3.656   0.315   2.623  0.00  0.00    -0.282 N 
ATOM     22  H   UNL     1       3.665   1.011   3.298  0.00  0.00    +0.155 HD
BRANCH  21  23
ATOM     23  C   UNL     1       4.465  -0.819   2.775  0.00  0.00    +0.077 A 
ATOM     24  C   UNL     1       4.771  -1.608   1.675  0.00  0.00    +0.047 A 
ATOM     25  C   UNL     1       5.574  -2.723   1.827  0.00  0.00    +0.043 A 
ATOM     26  C   UNL     1       6.065  -3.062   3.076  0.00  0.00    +0.024 A 
ATOM     27  C   UNL     1       5.759  -2.283   4.177  0.00  0.00    +0.049 A 
ATOM     28  C   UNL     1       4.960  -1.161   4.032  0.00  0.00    +0.141 A 
ATOM     29 CL   UNL     1       5.963  -3.705   0.449  0.00  0.00    -0.083 Cl
BRANCH  28  30
ATOM     30  O   UNL     1       4.659  -0.394   5.114  0.00  0.00    -0.493 OA
ATOM     31  C   UNL     1       5.201  -0.804   6.370  0.00  0.00    +0.277 C 
ENDBRANCH  28  30
ENDBRANCH  21  23
ENDBRANCH  12  19
BRANCH  14  32
ATOM     32  C   UNL     1      -0.459   1.905  -1.454  0.00  0.00    +0.098 C 
ATOM     33  C   UNL     1      -1.932   1.495  -1.392  0.00  0.00    +0.036 C 
BRANCH  32  34
ATOM     34  O   UNL     1      -0.359   3.330  -1.426  0.00  0.00    -0.394 OA
ATOM     35  H   UNL     1      -0.734   3.735  -0.632  0.00  0.00    +0.210 HD
ENDBRANCH  32  34
ENDBRANCH  14  32
TORSDOF 5
