REMARK  Name = ZINC15880032
REMARK  6 active torsions:
REMARK  status: ('A' for Active; 'I' for Inactive)
REMARK    1  A    between atoms: C_7  and  N_12
REMARK    2  A    between atoms: C_8  and  O_11
REMARK    3  A    between atoms: N_13  and  C_14
REMARK    4  A    between atoms: C_14  and  C_16
REMARK    5  A    between atoms: C_16  and  N_17
REMARK    6  A    between atoms: C_18  and  C_20
REMARK                            x       y       z     vdW  Elec       q    Type
REMARK                         _______ _______ _______ _____ _____    ______ ____
ROOT
ATOM      1  C   UNL     1       0.420  -5.404  -0.031  0.00  0.00    +0.271 C 
ATOM      2  O   UNL     1      -0.782  -5.230  -0.018  0.00  0.00    -0.270 OA
ENDROOT
BRANCH   1   4
ATOM      3  N   UNL     1       0.771  -3.153  -0.022  0.00  0.00    -0.151 NA
ATOM      4  N   UNL     1       1.249  -4.351  -0.034  0.00  0.00    -0.078 NA
BRANCH   3  11
ATOM      5  C   UNL     1      -0.017   1.375   0.010  0.00  0.00    +0.001 A 
ATOM      6  C   UNL     1       1.171   2.089   0.002  0.00  0.00    +0.002 A 
ATOM      7  C   UNL     1       2.385   1.433  -0.013  0.00  0.00    +0.026 A 
ATOM      8  C   UNL     1       2.424   0.043  -0.021  0.00  0.00    +0.051 A 
ATOM      9  C   UNL     1       1.220  -0.677  -0.013  0.00  0.00    +0.030 A 
ATOM     10  C   UNL     1       0.002  -0.004   0.002  0.00  0.00    +0.012 A 
ATOM     11  C   UNL     1       1.597  -2.106  -0.025  0.00  0.00    +0.152 A 
ATOM     12  C   UNL     1       2.998  -2.136  -0.039  0.00  0.00    +0.219 A 
ATOM     13  N   UNL     1       3.469  -0.867  -0.036  0.00  0.00    -0.324 N 
ATOM     14  H   UNL     1       4.409  -0.627  -0.044  0.00  0.00    +0.169 HD
BRANCH  12  15
ATOM     15  O   UNL     1       3.756  -3.252  -0.052  0.00  0.00    -0.492 OA
ATOM     16  H   UNL     1       3.968  -3.572  -0.939  0.00  0.00    +0.294 HD
ENDBRANCH  12  15
ENDBRANCH   3  11
ENDBRANCH   1   4
BRANCH   1  17
ATOM     17  C   UNL     1       0.978  -6.803  -0.045  0.00  0.00    +0.204 C 
BRANCH  17  18
ATOM     18  N   UNL     1      -0.123  -7.769  -0.039  0.00  0.00    -0.303 N 
ATOM     19  C   UNL     1       0.139  -9.091  -0.049  0.00  0.00    +0.245 C 
ATOM     20  O   UNL     1       1.290  -9.482  -0.063  0.00  0.00    -0.270 OA
ATOM     21  H   UNL     1      -1.042  -7.457  -0.028  0.00  0.00    +0.150 HD
BRANCH  19  22
ATOM     22  C   UNL     1      -0.971 -10.064  -0.043  0.00  0.00    +0.040 A 
ATOM     23  C   UNL     1      -2.294  -9.617  -0.033  0.00  0.00    +0.017 A 
ATOM     24  C   UNL     1      -3.328 -10.527  -0.027  0.00  0.00    +0.050 A 
ATOM     25  C   UNL     1      -3.061 -11.891  -0.031  0.00  0.00    +0.162 A 
ATOM     26  C   UNL     1      -1.744 -12.343  -0.043  0.00  0.00    +0.163 A 
ATOM     27  C   UNL     1      -0.701 -11.434  -0.053  0.00  0.00    +0.062 A 
ATOM     28  O   UNL     1      -1.465 -13.676  -0.055  0.00  0.00    -0.485 OA
ATOM     29  C   UNL     1      -2.526 -14.558   0.326  0.00  0.00    +0.270 C 
ATOM     30  C   UNL     1      -3.802 -14.118  -0.405  0.00  0.00    +0.270 C 
ATOM     31  O   UNL     1      -4.097 -12.771  -0.020  0.00  0.00    -0.485 OA
ENDBRANCH  19  22
ENDBRANCH  17  18
ENDBRANCH   1  17
TORSDOF 6
