REMARK  Name = ZINC39440532
REMARK  9 active torsions:
REMARK  status: ('A' for Active; 'I' for Inactive)
REMARK    1  A    between atoms: C_1  and  C_2
REMARK    2  A    between atoms: C_2  and  C_4
REMARK    3  A    between atoms: C_2  and  N_7
REMARK    4  A    between atoms: C_4  and  C_5
REMARK    5  A    between atoms: C_4  and  C_6
REMARK    6  A    between atoms: N_7  and  C_8
REMARK    7  A    between atoms: C_8  and  C_9
REMARK    8  A    between atoms: N_11  and  N_12
REMARK    9  A    between atoms: C_13  and  C_15
REMARK                            x       y       z     vdW  Elec       q    Type
REMARK                         _______ _______ _______ _____ _____    ______ ____
ROOT
ATOM      1  C   UNL     1       0.689  -0.618   3.619  0.00  0.00    +0.212 C 
ATOM      2  O   UNL     1       1.732  -1.224   3.497  0.00  0.00    -0.276 OA
ATOM      3  N   UNL     1       0.181  -0.391   4.846  0.00  0.00    -0.236 N 
ATOM      4  H   UNL     1      -0.653   0.093   4.944  0.00  0.00    +0.173 HD
ENDROOT
BRANCH   3   5
ATOM      5  N   UNL     1       0.859  -0.855   5.981  0.00  0.00    -0.230 N 
ATOM      6  C   UNL     1       0.351  -0.628   7.209  0.00  0.00    +0.260 C 
ATOM      7  O   UNL     1      -0.695  -0.021   7.332  0.00  0.00    -0.269 OA
ATOM      8  H   UNL     1       1.693  -1.340   5.884  0.00  0.00    +0.173 HD
BRANCH   6   9
ATOM      9  C   UNL     1       1.066  -1.118   8.406  0.00  0.00    +0.038 A 
ATOM     10  C   UNL     1       2.270  -1.811   8.269  0.00  0.00    +0.014 A 
ATOM     11  C   UNL     1       2.933  -2.265   9.390  0.00  0.00    +0.016 A 
ATOM     12  C   UNL     1       2.406  -2.035  10.650  0.00  0.00    +0.018 A 
ATOM     13  C   UNL     1       1.211  -1.349  10.793  0.00  0.00    +0.016 A 
ATOM     14  C   UNL     1       0.542  -0.885   9.679  0.00  0.00    +0.014 A 
ATOM     15 BR   UNL     1       3.320  -2.662  12.182  0.00  0.00    -0.050 Br
ENDBRANCH   6   9
ENDBRANCH   3   5
BRANCH   1  16
ATOM     16  C   UNL     1      -0.040  -0.119   2.398  0.00  0.00    +0.017 C 
BRANCH  16  17
ATOM     17  N   UNL     1       0.713  -0.491   1.192  0.00  0.00    +0.387 N 
ATOM     18  H   UNL     1       0.798  -1.495   1.145  0.00  0.00    -0.085 HD
ATOM     19  H   UNL     1       1.632  -0.076   1.228  0.00  0.00    -0.085 HD
BRANCH  17  21
ATOM     20  C   UNL     1      -0.019   1.526   0.010  0.00  0.00    -0.013 C 
ATOM     21  C   UNL     1       0.002  -0.004   0.002  0.00  0.00    -0.072 C 
BRANCH  21  22
ATOM     22  C   UNL     1       0.718  -0.497  -1.257  0.00  0.00    -0.032 C 
ATOM     23  C   UNL     1       0.739  -2.027  -1.265  0.00  0.00    +0.005 C 
ATOM     24  C   UNL     1      -0.022   0.009  -2.496  0.00  0.00    +0.005 C 
ENDBRANCH  21  22
ENDBRANCH  17  21
ENDBRANCH  16  17
ENDBRANCH   1  16
TORSDOF 6
