REMARK  Name = ZINC32985472
REMARK  4 active torsions:
REMARK  status: ('A' for Active; 'I' for Inactive)
REMARK    1  A    between atoms: C_1  and  C_2
REMARK    2  A    between atoms: C_6  and  N_8
REMARK    3  A    between atoms: C_12  and  C_15
REMARK    4  A    between atoms: C_20  and  C_23
REMARK                            x       y       z     vdW  Elec       q    Type
REMARK                         _______ _______ _______ _____ _____    ______ ____
ROOT
ATOM      1  N   UNL     1       2.403   1.106  -0.014  0.00  0.00    -0.279 N 
ATOM      2  C   UNL     1       2.405  -0.241   0.088  0.00  0.00    +0.038 A 
ATOM      3  C   UNL     1       3.597  -0.944   0.081  0.00  0.00    +0.039 A 
ATOM      4  C   UNL     1       4.831  -0.268  -0.034  0.00  0.00    +0.037 A 
ATOM      5  C   UNL     1       4.831   1.116  -0.138  0.00  0.00    +0.117 A 
ATOM      6  C   UNL     1       3.541   1.811  -0.123  0.00  0.00    +0.273 A 
ATOM      7  O   UNL     1       3.501   3.026  -0.210  0.00  0.00    -0.266 OA
ATOM      8  C   UNL     1       3.597  -2.412   0.205  0.00  0.00    +0.166 C 
ATOM      9  O   UNL     1       4.624  -3.022   0.413  0.00  0.00    -0.292 OA
ATOM     10  C   UNL     1       2.273  -3.134   0.065  0.00  0.00    +0.091 C 
ATOM     11  C   UNL     1       1.227  -2.319   0.837  0.00  0.00    +0.068 C 
ATOM     12  C   UNL     1       1.077  -0.948   0.185  0.00  0.00    +0.066 C 
ENDROOT
BRANCH   1  18
ATOM     13  C   UNL     1      -1.477   2.890  -2.451  0.00  0.00    +0.044 C 
ATOM     14  C   UNL     1      -0.722   2.666  -1.166  0.00  0.00    -0.048 A 
ATOM     15  C   UNL     1      -1.237   3.134   0.029  0.00  0.00    +0.003 A 
ATOM     16  C   UNL     1      -0.549   2.926   1.210  0.00  0.00    +0.002 A 
ATOM     17  C   UNL     1       0.660   2.258   1.199  0.00  0.00    +0.026 A 
ATOM     18  C   UNL     1       1.180   1.787   0.000  0.00  0.00    +0.050 A 
ATOM     19  C   UNL     1       0.484   1.993  -1.184  0.00  0.00    +0.029 A 
ENDBRANCH   1  18
BRANCH  11  20
ATOM     20  C   UNL     1      -0.096  -3.040   0.804  0.00  0.00    +0.109 A 
ATOM     21  C   UNL     1      -0.780  -3.479   1.877  0.00  0.00    +0.045 A 
ATOM     22  C   UNL     1      -1.958  -4.090   1.389  0.00  0.00    +0.041 A 
ATOM     23  C   UNL     1      -1.920  -3.995   0.048  0.00  0.00    +0.195 A 
ATOM     24  O   UNL     1      -0.790  -3.358  -0.301  0.00  0.00    -0.468 OA
ENDBRANCH  11  20
BRANCH   5  25
ATOM     25  C   UNL     1       6.058   1.845  -0.258  0.00  0.00    +0.105 C 
ATOM     26  N   UNL     1       7.031   2.423  -0.353  0.00  0.00    -0.191 NA
ENDBRANCH   5  25
TORSDOF 3
