REMARK  Name = ZINC51890277
REMARK  4 active torsions:
REMARK  status: ('A' for Active; 'I' for Inactive)
REMARK    1  A    between atoms: C_1  and  C_2
REMARK    2  A    between atoms: C_7  and  C_23
REMARK    3  A    between atoms: N_12  and  C_16
REMARK    4  A    between atoms: C_16  and  C_17
REMARK                            x       y       z     vdW  Elec       q    Type
REMARK                         _______ _______ _______ _____ _____    ______ ____
ROOT
ATOM      1  C   UNL     1      -0.019   1.526   0.010  0.00  0.00    +0.010 C 
ATOM      2  C   UNL     1       0.002  -0.004   0.002  0.00  0.00    +0.019 C 
ATOM      3  C   UNL     1      -1.434  -0.534   0.012  0.00  0.00    +0.006 C 
ATOM      4  C   UNL     1      -2.143  -0.057   1.282  0.00  0.00    +0.001 C 
ATOM      5  C   UNL     1      -1.404  -0.588   2.512  0.00  0.00    +0.006 C 
ATOM      6  C   UNL     1       0.033  -0.059   2.510  0.00  0.00    +0.019 C 
ATOM      7  C   UNL     1       0.740  -0.509   1.237  0.00  0.00    +0.118 C 
ATOM      8  C   UNL     1       2.172  -0.026   1.230  0.00  0.00    +0.247 C 
ATOM      9  O   UNL     1       2.560   1.122   1.252  0.00  0.00    -0.273 OA
ATOM     10  N   UNL     1       2.929  -1.143   1.197  0.00  0.00    -0.224 N 
ATOM     11  C   UNL     1       2.175  -2.249   1.182  0.00  0.00    +0.309 C 
ATOM     12  O   UNL     1       2.628  -3.376   1.152  0.00  0.00    -0.252 OA
ATOM     13  N   UNL     1       0.857  -1.972   1.204  0.00  0.00    -0.284 N 
ATOM     14  C   UNL     1       0.779  -0.606   3.729  0.00  0.00    +0.010 C 
ATOM     15  H   UNL     1       0.128  -2.613   1.199  0.00  0.00    +0.151 HD
ENDROOT
BRANCH  10  16
ATOM     16  C   UNL     1       4.393  -1.145   1.179  0.00  0.00    +0.119 C 
BRANCH  16  17
ATOM     17  C   UNL     1       4.921  -1.177   2.615  0.00  0.00    -0.012 C 
ATOM     18  C   UNL     1       4.594   0.151   3.336  0.00  0.00    -0.016 C 
ATOM     19  C   UNL     1       5.872   0.415   4.171  0.00  0.00    -0.082 C 
ATOM     20  N   UNL     1       6.964  -0.044   3.276  0.00  0.00    +0.379 N 
ATOM     21  C   UNL     1       6.458  -1.270   2.617  0.00  0.00    -0.078 C 
ATOM     22  H   UNL     1       7.169   0.663   2.586  0.00  0.00    -0.086 HD
ATOM     23  H   UNL     1       7.791  -0.255   3.815  0.00  0.00    -0.086 HD
ENDBRANCH  16  17
ENDBRANCH  10  16
TORSDOF 2
