REMARK  Name = ZINC63159985
REMARK  6 active torsions:
REMARK  status: ('A' for Active; 'I' for Inactive)
REMARK    1  A    between atoms: C_7  and  C_10
REMARK    2  A    between atoms: N_12  and  N_13
REMARK    3  A    between atoms: C_14  and  C_16
REMARK    4  A    between atoms: C_21  and  O_22
REMARK    5  A    between atoms: O_22  and  C_23
REMARK    6  A    between atoms: C_23  and  C_24
REMARK                            x       y       z     vdW  Elec       q    Type
REMARK                         _______ _______ _______ _____ _____    ______ ____
ROOT
ATOM      1  N   UNL     1       0.203  -5.517  -0.029  0.00  0.00    -0.230 N 
ATOM      2  C   UNL     1       0.676  -6.779  -0.040  0.00  0.00    +0.264 C 
ATOM      3  O   UNL     1       1.875  -6.980  -0.052  0.00  0.00    -0.269 OA
ATOM      4  H   UNL     1      -0.753  -5.357  -0.019  0.00  0.00    +0.173 HD
ENDROOT
BRANCH   2   5
ATOM      5  C   UNL     1      -0.262  -7.918  -0.037  0.00  0.00    +0.080 A 
ATOM      6  C   UNL     1      -1.641  -7.692  -0.029  0.00  0.00    +0.017 A 
ATOM      7  C   UNL     1      -2.512  -8.760  -0.027  0.00  0.00    +0.001 A 
ATOM      8  C   UNL     1      -2.027 -10.058  -0.032  0.00  0.00    +0.004 A 
ATOM      9  C   UNL     1      -0.667 -10.295  -0.040  0.00  0.00    +0.046 A 
ATOM     10  C   UNL     1       0.224  -9.232  -0.048  0.00  0.00    +0.133 A 
BRANCH  10  11
ATOM     11  O   UNL     1       1.561  -9.464  -0.061  0.00  0.00    -0.485 OA
BRANCH  11  12
ATOM     12  C   UNL     1       1.983 -10.829  -0.072  0.00  0.00    +0.281 C 
BRANCH  12  13
ATOM     13  C   UNL     1       3.488 -10.889  -0.086  0.00  0.00    +0.061 C 
ATOM     14  N   UNL     1       4.308 -10.435  -1.111  0.00  0.00    -0.302 N 
ATOM     15  C   UNL     1       5.614 -10.670  -0.742  0.00  0.00    +0.095 C 
ATOM     16  C   UNL     1       6.792 -10.423  -1.365  0.00  0.00    +0.039 C 
ATOM     17  C   UNL     1       8.041 -10.751  -0.797  0.00  0.00    +0.000 C 
ATOM     18  C   UNL     1       8.125 -11.331   0.406  0.00  0.00    -0.008 C 
ATOM     19  C   UNL     1       6.841 -11.631   1.150  0.00  0.00    +0.139 C 
ATOM     20  N   UNL     1       5.578 -11.263   0.499  0.00  0.00    -0.290 N 
ATOM     21  C   UNL     1       4.252 -11.381   0.882  0.00  0.00    +0.099 C 
ATOM     22  H   UNL     1       4.013 -10.025  -1.939  0.00  0.00    +0.153 HD
ENDBRANCH  12  13
ENDBRANCH  11  12
ENDBRANCH  10  11
ENDBRANCH   2   5
BRANCH   1  25
ATOM     23  C   UNL     1       0.622  -3.174  -0.021  0.00  0.00    +0.258 C 
ATOM     24  O   UNL     1      -0.578  -2.973  -0.009  0.00  0.00    -0.269 OA
ATOM     25  N   UNL     1       1.094  -4.436  -0.032  0.00  0.00    -0.230 N 
ATOM     26  H   UNL     1       2.051  -4.596  -0.042  0.00  0.00    +0.173 HD
BRANCH  23  33
ATOM     27  C   UNL     1      -0.016   1.346   0.009  0.00  0.00    +0.001 A 
ATOM     28  C   UNL     1       1.158   2.116   0.002  0.00  0.00    +0.002 A 
ATOM     29  C   UNL     1       2.384   1.551  -0.012  0.00  0.00    +0.026 A 
ATOM     30  C   UNL     1       2.495   0.083  -0.021  0.00  0.00    +0.043 A 
ATOM     31  N   UNL     1       3.529  -0.711  -0.035  0.00  0.00    -0.380 N 
ATOM     32  C   UNL     1       3.066  -2.103  -0.039  0.00  0.00    +0.154 C 
ATOM     33  C   UNL     1       1.555  -2.042  -0.024  0.00  0.00    +0.044 C 
ATOM     34  C   UNL     1       1.237  -0.701  -0.014  0.00  0.00    +0.008 A 
ATOM     35  C   UNL     1       0.002  -0.004   0.002  0.00  0.00    +0.010 A 
ATOM     36  H   UNL     1       4.456  -0.427  -0.043  0.00  0.00    +0.160 HD
ENDBRANCH  23  33
ENDBRANCH   1  25
TORSDOF 6
