REMARK  Name = ZINC22428338
REMARK  9 active torsions:
REMARK  status: ('A' for Active; 'I' for Inactive)
REMARK    1  A    between atoms: C_1  and  C_2
REMARK    2  A    between atoms: N_6  and  C_7
REMARK    3  A    between atoms: C_10  and  C_13
REMARK    4  A    between atoms: C_13  and  N_14
REMARK    5  A    between atoms: C_15  and  C_17
REMARK    6  A    between atoms: C_17  and  N_18
REMARK    7  A    between atoms: N_18  and  C_19
REMARK    8  A    between atoms: N_18  and  S_26
REMARK    9  A    between atoms: S_26  and  C_29
REMARK                            x       y       z     vdW  Elec       q    Type
REMARK                         _______ _______ _______ _____ _____    ______ ____
ROOT
ATOM      1  N   UNL     1       7.532   0.339  -2.855  0.00  0.00    -0.310 N 
ATOM      2  C   UNL     1       6.602  -0.443  -2.272  0.00  0.00    +0.232 C 
ATOM      3  O   UNL     1       6.937  -1.459  -1.699  0.00  0.00    -0.274 OA
ATOM      4  H   UNL     1       7.228   1.260  -3.374  0.00  0.00    +0.149 HD
ENDROOT
BRANCH   1   5
ATOM      5  C   UNL     1       8.946  -0.037  -2.797  0.00  0.00    +0.139 C 
BRANCH   5   9
ATOM      6  C   UNL     1      11.285   2.896  -4.846  0.00  0.00    +0.048 A 
ATOM      7  C   UNL     1      11.026   3.036  -3.490  0.00  0.00    +0.026 A 
ATOM      8  C   UNL     1      10.270   2.087  -2.830  0.00  0.00    +0.007 A 
ATOM      9  C   UNL     1       9.771   0.998  -3.520  0.00  0.00    -0.030 A 
ATOM     10  C   UNL     1      10.031   0.852  -4.870  0.00  0.00    +0.007 A 
ATOM     11  C   UNL     1      10.782   1.801  -5.536  0.00  0.00    +0.026 A 
BRANCH   6  17
ATOM     12  C   UNL     1      13.693   2.265  -6.649  0.00  0.00    +0.084 C 
ATOM     13  C   UNL     1      13.121   3.621  -6.322  0.00  0.00    +0.088 A 
ATOM     14  N   UNL     1      13.569   4.764  -6.766  0.00  0.00    -0.350 N 
ATOM     15  C   UNL     1      12.821   5.758  -6.266  0.00  0.00    +0.102 A 
ATOM     16  C   UNL     1      11.868   5.216  -5.484  0.00  0.00    +0.110 A 
ATOM     17  N   UNL     1      12.052   3.858  -5.518  0.00  0.00    -0.305 N 
ATOM     18  H   UNL     1      14.434   4.789  -7.444  0.00  0.00    +0.166 HD
ENDBRANCH   6  17
ENDBRANCH   5   9
ENDBRANCH   1   5
BRANCH   2  19
ATOM     19  C   UNL     1       5.147  -0.057  -2.331  0.00  0.00    +0.227 C 
BRANCH  19  20
ATOM     20  N   UNL     1       4.345  -1.062  -1.629  0.00  0.00    -0.193 N 
BRANCH  20  21
ATOM     21  C   UNL     1       3.928  -2.216  -2.299  0.00  0.00    +0.070 A 
ATOM     22  C   UNL     1       4.772  -3.315  -2.383  0.00  0.00    +0.026 A 
ATOM     23  C   UNL     1       4.355  -4.456  -3.041  0.00  0.00    +0.002 A 
ATOM     24  C   UNL     1       3.102  -4.500  -3.625  0.00  0.00    +0.002 A 
ATOM     25  C   UNL     1       2.260  -3.406  -3.548  0.00  0.00    +0.022 A 
ATOM     26  C   UNL     1       2.670  -2.263  -2.887  0.00  0.00    +0.064 A 
ATOM     27 CL   UNL     1       1.613  -0.889  -2.791  0.00  0.00    -0.082 Cl
ENDBRANCH  20  21
BRANCH  20  28
ATOM     28  S   UNL     1       3.934  -0.832  -0.042  0.00  0.00    +0.075 S 
ATOM     29  O   UNL     1       4.902   0.054   0.504  0.00  0.00    -0.150 OA
ATOM     30  O   UNL     1       3.686  -2.120   0.505  0.00  0.00    -0.150 OA
BRANCH  28  31
ATOM     31  C   UNL     1       2.396   0.029  -0.022  0.00  0.00    +0.109 A 
ATOM     32  C   UNL     1       1.208  -0.679  -0.014  0.00  0.00    +0.029 A 
ATOM     33  C   UNL     1       0.002  -0.004   0.002  0.00  0.00    +0.002 A 
ATOM     34  C   UNL     1      -0.017   1.378   0.010  0.00  0.00    +0.000 A 
ATOM     35  C   UNL     1       1.171   2.086   0.002  0.00  0.00    +0.002 A 
ATOM     36  C   UNL     1       2.377   1.411  -0.014  0.00  0.00    +0.029 A 
ENDBRANCH  28  31
ENDBRANCH  20  28
ENDBRANCH  19  20
ENDBRANCH   2  19
TORSDOF 8
