REMARK  Name = ZINC63152895
REMARK  5 active torsions:
REMARK  status: ('A' for Active; 'I' for Inactive)
REMARK    1  A    between atoms: C_4  and  C_7
REMARK    2  A    between atoms: C_18  and  C_20
REMARK    3  A    between atoms: C_20  and  N_21
REMARK    4  A    between atoms: C_24  and  C_29
REMARK    5  A    between atoms: C_29  and  C_30
REMARK                            x       y       z     vdW  Elec       q    Type
REMARK                         _______ _______ _______ _____ _____    ______ ____
ROOT
ATOM      1  C   UNL     1       2.205  -3.447  -2.214  0.00  0.00    +0.214 C 
ENDROOT
BRANCH   1  12
ATOM      2  C   UNL     1       3.002  -1.065   0.595  0.00  0.00    +0.122 C 
ATOM      3  C   UNL     1       2.829  -1.723   1.972  0.00  0.00    +0.102 C 
ATOM      4  S   UNL     1       4.405  -2.517   2.406  0.00  0.00    -0.121 S 
ATOM      5  C   UNL     1       4.850  -3.370   0.926  0.00  0.00    +0.029 A 
ATOM      6  C   UNL     1       5.832  -4.352   0.982  0.00  0.00    +0.016 A 
ATOM      7  C   UNL     1       6.202  -5.031  -0.162  0.00  0.00    +0.001 A 
ATOM      8  C   UNL     1       5.595  -4.731  -1.368  0.00  0.00    +0.002 A 
ATOM      9  C   UNL     1       4.619  -3.758  -1.432  0.00  0.00    +0.024 A 
ATOM     10  C   UNL     1       4.232  -3.070  -0.284  0.00  0.00    +0.050 A 
ATOM     11  N   UNL     1       3.226  -2.108  -0.402  0.00  0.00    -0.261 N 
ATOM     12  C   UNL     1       2.422  -2.147  -1.483  0.00  0.00    +0.238 C 
ATOM     13  O   UNL     1       1.874  -1.136  -1.868  0.00  0.00    -0.273 OA
BRANCH   2  17
ATOM     14  C   UNL     1      -0.524   1.131  -0.400  0.00  0.00    +0.000 A 
ATOM     15  C   UNL     1       0.721   1.640  -0.722  0.00  0.00    +0.000 A 
ATOM     16  C   UNL     1       1.862   0.929  -0.400  0.00  0.00    +0.005 A 
ATOM     17  C   UNL     1       1.758  -0.290   0.244  0.00  0.00    -0.026 A 
ATOM     18  C   UNL     1       0.514  -0.797   0.567  0.00  0.00    +0.005 A 
ATOM     19  C   UNL     1      -0.627  -0.087   0.243  0.00  0.00    +0.000 A 
ENDBRANCH   2  17
ENDBRANCH   1  12
BRANCH   1  20
ATOM     20  N   UNL     1       0.934  -3.392  -2.941  0.00  0.00    -0.216 N 
ATOM     21  C   UNL     1      -0.251  -3.772  -2.423  0.00  0.00    +0.244 C 
ATOM     22  O   UNL     1      -0.459  -4.206  -1.310  0.00  0.00    -0.273 OA
ATOM     23  C   UNL     1      -1.270  -3.541  -3.521  0.00  0.00    +0.165 C 
ATOM     24  N   UNL     1      -0.466  -3.008  -4.634  0.00  0.00    -0.287 N 
ATOM     25  C   UNL     1       0.805  -2.954  -4.198  0.00  0.00    +0.310 C 
ATOM     26  O   UNL     1       1.734  -2.554  -4.872  0.00  0.00    -0.252 OA
ATOM     27  H   UNL     1      -0.790  -2.746  -5.510  0.00  0.00    +0.151 HD
BRANCH  23  28
ATOM     28  C   UNL     1      -2.320  -2.522  -3.075  0.00  0.00    +0.065 C 
BRANCH  28  29
ATOM     29  C   UNL     1      -3.387  -2.403  -4.133  0.00  0.00    -0.039 C 
ATOM     30  C   UNL     1      -4.570  -3.057  -4.172  0.00  0.00    -0.001 A 
ATOM     31  C   UNL     1      -5.194  -4.037  -3.276  0.00  0.00    +0.010 A 
ATOM     32  C   UNL     1      -6.416  -4.526  -3.587  0.00  0.00    +0.001 A 
ATOM     33  C   UNL     1      -7.100  -4.120  -4.741  0.00  0.00    +0.002 A 
ATOM     34  C   UNL     1      -6.592  -3.224  -5.613  0.00  0.00    +0.026 A 
ATOM     35  C   UNL     1      -5.313  -2.645  -5.384  0.00  0.00    +0.043 A 
ATOM     36  N   UNL     1      -4.616  -1.770  -6.069  0.00  0.00    -0.380 N 
ATOM     37  C   UNL     1      -3.353  -1.524  -5.363  0.00  0.00    +0.144 C 
ATOM     38  H   UNL     1      -4.891  -1.353  -6.900  0.00  0.00    +0.160 HD
ENDBRANCH  28  29
ENDBRANCH  23  28
ENDBRANCH   1  20
TORSDOF 5
