REMARK  Name = ZINC16026638
REMARK  7 active torsions:
REMARK  status: ('A' for Active; 'I' for Inactive)
REMARK    1  A    between atoms: C_1  and  C_2
REMARK    2  A    between atoms: C_2  and  C_4
REMARK    3  A    between atoms: C_2  and  O_31
REMARK    4  A    between atoms: C_7  and  C_19
REMARK    5  A    between atoms: N_21  and  C_22
REMARK    6  A    between atoms: C_27  and  O_28
REMARK    7  A    between atoms: O_28  and  C_29
REMARK                            x       y       z     vdW  Elec       q    Type
REMARK                         _______ _______ _______ _____ _____    ______ ____
ROOT
ATOM      1  C   UNL     1      -4.223  -0.278  -0.709  0.00  0.00    -0.040 C 
ATOM      2  C   UNL     1      -3.975  -0.634   0.773  0.00  0.00    -0.001 C 
ATOM      3  C   UNL     1      -2.969   0.424   1.277  0.00  0.00    +0.076 C 
ATOM      4  C   UNL     1      -2.687   1.309   0.056  0.00  0.00    +0.049 C 
ATOM      5  C   UNL     1      -1.259   1.772   0.021  0.00  0.00    -0.028 A 
ATOM      6  C   UNL     1      -0.049   1.114  -0.011  0.00  0.00    +0.004 A 
ATOM      7  C   UNL     1       1.131   1.836  -0.029  0.00  0.00    +0.000 A 
ATOM      8  C   UNL     1       1.093   3.219  -0.009  0.00  0.00    +0.002 A 
ATOM      9  C   UNL     1      -0.116   3.881   0.028  0.00  0.00    +0.023 A 
ATOM     10  C   UNL     1      -1.309   3.163   0.046  0.00  0.00    +0.036 A 
ATOM     11  N   UNL     1      -2.636   3.597   0.083  0.00  0.00    -0.286 N 
ATOM     12  C   UNL     1      -3.507   2.570   0.090  0.00  0.00    +0.211 C 
ATOM     13  O   UNL     1      -4.717   2.646   0.120  0.00  0.00    -0.277 OA
ATOM     14  H   UNL     1      -2.899   4.531   0.100  0.00  0.00    +0.155 HD
ATOM     15  N   UNL     1      -3.033   0.486  -1.091  0.00  0.00    +0.395 N 
ATOM     16  H   UNL     1      -3.237   1.079  -1.904  0.00  0.00    -0.083 HD
ATOM     17  H   UNL     1      -2.259  -0.150  -1.316  0.00  0.00    -0.083 HD
ENDROOT
BRANCH   3  18
ATOM     18  C   UNL     1      -1.700  -0.237   1.749  0.00  0.00    +0.220 C 
ATOM     19  O   UNL     1      -1.417  -1.352   1.363  0.00  0.00    -0.275 OA
ATOM     20  N   UNL     1      -0.879   0.409   2.601  0.00  0.00    -0.282 N 
ATOM     21  H   UNL     1      -1.131   1.278   2.952  0.00  0.00    +0.155 HD
BRANCH  20  22
ATOM     22  C   UNL     1       0.338  -0.173   2.979  0.00  0.00    +0.077 A 
ATOM     23  C   UNL     1       0.490  -1.552   2.943  0.00  0.00    +0.047 A 
ATOM     24  C   UNL     1       1.694  -2.124   3.312  0.00  0.00    +0.043 A 
ATOM     25  C   UNL     1       2.744  -1.325   3.728  0.00  0.00    +0.024 A 
ATOM     26  C   UNL     1       2.597   0.049   3.771  0.00  0.00    +0.049 A 
ATOM     27  C   UNL     1       1.396   0.630   3.397  0.00  0.00    +0.141 A 
ATOM     28 CL   UNL     1       1.885  -3.849   3.259  0.00  0.00    -0.083 Cl
BRANCH  27  29
ATOM     29  O   UNL     1       1.250   1.981   3.439  0.00  0.00    -0.493 OA
ATOM     30  C   UNL     1       2.378   2.742   3.878  0.00  0.00    +0.277 C 
ENDBRANCH  27  29
ENDBRANCH  20  22
ENDBRANCH   3  18
BRANCH   1  32
ATOM     31  C   UNL     1      -4.482  -1.178  -3.026  0.00  0.00    +0.036 C 
ATOM     32  C   UNL     1      -4.362  -1.551  -1.547  0.00  0.00    +0.098 C 
BRANCH  32  33
ATOM     33  O   UNL     1      -3.210  -2.375  -1.355  0.00  0.00    -0.394 OA
ATOM     34  H   UNL     1      -2.378  -1.954  -1.612  0.00  0.00    +0.210 HD
ENDBRANCH  32  33
ENDBRANCH   1  32
TORSDOF 5
