REMARK  Name = ZINC38583088
REMARK  6 active torsions:
REMARK  status: ('A' for Active; 'I' for Inactive)
REMARK    1  A    between atoms: C_1  and  C_2
REMARK    2  A    between atoms: C_2  and  C_3
REMARK    3  A    between atoms: C_2  and  C_4
REMARK    4  A    between atoms: C_4  and  C_5
REMARK    5  A    between atoms: C_12  and  C_20
REMARK    6  A    between atoms: C_12  and  C_21
REMARK                            x       y       z     vdW  Elec       q    Type
REMARK                         _______ _______ _______ _____ _____    ______ ____
ROOT
ATOM      1  C   UNL     1      -2.125  -0.137  -1.266  0.00  0.00    +0.124 C 
ATOM      2  N   UNL     1      -1.446   0.553  -2.151  0.00  0.00    -0.161 NA
ATOM      3  C   UNL     1      -1.972   0.954  -3.313  0.00  0.00    +0.271 C 
ATOM      4  O   UNL     1      -1.311   1.591  -4.116  0.00  0.00    -0.268 OA
ATOM      5  C   UNL     1      -3.398   0.597  -3.598  0.00  0.00    +0.071 C 
ATOM      6  C   UNL     1      -4.148   0.955  -4.654  0.00  0.00    -0.037 C 
ATOM      7  C   UNL     1      -3.732   1.989  -5.699  0.00  0.00    +0.067 C 
ATOM      8  C   UNL     1      -4.879   3.008  -5.772  0.00  0.00    +0.068 C 
ATOM      9  O   UNL     1      -6.128   2.337  -5.931  0.00  0.00    -0.372 OA
ATOM     10  C   UNL     1      -6.529   1.497  -4.844  0.00  0.00    +0.179 C 
ATOM     11  C   UNL     1      -5.538   0.332  -4.748  0.00  0.00    +0.105 C 
ATOM     12  S   UNL     1      -5.690  -0.497  -3.122  0.00  0.00    -0.095 S 
ATOM     13  C   UNL     1      -4.045  -0.190  -2.527  0.00  0.00    +0.112 C 
ATOM     14  N   UNL     1      -3.383  -0.508  -1.440  0.00  0.00    -0.227 NA
ATOM     15  C   UNL     1      -4.652   3.943  -6.962  0.00  0.00    +0.041 C 
ATOM     16  C   UNL     1      -4.908   3.832  -4.484  0.00  0.00    +0.041 C 
ENDROOT
BRANCH   1  17
ATOM     17  C   UNL     1      -1.433  -0.534   0.013  0.00  0.00    +0.076 C 
BRANCH  17  19
ATOM     18  C   UNL     1      -0.019   1.526   0.010  0.00  0.00    +0.007 C 
ATOM     19  C   UNL     1       0.002  -0.004   0.002  0.00  0.00    -0.010 C 
ATOM     20  C   UNL     1       0.742  -0.511   1.242  0.00  0.00    +0.007 C 
ENDBRANCH  17  19
ENDBRANCH   1  17
TORSDOF 2
