REMARK  Name = ZINC62257754
REMARK  9 active torsions:
REMARK  status: ('A' for Active; 'I' for Inactive)
REMARK    1  A    between atoms: C_3  and  C_12
REMARK    2  A    between atoms: C_6  and  O_7
REMARK    3  A    between atoms: O_7  and  C_8
REMARK    4  A    between atoms: C_8  and  C_9
REMARK    5  A    between atoms: C_9  and  O_10
REMARK    6  A    between atoms: C_12  and  N_13
REMARK    7  A    between atoms: N_13  and  C_14
REMARK    8  A    between atoms: N_18  and  C_20
REMARK    9  A    between atoms: C_20  and  C_21
REMARK                            x       y       z     vdW  Elec       q    Type
REMARK                         _______ _______ _______ _____ _____    ______ ____
ROOT
ATOM      1  N   UNL     1       4.289   2.125   1.309  0.00  0.00    -0.311 NA
ATOM      2  H   UNL     1       3.655   2.462   2.018  0.00  0.00    +0.122 HD
ENDROOT
BRANCH   1   3
ATOM      3  C   UNL     1       5.555   2.869   1.337  0.00  0.00    +0.037 C 
ATOM      4  C   UNL     1       5.272   4.348   1.617  0.00  0.00    +0.015 C 
ATOM      5  C   UNL     1       6.602   5.101   1.723  0.00  0.00    -0.017 C 
ATOM      6  C   UNL     1       7.460   4.458   2.814  0.00  0.00    -0.078 C 
ATOM      7  N   UNL     1       7.717   3.053   2.476  0.00  0.00    +0.386 N 
ATOM      8  C   UNL     1       6.452   2.309   2.443  0.00  0.00    -0.059 C 
ATOM      9  H   UNL     1       8.160   3.001   1.571  0.00  0.00    -0.081 HD
BRANCH   7  10
ATOM     10  C   UNL     1       8.605   2.462   3.486  0.00  0.00    +0.018 C 
BRANCH  10  11
ATOM     11  C   UNL     1       9.950   3.138   3.430  0.00  0.00    +0.194 C 
ATOM     12  O   UNL     1      10.150   4.025   2.627  0.00  0.00    -0.278 OA
ATOM     13  N   UNL     1      10.932   2.757   4.271  0.00  0.00    -0.331 N 
ATOM     14  H   UNL     1      10.772   2.048   4.913  0.00  0.00    +0.145 HD
ATOM     15  H   UNL     1      11.798   3.193   4.235  0.00  0.00    +0.145 HD
ENDBRANCH  10  11
ENDBRANCH   7  10
ENDBRANCH   1   3
BRANCH   1  16
ATOM     16  C   UNL     1       3.671   2.188  -0.023  0.00  0.00    +0.117 C 
BRANCH  16  19
ATOM     17  C   UNL     1      -0.017   1.383   0.010  0.00  0.00    +0.046 A 
ATOM     18  C   UNL     1       1.171   2.089   0.002  0.00  0.00    +0.009 A 
ATOM     19  C   UNL     1       2.377   1.415  -0.013  0.00  0.00    -0.019 A 
ATOM     20  C   UNL     1       2.399   0.032  -0.021  0.00  0.00    +0.026 A 
ATOM     21  C   UNL     1       1.214  -0.679  -0.014  0.00  0.00    +0.061 A 
ATOM     22  C   UNL     1       0.002  -0.004   0.002  0.00  0.00    +0.122 A 
ATOM     23 BR   UNL     1       4.052  -0.887  -0.043  0.00  0.00    -0.050 Br
BRANCH  22  24
ATOM     24  O   UNL     1      -1.165  -0.701   0.010  0.00  0.00    -0.490 OA
BRANCH  24  25
ATOM     25  C   UNL     1      -1.069  -2.126   0.001  0.00  0.00    +0.256 C 
BRANCH  25  26
ATOM     26  C   UNL     1      -2.475  -2.732   0.012  0.00  0.00    +0.196 C 
BRANCH  26  27
ATOM     27  O   UNL     1      -3.149  -2.390  -1.201  0.00  0.00    -0.392 OA
ATOM     28  H   UNL     1      -4.048  -2.742  -1.263  0.00  0.00    +0.210 HD
ENDBRANCH  26  27
ENDBRANCH  25  26
ENDBRANCH  24  25
ENDBRANCH  22  24
ENDBRANCH  16  19
ENDBRANCH   1  16
TORSDOF 9
