REMARK  Name = ZINC67344637
REMARK  9 active torsions:
REMARK  status: ('A' for Active; 'I' for Inactive)
REMARK    1  A    between atoms: C_1  and  C_2
REMARK    2  A    between atoms: C_2  and  O_3
REMARK    3  A    between atoms: O_3  and  C_4
REMARK    4  A    between atoms: C_9  and  N_10
REMARK    5  A    between atoms: N_13  and  C_14
REMARK    6  A    between atoms: C_14  and  C_15
REMARK    7  A    between atoms: C_15  and  C_17
REMARK    8  A    between atoms: C_15  and  O_28
REMARK    9  A    between atoms: C_17  and  N_18
REMARK                            x       y       z     vdW  Elec       q    Type
REMARK                         _______ _______ _______ _____ _____    ______ ____
ROOT
ATOM      1  N   UNL     1      -3.939  -1.514   0.454  0.00  0.00    -0.266 N 
ATOM      2  C   UNL     1      -5.160  -2.055   0.271  0.00  0.00    +0.304 C 
ATOM      3  O   UNL     1      -5.293  -3.263   0.245  0.00  0.00    -0.253 OA
ATOM      4  N   UNL     1      -6.235  -1.256   0.116  0.00  0.00    -0.297 N 
ATOM      5  H   UNL     1      -3.844  -0.554   0.554  0.00  0.00    +0.156 HD
ATOM      6  H   UNL     1      -6.129  -0.292   0.137  0.00  0.00    +0.150 HD
ENDROOT
BRANCH   1  12
ATOM      7  C   UNL     1      -1.659  -1.911   1.163  0.00  0.00    +0.142 A 
ATOM      8  C   UNL     1      -0.544  -2.732   1.213  0.00  0.00    +0.050 A 
ATOM      9  C   UNL     1      -0.571  -3.972   0.602  0.00  0.00    +0.042 A 
ATOM     10  C   UNL     1      -1.710  -4.397  -0.061  0.00  0.00    +0.125 A 
ATOM     11  C   UNL     1      -2.827  -3.582  -0.115  0.00  0.00    +0.065 A 
ATOM     12  C   UNL     1      -2.808  -2.340   0.502  0.00  0.00    +0.079 A 
ATOM     13  F   UNL     1      -1.731  -5.610  -0.656  0.00  0.00    -0.205 F 
BRANCH   7  14
ATOM     14  O   UNL     1      -1.634  -0.691   1.764  0.00  0.00    -0.490 OA
BRANCH  14  16
ATOM     15  C   UNL     1      -0.583   1.075   3.035  0.00  0.00    +0.048 C 
ATOM     16  C   UNL     1      -0.422  -0.318   2.424  0.00  0.00    +0.226 C 
ENDBRANCH  14  16
ENDBRANCH   7  14
ENDBRANCH   1  12
BRANCH   4  17
ATOM     17  C   UNL     1      -7.562  -1.844  -0.084  0.00  0.00    +0.135 C 
BRANCH  17  18
ATOM     18  C   UNL     1      -8.597  -0.727  -0.231  0.00  0.00    +0.115 C 
BRANCH  18  19
ATOM     19  O   UNL     1      -8.330   0.016  -1.422  0.00  0.00    -0.392 OA
ATOM     20  H   UNL     1      -8.363  -0.512  -2.231  0.00  0.00    +0.210 HD
ENDBRANCH  18  19
BRANCH  18  21
ATOM     21  C   UNL     1      -9.998  -1.338  -0.315  0.00  0.00    -0.045 C 
BRANCH  21  22
ATOM     22  N   UNL     1     -10.986  -0.270  -0.516  0.00  0.00    +0.384 N 
ATOM     23  C   UNL     1     -11.037   0.586   0.678  0.00  0.00    -0.074 C 
ATOM     24  C   UNL     1     -11.828   1.850   0.340  0.00  0.00    +0.017 C 
ATOM     25  C   UNL     1     -13.145   1.474  -0.289  0.00  0.00    -0.048 A 
ATOM     26  C   UNL     1     -14.148   2.429  -0.355  0.00  0.00    +0.004 A 
ATOM     27  C   UNL     1     -15.366   2.122  -0.927  0.00  0.00    +0.000 A 
ATOM     28  C   UNL     1     -15.587   0.855  -1.436  0.00  0.00    +0.000 A 
ATOM     29  C   UNL     1     -14.590  -0.097  -1.370  0.00  0.00    +0.002 A 
ATOM     30  C   UNL     1     -13.366   0.210  -0.794  0.00  0.00    -0.061 A 
ATOM     31  C   UNL     1     -12.309  -0.862  -0.736  0.00  0.00    -0.043 C 
ATOM     32  H   UNL     1     -10.726   0.283  -1.319  0.00  0.00    -0.081 HD
ENDBRANCH  21  22
ENDBRANCH  18  21
ENDBRANCH  17  18
ENDBRANCH   4  17
TORSDOF 8
