REMARK  Name = ZINC12373421
REMARK  11 active torsions:
REMARK  status: ('A' for Active; 'I' for Inactive)
REMARK    1  A    between atoms: C_2  and  C_3
REMARK    2  A    between atoms: C_3  and  C_4
REMARK    3  A    between atoms: C_4  and  C_5
REMARK    4  A    between atoms: C_4  and  C_8
REMARK    5  A    between atoms: C_4  and  O_29
REMARK    6  A    between atoms: C_5  and  C_6
REMARK    7  A    between atoms: C_8  and  N_9
REMARK    8  A    between atoms: C_10  and  C_12
REMARK    9  A    between atoms: C_12  and  C_13
REMARK   10  A    between atoms: C_20  and  C_21
REMARK   11  A    between atoms: C_20  and  N_56
REMARK                            x       y       z     vdW  Elec       q    Type
REMARK                         _______ _______ _______ _____ _____    ______ ____
ROOT
ATOM      1  C   UNL     1       7.426   2.894   2.675  0.00  0.00    +0.028 C 
ATOM      2  C   UNL     1       7.039   4.256   3.177  0.00  0.00    +0.200 C 
ATOM      3  O   UNL     1       6.189   4.337   4.038  0.00  0.00    -0.278 OA
ATOM      4  N   UNL     1       7.592   5.382   2.715  0.00  0.00    -0.318 N 
ATOM      5  C   UNL     1       8.597   5.396   1.655  0.00  0.00    +0.085 C 
ATOM      6  C   UNL     1       9.217   4.006   1.503  0.00  0.00    -0.058 C 
ATOM      7  H   UNL     1       7.314   6.227   3.101  0.00  0.00    +0.149 HD
ATOM      8  N   UNL     1       8.119   3.026   1.379  0.00  0.00    +0.391 N 
ATOM      9  H   UNL     1       7.451   3.358   0.673  0.00  0.00    -0.080 HD
ENDROOT
BRANCH   1  10
ATOM     10  C   UNL     1       6.167   2.047   2.481  0.00  0.00    +0.089 C 
BRANCH  10  12
ATOM     11  N   UNL     1       4.026   2.220   1.255  0.00  0.00    -0.313 N 
ATOM     12  C   UNL     1       5.254   2.724   1.492  0.00  0.00    +0.212 C 
ATOM     13  O   UNL     1       5.623   3.721   0.909  0.00  0.00    -0.276 OA
ATOM     14  H   UNL     1       3.731   1.423   1.721  0.00  0.00    +0.149 HD
BRANCH  11  15
ATOM     15  C   UNL     1       3.138   2.878   0.293  0.00  0.00    +0.139 C 
BRANCH  15  16
ATOM     16  C   UNL     1       1.868   2.043   0.117  0.00  0.00    +0.088 C 
BRANCH  16  17
ATOM     17  O   UNL     1       1.181   1.952   1.367  0.00  0.00    -0.386 OA
ATOM     18  H   UNL     1       1.699   1.539   2.071  0.00  0.00    +0.210 HD
ENDBRANCH  16  17
BRANCH  16  19
ATOM     19  C   UNL     1       2.243   0.639  -0.362  0.00  0.00    +0.063 C 
BRANCH  19  21
ATOM     20  C   UNL     1       0.821  -0.699  -1.827  0.00  0.00    +0.004 C 
ATOM     21  C   UNL     1       0.989  -0.144  -0.653  0.00  0.00    -0.032 C 
ENDBRANCH  19  21
ENDBRANCH  16  19
BRANCH  16  22
ATOM     22  C   UNL     1       0.959   2.709  -0.917  0.00  0.00    +0.063 C 
BRANCH  22  23
ATOM     23  C   UNL     1       0.599   4.096  -0.451  0.00  0.00    -0.032 C 
ATOM     24  C   UNL     1       0.862   5.131  -1.209  0.00  0.00    +0.004 C 
ENDBRANCH  22  23
ENDBRANCH  16  22
ENDBRANCH  15  16
ENDBRANCH  11  15
ENDBRANCH  10  12
ENDBRANCH   1  10
BRANCH   8  25
ATOM     25  C   UNL     1       8.655   1.713   0.955  0.00  0.00    -0.042 C 
BRANCH  25  26
ATOM     26  C   UNL     1       9.018   1.783  -0.506  0.00  0.00    -0.061 A 
ATOM     27  C   UNL     1      10.294   2.161  -0.884  0.00  0.00    +0.005 A 
ATOM     28  C   UNL     1      10.629   2.226  -2.223  0.00  0.00    +0.041 A 
ATOM     29  C   UNL     1       9.687   1.913  -3.188  0.00  0.00    +0.158 A 
ATOM     30  C   UNL     1       8.408   1.535  -2.809  0.00  0.00    +0.159 A 
ATOM     31  C   UNL     1       8.077   1.465  -1.467  0.00  0.00    +0.043 A 
ATOM     32  F   UNL     1       7.487   1.229  -3.750  0.00  0.00    -0.202 F 
ATOM     33  F   UNL     1      10.014   1.976  -4.497  0.00  0.00    -0.202 F 
ENDBRANCH  25  26
ENDBRANCH   8  25
TORSDOF 11
