REMARK  Name = ZINC05536877
REMARK  12 active torsions:
REMARK  status: ('A' for Active; 'I' for Inactive)
REMARK    1  A    between atoms: C_1  and  C_2
REMARK    2  A    between atoms: C_2  and  C_40
REMARK    3  A    between atoms: C_6  and  C_29
REMARK    4  A    between atoms: C_7  and  C_27
REMARK    5  A    between atoms: N_10  and  C_11
REMARK    6  A    between atoms: C_13  and  O_26
REMARK    7  A    between atoms: C_15  and  O_25
REMARK    8  A    between atoms: C_17  and  O_24
REMARK    9  A    between atoms: C_19  and  C_22
REMARK   10  A    between atoms: C_22  and  O_23
REMARK   11  A    between atoms: C_32  and  O_35
REMARK   12  A    between atoms: O_35  and  C_36
REMARK                            x       y       z     vdW  Elec       q    Type
REMARK                         _______ _______ _______ _____ _____    ______ ____
ROOT
ATOM      1  C   UNL     1       0.300   1.649   1.944  0.00  0.00    +0.011 C 
ATOM      2  C   UNL     1       0.846   2.588   0.867  0.00  0.00    -0.023 C 
ATOM      3  C   UNL     1      -0.208   3.637   0.523  0.00  0.00    +0.061 C 
ATOM      4  C   UNL     1      -1.418   3.007  -0.115  0.00  0.00    +0.034 A 
ATOM      5  C   UNL     1      -1.341   1.783  -0.755  0.00  0.00    +0.046 A 
ATOM      6  C   UNL     1      -2.543   1.208  -1.367  0.00  0.00    +0.014 A 
ATOM      7  C   UNL     1      -3.738   1.939  -1.280  0.00  0.00    +0.091 A 
ATOM      8  C   UNL     1      -3.721   3.184  -0.603  0.00  0.00    +0.107 A 
ATOM      9  S   UNL     1      -5.167   4.092  -0.480  0.00  0.00    -0.031 S 
ATOM     10  N   UNL     1      -2.595   3.664  -0.058  0.00  0.00    -0.308 N 
ATOM     11  C   UNL     1      -0.073   1.048  -0.810  0.00  0.00    +0.166 C 
ATOM     12  O   UNL     1      -0.033  -0.106  -1.183  0.00  0.00    -0.292 OA
ATOM     13  C   UNL     1       1.186   1.780  -0.393  0.00  0.00    +0.086 C 
ATOM     14  C   UNL     1       2.108   3.281   1.385  0.00  0.00    +0.011 C 
ENDROOT
BRANCH  10  15
ATOM     15  C   UNL     1      -2.644   4.958   0.627  0.00  0.00    +0.252 C 
ATOM     16  C   UNL     1      -1.618   5.907   0.002  0.00  0.00    +0.195 C 
ATOM     17  C   UNL     1      -1.983   6.145  -1.466  0.00  0.00    +0.178 C 
ATOM     18  C   UNL     1      -3.409   6.699  -1.543  0.00  0.00    +0.177 C 
ATOM     19  C   UNL     1      -4.366   5.720  -0.858  0.00  0.00    +0.177 C 
ATOM     20  O   UNL     1      -3.952   5.519   0.495  0.00  0.00    -0.346 OA
BRANCH  18  21
ATOM     21  O   UNL     1      -3.468   7.965  -0.882  0.00  0.00    -0.386 OA
ATOM     22  H   UNL     1      -2.885   8.635  -1.265  0.00  0.00    +0.210 HD
ENDBRANCH  18  21
BRANCH  17  23
ATOM     23  O   UNL     1      -1.074   7.087  -2.038  0.00  0.00    -0.386 OA
ATOM     24  H   UNL     1      -1.250   7.290  -2.967  0.00  0.00    +0.210 HD
ENDBRANCH  17  23
BRANCH  16  25
ATOM     25  O   UNL     1      -0.317   5.322   0.082  0.00  0.00    -0.385 OA
ATOM     26  H   UNL     1       0.396   5.907  -0.210  0.00  0.00    +0.210 HD
ENDBRANCH  16  25
BRANCH  19  27
ATOM     27  C   UNL     1      -5.784   6.294  -0.877  0.00  0.00    +0.190 C 
BRANCH  27  28
ATOM     28  O   UNL     1      -6.570   5.656   0.132  0.00  0.00    -0.392 OA
ATOM     29  H   UNL     1      -7.483   5.972   0.177  0.00  0.00    +0.210 HD
ENDBRANCH  27  28
ENDBRANCH  19  27
ENDBRANCH  10  15
BRANCH   6  30
ATOM     30  C   UNL     1      -2.497  -0.095  -2.058  0.00  0.00    -0.016 A 
ATOM     31  C   UNL     1      -2.212  -1.260  -1.339  0.00  0.00    +0.012 A 
ATOM     32  C   UNL     1      -2.175  -2.474  -1.987  0.00  0.00    +0.046 A 
ATOM     33  C   UNL     1      -2.409  -2.542  -3.355  0.00  0.00    +0.120 A 
ATOM     34  C   UNL     1      -2.687  -1.385  -4.075  0.00  0.00    +0.046 A 
ATOM     35  C   UNL     1      -2.731  -0.167  -3.434  0.00  0.00    +0.012 A 
BRANCH  33  36
ATOM     36  O   UNL     1      -2.365  -3.740  -3.991  0.00  0.00    -0.495 OA
ATOM     37  C   UNL     1      -2.074  -4.888  -3.192  0.00  0.00    +0.277 C 
ENDBRANCH  33  36
ENDBRANCH   6  30
BRANCH   7  38
ATOM     38  C   UNL     1      -4.948   1.438  -1.861  0.00  0.00    +0.102 C 
ATOM     39  N   UNL     1      -5.907   1.041  -2.321  0.00  0.00    -0.191 NA
ENDBRANCH   7  38
TORSDOF 9
