REMARK  Name = ZINC07570380
REMARK  9 active torsions:
REMARK  status: ('A' for Active; 'I' for Inactive)
REMARK    1  A    between atoms: C_1  and  C_2
REMARK    2  A    between atoms: C_8  and  N_10
REMARK    3  A    between atoms: N_10  and  C_11
REMARK    4  A    between atoms: C_11  and  N_13
REMARK    5  A    between atoms: N_13  and  C_14
REMARK    6  A    between atoms: C_16  and  C_21
REMARK    7  A    between atoms: C_16  and  C_22
REMARK    8  A    between atoms: C_17  and  C_19
REMARK    9  A    between atoms: C_17  and  C_20
REMARK                            x       y       z     vdW  Elec       q    Type
REMARK                         _______ _______ _______ _____ _____    ______ ____
ROOT
ATOM      1  N   UNL     1       0.968  -1.996   1.035  0.00  0.00    -0.324 N 
ATOM      2  H   UNL     1       0.744  -2.460   0.213  0.00  0.00    +0.148 HD
ENDROOT
BRANCH   1   3
ATOM      3  C   UNL     1       0.952  -0.529   1.078  0.00  0.00    +0.069 C 
ATOM      4  C   UNL     1       0.002  -0.004   0.002  0.00  0.00    +0.009 C 
ATOM      5  C   UNL     1      -0.019   1.522   0.010  0.00  0.00    -0.072 C 
ATOM      6  C   UNL     1       2.365   1.526   0.802  0.00  0.00    -0.072 C 
ATOM      7  C   UNL     1       2.356  -0.001   0.786  0.00  0.00    +0.009 C 
ATOM      8  C   UNL     1       2.299   2.024   2.250  0.00  0.00    -0.010 C 
ATOM      9  C   UNL     1       3.719   1.989   0.220  0.00  0.00    -0.010 C 
ATOM     10  C   UNL     1      -0.758   1.985  -1.265  0.00  0.00    -0.010 C 
ATOM     11  C   UNL     1      -0.833   2.018   1.212  0.00  0.00    -0.010 C 
ATOM     12  N   UNL     1       1.321   2.167  -0.042  0.00  0.00    +0.386 N 
ATOM     13  H   UNL     1       1.218   3.141   0.266  0.00  0.00    -0.084 HD
ATOM     14  H   UNL     1       1.645   2.149  -1.016  0.00  0.00    -0.084 HD
ENDBRANCH   1   3
BRANCH   1  15
ATOM     15  C   UNL     1       1.295  -2.700   2.138  0.00  0.00    +0.131 C 
ATOM     16  S   UNL     1       1.691  -1.881   3.589  0.00  0.00    -0.019 S 
BRANCH  15  17
ATOM     17  N   UNL     1       1.310  -4.047   2.098  0.00  0.00    -0.323 N 
ATOM     18  H   UNL     1       1.085  -4.510   1.276  0.00  0.00    +0.148 HD
BRANCH  17  25
ATOM     19  C   UNL     1      -0.486  -6.071   3.130  0.00  0.00    +0.009 C 
ATOM     20  C   UNL     1       1.036  -6.203   3.218  0.00  0.00    +0.006 C 
ATOM     21  C   UNL     1       1.406  -7.001   4.470  0.00  0.00    +0.005 C 
ATOM     22  C   UNL     1       2.928  -7.133   4.559  0.00  0.00    +0.000 C 
ATOM     23  C   UNL     1       3.557  -5.741   4.637  0.00  0.00    +0.002 C 
ATOM     24  C   UNL     1       3.186  -4.943   3.385  0.00  0.00    +0.022 C 
ATOM     25  C   UNL     1       1.665  -4.811   3.297  0.00  0.00    +0.075 C 
ENDBRANCH  17  25
ENDBRANCH  15  17
ENDBRANCH   1  15
TORSDOF 4
