REMARK  Name = ZINC36824767
REMARK  12 active torsions:
REMARK  status: ('A' for Active; 'I' for Inactive)
REMARK    1  A    between atoms: C_1  and  C_2
REMARK    2  A    between atoms: C_2  and  C_3
REMARK    3  A    between atoms: C_3  and  N_4
REMARK    4  A    between atoms: N_4  and  C_5
REMARK    5  A    between atoms: C_5  and  C_6
REMARK    6  A    between atoms: C_8  and  O_20
REMARK    7  A    between atoms: C_9  and  O_13
REMARK    8  A    between atoms: O_13  and  C_14
REMARK    9  A    between atoms: C_14  and  C_16
REMARK   10  A    between atoms: C_14  and  C_17
REMARK   11  A    between atoms: O_20  and  C_21
REMARK   12  A    between atoms: C_21  and  C_22
REMARK                            x       y       z     vdW  Elec       q    Type
REMARK                         _______ _______ _______ _____ _____    ______ ____
ROOT
ATOM      1  C   UNL     1       1.446  -3.947  -2.482  0.00  0.00    -0.060 A 
ATOM      2  C   UNL     1       2.496  -4.626  -1.891  0.00  0.00    +0.051 A 
ATOM      3  C   UNL     1       2.517  -6.011  -1.898  0.00  0.00    +0.163 A 
ATOM      4  C   UNL     1       1.479  -6.717  -2.499  0.00  0.00    +0.177 A 
ATOM      5  C   UNL     1       0.429  -6.031  -3.089  0.00  0.00    +0.063 A 
ATOM      6  C   UNL     1       0.413  -4.647  -3.075  0.00  0.00    +0.021 A 
ATOM      7 BR   UNL     1      -0.983  -6.985  -3.908  0.00  0.00    -0.046 Br
ENDROOT
BRANCH   1   8
ATOM      8  C   UNL     1       1.426  -2.440  -2.474  0.00  0.00    -0.047 C 
BRANCH   8   9
ATOM      9  N   UNL     1       0.738  -1.966  -1.265  0.00  0.00    +0.382 N 
ATOM     10  H   UNL     1       1.226  -2.301  -0.447  0.00  0.00    -0.085 HD
ATOM     11  H   UNL     1      -0.208  -2.316  -1.258  0.00  0.00    -0.085 HD
BRANCH   9  12
ATOM     12  C   UNL     1       0.718  -0.497  -1.257  0.00  0.00    -0.082 C 
BRANCH  12  14
ATOM     13  C   UNL     1      -0.019   1.526   0.010  0.00  0.00    +0.002 C 
ATOM     14  C   UNL     1       0.002  -0.004   0.002  0.00  0.00    -0.022 C 
ENDBRANCH  12  14
ENDBRANCH   9  12
ENDBRANCH   8   9
ENDBRANCH   1   8
BRANCH   4  15
ATOM     15  O   UNL     1       1.495  -8.077  -2.508  0.00  0.00    -0.475 OA
BRANCH  15  16
ATOM     16  C   UNL     1       0.872  -8.741  -1.407  0.00  0.00    +0.255 C 
ATOM     17  C   UNL     1       1.903  -8.967  -0.299  0.00  0.00    +0.062 C 
BRANCH  16  18
ATOM     18  C   UNL     1       0.326 -10.068  -1.864  0.00  0.00    +0.251 C 
ATOM     19  O   UNL     1       0.536 -10.453  -2.995  0.00  0.00    -0.272 OA
ATOM     20  N   UNL     1      -0.395 -10.828  -1.017  0.00  0.00    -0.326 N 
ATOM     21  H   UNL     1      -0.563 -10.521  -0.112  0.00  0.00    +0.145 HD
ATOM     22  H   UNL     1      -0.747 -11.683  -1.311  0.00  0.00    +0.145 HD
ENDBRANCH  16  18
ENDBRANCH  15  16
ENDBRANCH   4  15
BRANCH   3  23
ATOM     23  O   UNL     1       3.549  -6.680  -1.318  0.00  0.00    -0.489 OA
BRANCH  23  24
ATOM     24  C   UNL     1       4.580  -5.890  -0.720  0.00  0.00    +0.226 C 
ATOM     25  C   UNL     1       5.647  -6.811  -0.124  0.00  0.00    +0.048 C 
ENDBRANCH  23  24
ENDBRANCH   3  23
TORSDOF 9
