REMARK  Name = ZINC12239089
REMARK  4 active torsions:
REMARK  status: ('A' for Active; 'I' for Inactive)
REMARK    1  A    between atoms: C_6  and  S_7
REMARK    2  A    between atoms: S_7  and  N_10
REMARK    3  A    between atoms: C_13  and  C_16
REMARK    4  A    between atoms: C_13  and  N_57
REMARK                            x       y       z     vdW  Elec       q    Type
REMARK                         _______ _______ _______ _____ _____    ______ ____
ROOT
ATOM      1  N   UNL     1      -3.546  -2.123   0.718  0.00  0.00    -0.177 NA
ATOM      2  C   UNL     1      -2.726  -2.615  -0.398  0.00  0.00    +0.108 C 
ATOM      3  C   UNL     1      -1.303  -2.070  -0.243  0.00  0.00    +0.014 C 
ATOM      4  C   UNL     1      -1.355  -0.545  -0.126  0.00  0.00    +0.015 C 
ATOM      5  C   UNL     1      -2.161  -0.153   1.115  0.00  0.00    +0.014 C 
ATOM      6  C   UNL     1      -3.594  -0.677   0.975  0.00  0.00    +0.108 C 
ENDROOT
BRANCH   4  12
ATOM      7  C   UNL     1       0.005   1.453   0.019  0.00  0.00    -0.077 C 
ATOM      8  C   UNL     1       1.445   1.970  -0.007  0.00  0.00    -0.019 C 
ATOM      9  C   UNL     1       2.202   1.419   1.205  0.00  0.00    -0.004 C 
ATOM     10  C   UNL     1       2.151  -0.111   1.176  0.00  0.00    -0.019 C 
ATOM     11  C   UNL     1       0.691  -0.568   1.168  0.00  0.00    -0.077 C 
ATOM     12  N   UNL     1       0.025  -0.025  -0.035  0.00  0.00    +0.389 N 
ATOM     13  H   UNL     1       0.548  -0.321  -0.868  0.00  0.00    -0.080 HD
ENDBRANCH   4  12
BRANCH   4  14
ATOM     14  C   UNL     1      -2.014   0.030  -1.354  0.00  0.00    +0.200 C 
ATOM     15  O   UNL     1      -3.184   0.346  -1.322  0.00  0.00    -0.278 OA
ATOM     16  N   UNL     1      -1.302   0.193  -2.487  0.00  0.00    -0.330 N 
ATOM     17  H   UNL     1      -0.388  -0.128  -2.536  0.00  0.00    +0.145 HD
ATOM     18  H   UNL     1      -1.704   0.631  -3.253  0.00  0.00    +0.145 HD
ENDBRANCH   4  14
BRANCH   1  19
ATOM     19  S   UNL     1      -4.399  -3.178   1.668  0.00  0.00    +0.061 S 
ATOM     20  O   UNL     1      -5.468  -2.436   2.239  0.00  0.00    -0.153 OA
ATOM     21  O   UNL     1      -4.613  -4.345   0.887  0.00  0.00    -0.153 OA
BRANCH  19  27
ATOM     22  C   UNL     1      -2.525  -4.755   2.872  0.00  0.00    +0.030 A 
ATOM     23  C   UNL     1      -1.695  -5.125   3.912  0.00  0.00    +0.025 A 
ATOM     24  C   UNL     1      -1.691  -4.389   5.090  0.00  0.00    +0.037 A 
ATOM     25  C   UNL     1      -2.519  -3.281   5.216  0.00  0.00    -0.024 A 
ATOM     26  C   UNL     1      -3.344  -2.914   4.171  0.00  0.00    +0.034 A 
ATOM     27  C   UNL     1      -3.345  -3.649   2.999  0.00  0.00    +0.106 A 
ATOM     28  C   UNL     1      -2.514  -2.483   6.493  0.00  0.00    +0.046 C 
ATOM     29  C   UNL     1      -2.271  -3.418   7.679  0.00  0.00    +0.101 C 
ATOM     30  C   UNL     1      -1.095  -4.312   7.394  0.00  0.00    +0.218 C 
ATOM     31  O   UNL     1      -0.352  -4.632   8.298  0.00  0.00    -0.275 OA
ATOM     32  N   UNL     1      -0.857  -4.761   6.148  0.00  0.00    -0.285 N 
ATOM     33  H   UNL     1      -0.101  -5.346   5.983  0.00  0.00    +0.155 HD
ENDBRANCH  19  27
ENDBRANCH   1  19
TORSDOF 4
