REMARK  Name = ZINC20187000
REMARK  6 active torsions:
REMARK  status: ('A' for Active; 'I' for Inactive)
REMARK    1  A    between atoms: C_4  and  C_7
REMARK    2  A    between atoms: C_7  and  N_8
REMARK    3  A    between atoms: C_14  and  C_16
REMARK    4  A    between atoms: C_16  and  C_17
REMARK    5  A    between atoms: C_17  and  C_18
REMARK    6  A    between atoms: C_22  and  N_24
REMARK                            x       y       z     vdW  Elec       q    Type
REMARK                         _______ _______ _______ _____ _____    ______ ____
ROOT
ATOM      1  N   UNL     1      -1.139   9.358  -4.808  0.00  0.00    -0.295 NA
ATOM      2  C   UNL     1      -1.273   9.992  -3.489  0.00  0.00    +0.103 C 
ATOM      3  C   UNL     1      -0.128   9.526  -2.584  0.00  0.00    +0.123 C 
ATOM      4  N   UNL     1      -0.113   8.055  -2.568  0.00  0.00    -0.299 N 
ATOM      5  C   UNL     1      -0.112   7.345  -3.857  0.00  0.00    +0.123 C 
ATOM      6  C   UNL     1      -1.264   7.897  -4.712  0.00  0.00    +0.103 C 
ATOM      7  C   UNL     1      -0.096   7.376  -1.404  0.00  0.00    +0.216 C 
ATOM      8  O   UNL     1      -0.092   7.977  -0.351  0.00  0.00    -0.276 OA
ENDROOT
BRANCH   1   9
ATOM      9  C   UNL     1      -2.115   9.908  -5.758  0.00  0.00    +0.119 C 
BRANCH   9  13
ATOM     10  C   UNL     1      -2.125   7.547  -9.318  0.00  0.00    +0.000 A 
ATOM     11  C   UNL     1      -2.973   7.228  -8.275  0.00  0.00    +0.000 A 
ATOM     12  C   UNL     1      -2.970   7.992  -7.122  0.00  0.00    +0.005 A 
ATOM     13  C   UNL     1      -2.119   9.075  -7.014  0.00  0.00    -0.033 A 
ATOM     14  C   UNL     1      -1.274   9.398  -8.059  0.00  0.00    +0.005 A 
ATOM     15  C   UNL     1      -1.273   8.631  -9.209  0.00  0.00    +0.000 A 
ENDBRANCH   9  13
ENDBRANCH   1   9
BRANCH   7  16
ATOM     16  C   UNL     1      -0.082   5.869  -1.411  0.00  0.00    +0.100 C 
BRANCH  16  17
ATOM     17  C   UNL     1      -0.064   5.352   0.029  0.00  0.00    +0.044 C 
BRANCH  17  18
ATOM     18  C   UNL     1      -0.049   3.845   0.021  0.00  0.00    -0.045 A 
ATOM     19  C   UNL     1       1.156   3.166   0.007  0.00  0.00    +0.004 A 
ATOM     20  C   UNL     1       1.174   1.783   0.000  0.00  0.00    +0.002 A 
ATOM     21  C   UNL     1      -0.013   1.076   0.008  0.00  0.00    +0.023 A 
ATOM     22  C   UNL     1      -1.224   1.755   0.017  0.00  0.00    +0.025 A 
ATOM     23  C   UNL     1      -1.238   3.144   0.029  0.00  0.00    +0.026 A 
BRANCH  22  24
ATOM     24  N   UNL     1      -2.426   1.042   0.020  0.00  0.00    -0.358 N 
ATOM     25  H   UNL     1      -3.385   1.581   0.027  0.00  0.00    +0.142 HD
ATOM     26  H   UNL     1      -2.413  -0.058   0.014  0.00  0.00    +0.142 HD
ENDBRANCH  22  24
ENDBRANCH  17  18
ENDBRANCH  16  17
ENDBRANCH   7  16
TORSDOF 6
