REMARK  Name = ZINC35556014
REMARK  4 active torsions:
REMARK  status: ('A' for Active; 'I' for Inactive)
REMARK    1  A    between atoms: C_3  and  N_8
REMARK    2  A    between atoms: C_9  and  C_11
REMARK    3  A    between atoms: C_16  and  C_33
REMARK    4  A    between atoms: N_24  and  C_27
REMARK                            x       y       z     vdW  Elec       q    Type
REMARK                         _______ _______ _______ _____ _____    ______ ____
ROOT
ATOM      1  C   UNL     1       6.047   2.248   0.171  0.00  0.00    +0.098 C 
ATOM      2  C   UNL     1       6.209   3.136  -1.063  0.00  0.00    +0.051 C 
ATOM      3  C   UNL     1       6.377   2.270  -2.284  0.00  0.00    -0.025 A 
ATOM      4  C   UNL     1       6.016   2.771  -3.523  0.00  0.00    +0.017 A 
ATOM      5  C   UNL     1       6.157   1.992  -4.655  0.00  0.00    +0.055 A 
ATOM      6  C   UNL     1       6.660   0.708  -4.555  0.00  0.00    +0.014 A 
ATOM      7  C   UNL     1       7.025   0.203  -3.323  0.00  0.00    +0.024 A 
ATOM      8  C   UNL     1       6.886   0.987  -2.181  0.00  0.00    +0.033 A 
ATOM      9  N   UNL     1       7.276   0.451  -0.944  0.00  0.00    -0.329 N 
ATOM     10  C   UNL     1       7.225   1.272   0.256  0.00  0.00    +0.069 C 
ATOM     11  C   UNL     1       7.104   0.463   1.538  0.00  0.00    -0.055 C 
ATOM     12  N   UNL     1       7.905  -0.759   1.491  0.00  0.00    +0.384 N 
ATOM     13  C   UNL     1       7.414  -1.608   0.395  0.00  0.00    -0.059 C 
ATOM     14  C   UNL     1       7.758  -0.933  -0.931  0.00  0.00    +0.087 C 
ATOM     15  H   UNL     1       8.873  -0.523   1.328  0.00  0.00    -0.081 HD
ENDROOT
BRANCH  12  16
ATOM     16  C   UNL     1       7.780  -1.479   2.765  0.00  0.00    -0.068 C 
ATOM     17  C   UNL     1       8.277  -0.588   3.905  0.00  0.00    -0.015 C 
ATOM     18  C   UNL     1       8.147  -1.338   5.232  0.00  0.00    -0.002 C 
ATOM     19  C   UNL     1       8.986  -2.616   5.181  0.00  0.00    -0.000 C 
ATOM     20  C   UNL     1       8.489  -3.507   4.041  0.00  0.00    -0.002 C 
ATOM     21  C   UNL     1       8.619  -2.757   2.713  0.00  0.00    -0.015 C 
ENDBRANCH  12  16
BRANCH   1  23
ATOM     22  N   UNL     1       3.584   2.127  -0.021  0.00  0.00    -0.285 N 
ATOM     23  C   UNL     1       4.759   1.473   0.066  0.00  0.00    +0.222 C 
ATOM     24  O   UNL     1       4.779   0.260   0.060  0.00  0.00    -0.275 OA
ATOM     25  H   UNL     1       3.571   3.095  -0.084  0.00  0.00    +0.155 HD
BRANCH  22  28
ATOM     26  C   UNL     1       0.070   1.231   0.593  0.00  0.00    +0.005 A 
ATOM     27  C   UNL     1       1.256   1.940   0.594  0.00  0.00    +0.023 A 
ATOM     28  C   UNL     1       2.382   1.410  -0.021  0.00  0.00    +0.036 A 
ATOM     29  C   UNL     1       2.314   0.168  -0.637  0.00  0.00    +0.061 A 
ATOM     30  C   UNL     1       1.124  -0.538  -0.636  0.00  0.00    +0.125 A 
ATOM     31  C   UNL     1       0.003  -0.006  -0.021  0.00  0.00    +0.038 A 
ATOM     32  F   UNL     1       1.055  -1.747  -1.235  0.00  0.00    -0.205 F 
ENDBRANCH  22  28
ENDBRANCH   1  23
BRANCH   5  33
ATOM     33  C   UNL     1       5.761   2.541  -6.001  0.00  0.00    +0.417 C 
ATOM     34  F   UNL     1       6.860   3.178  -6.587  0.00  0.00    -0.166 F 
ATOM     35  F   UNL     1       5.335   1.494  -6.825  0.00  0.00    -0.166 F 
ATOM     36  F   UNL     1       4.720   3.462  -5.841  0.00  0.00    -0.166 F 
ENDBRANCH   5  33
TORSDOF 4
