REMARK  Name = ZINC07911570
REMARK  7 active torsions:
REMARK  status: ('A' for Active; 'I' for Inactive)
REMARK    1  A    between atoms: C_1  and  N_48
REMARK    2  A    between atoms: C_2  and  C_3
REMARK    3  A    between atoms: C_2  and  N_48
REMARK    4  A    between atoms: C_10  and  C_11
REMARK    5  A    between atoms: C_10  and  N_48
REMARK    6  A    between atoms: N_13  and  C_14
REMARK    7  A    between atoms: C_15  and  C_23
REMARK                            x       y       z     vdW  Elec       q    Type
REMARK                         _______ _______ _______ _____ _____    ______ ____
ROOT
ATOM      1  C   UNL     1       1.141   2.072   0.002  0.00  0.00    +0.201 C 
ATOM      2  O   UNL     1       2.200   1.480  -0.011  0.00  0.00    -0.278 OA
ATOM      3  N   UNL     1      -0.017   1.382   0.010  0.00  0.00    -0.281 N 
ATOM      4  H   UNL     1      -0.863   1.856   0.016  0.00  0.00    +0.155 HD
ENDROOT
BRANCH   3   5
ATOM      5  C   UNL     1       0.002  -0.004   0.002  0.00  0.00    +0.084 A 
ATOM      6  C   UNL     1      -1.073  -0.881   0.013  0.00  0.00    +0.068 A 
ATOM      7  C   UNL     1      -0.780  -2.304  -0.003  0.00  0.00    -0.023 A 
ATOM      8  C   UNL     1       0.533  -2.620  -0.016  0.00  0.00    -0.004 A 
ATOM      9  S   UNL     1       1.374  -1.062  -0.016  0.00  0.00    -0.077 S 
ATOM     10  C   UNL     1       1.132  -3.993  -0.028  0.00  0.00    +0.043 C 
ATOM     11  C   UNL     1       0.038  -5.000   0.356  0.00  0.00    +0.005 C 
ATOM     12  C   UNL     1      -1.218  -4.703  -0.467  0.00  0.00    +0.005 C 
ATOM     13  C   UNL     1      -1.848  -3.390   0.002  0.00  0.00    +0.037 C 
BRANCH   6  14
ATOM     14  C   UNL     1      -2.455  -0.390   0.036  0.00  0.00    +0.244 C 
ATOM     15  O   UNL     1      -3.044  -0.181  -1.008  0.00  0.00    -0.270 OA
ATOM     16  N   UNL     1      -3.072  -0.170   1.214  0.00  0.00    -0.325 N 
ATOM     17  H   UNL     1      -2.603  -0.337   2.046  0.00  0.00    +0.145 HD
ATOM     18  H   UNL     1      -3.986   0.155   1.229  0.00  0.00    +0.145 HD
ENDBRANCH   6  14
ENDBRANCH   3   5
BRANCH   1  19
ATOM     19  C   UNL     1       1.121   3.579   0.011  0.00  0.00    +0.019 C 
BRANCH  19  21
ATOM     20  C   UNL     1       3.174   3.754  -1.262  0.00  0.00    -0.095 C 
ATOM     21  N   UNL     1       2.513   4.075   0.021  0.00  0.00    +0.386 N 
ATOM     22  H   UNL     1       3.025   3.615   0.784  0.00  0.00    -0.081 HD
BRANCH  21  23
ATOM     23  C   UNL     1       2.528   5.535   0.246  0.00  0.00    -0.040 C 
BRANCH  23  24
ATOM     24  C   UNL     1       3.950   5.978   0.472  0.00  0.00    -0.029 A 
ATOM     25  C   UNL     1       4.413   6.189   1.757  0.00  0.00    +0.004 A 
ATOM     26  C   UNL     1       5.719   6.590   1.965  0.00  0.00    +0.000 A 
ATOM     27  C   UNL     1       6.561   6.792   0.888  0.00  0.00    +0.003 A 
ATOM     28  C   UNL     1       6.100   6.587  -0.399  0.00  0.00    +0.038 A 
ATOM     29  C   UNL     1       4.793   6.180  -0.608  0.00  0.00    +0.125 A 
ATOM     30  F   UNL     1       4.340   5.980  -1.865  0.00  0.00    -0.205 F 
ENDBRANCH  23  24
ENDBRANCH  21  23
ENDBRANCH  19  21
ENDBRANCH   1  19
TORSDOF 6
