REMARK  Name = ZINC63980849
REMARK  13 active torsions:
REMARK  status: ('A' for Active; 'I' for Inactive)
REMARK    1  A    between atoms: C_1  and  C_2
REMARK    2  A    between atoms: C_2  and  C_4
REMARK    3  A    between atoms: C_2  and  N_9
REMARK    4  A    between atoms: C_4  and  C_5
REMARK    5  A    between atoms: N_9  and  C_10
REMARK    6  A    between atoms: N_16  and  C_29
REMARK    7  A    between atoms: C_17  and  C_25
REMARK    8  A    between atoms: C_19  and  N_21
REMARK    9  A    between atoms: C_22  and  C_24
REMARK   10  A    between atoms: C_25  and  O_27
REMARK   11  A    between atoms: O_27  and  C_28
REMARK   12  A    between atoms: C_29  and  C_30
REMARK   13  A    between atoms: C_30  and  C_31
REMARK                            x       y       z     vdW  Elec       q    Type
REMARK                         _______ _______ _______ _____ _____    ______ ____
ROOT
ATOM      1  C   UNL     1       2.106  -0.604   1.173  0.00  0.00    +0.044 A 
ATOM      2  C   UNL     1       2.793  -1.070   2.293  0.00  0.00    +0.033 A 
ATOM      3  C   UNL     1       4.170  -1.165   2.229  0.00  0.00    +0.015 A 
ATOM      4  C   UNL     1       4.839  -0.802   1.068  0.00  0.00    +0.105 A 
ATOM      5  N   UNL     1       4.143  -0.361   0.020  0.00  0.00    -0.348 N 
ATOM      6  C   UNL     1       2.830  -0.262   0.041  0.00  0.00    +0.107 A 
ATOM      7  N   UNL     1       6.216  -0.968   1.199  0.00  0.00    -0.301 N 
ATOM      8  C   UNL     1       6.540  -1.480   2.533  0.00  0.00    +0.208 C 
ATOM      9  C   UNL     1       5.186  -1.623   3.249  0.00  0.00    +0.138 C 
ATOM     10  H   UNL     1       4.619  -0.110  -0.787  0.00  0.00    +0.167 HD
ENDROOT
BRANCH   9  11
ATOM     11  N   UNL     1       4.948  -3.021   3.617  0.00  0.00    -0.306 N 
ATOM     12  C   UNL     1       4.076  -3.319   4.601  0.00  0.00    +0.210 C 
ATOM     13  O   UNL     1       3.488  -2.430   5.180  0.00  0.00    -0.276 OA
ATOM     14  C   UNL     1       3.830  -4.757   4.979  0.00  0.00    +0.109 C 
ATOM     15  H   UNL     1       5.417  -3.732   3.153  0.00  0.00    +0.149 HD
ENDBRANCH   9  11
BRANCH   1  16
ATOM     16  N   UNL     1       0.711  -0.489   1.189  0.00  0.00    -0.340 N 
ATOM     17  H   UNL     1       0.213  -0.731   1.986  0.00  0.00    +0.146 HD
BRANCH  16  19
ATOM     18  C   UNL     1      -0.019   1.526   0.010  0.00  0.00    +0.028 C 
ATOM     19  C   UNL     1       0.002  -0.004   0.002  0.00  0.00    +0.076 C 
BRANCH  19  20
ATOM     20  C   UNL     1      -1.433  -0.534   0.013  0.00  0.00    +0.135 C 
BRANCH  20  21
ATOM     21  C   UNL     1      -1.416  -2.058  -0.121  0.00  0.00    +0.392 C 
ATOM     22  F   UNL     1      -0.706  -2.612   0.950  0.00  0.00    -0.171 F 
ATOM     23  F   UNL     1      -2.728  -2.542  -0.111  0.00  0.00    -0.171 F 
ATOM     24  F   UNL     1      -0.797  -2.413  -1.325  0.00  0.00    -0.171 F 
ENDBRANCH  20  21
ENDBRANCH  19  20
ENDBRANCH  16  19
ENDBRANCH   1  16
BRANCH   8  25
ATOM     25  C   UNL     1       7.222  -2.820   2.427  0.00  0.00    +0.330 C 
ATOM     26  O   UNL     1       7.132  -3.465   1.409  0.00  0.00    -0.249 OA
BRANCH  25  27
ATOM     27  O   UNL     1       7.929  -3.296   3.463  0.00  0.00    -0.467 OA
ATOM     28  C   UNL     1       8.550  -4.572   3.294  0.00  0.00    +0.280 C 
ENDBRANCH  25  27
ENDBRANCH   8  25
BRANCH   7  29
ATOM     29  C   UNL     1       7.198  -0.674   0.152  0.00  0.00    +0.112 C 
BRANCH  29  30
ATOM     30  C   UNL     1       7.657   0.780   0.278  0.00  0.00    +0.052 C 
BRANCH  30  31
ATOM     31  C   UNL     1       8.668   1.083  -0.798  0.00  0.00    -0.040 C 
ATOM     32  C   UNL     1       8.428   1.647  -2.003  0.00  0.00    -0.001 A 
ATOM     33  C   UNL     1       7.201   2.128  -2.650  0.00  0.00    +0.010 A 
ATOM     34  C   UNL     1       7.278   2.656  -3.892  0.00  0.00    +0.001 A 
ATOM     35  C   UNL     1       8.497   2.754  -4.577  0.00  0.00    +0.002 A 
ATOM     36  C   UNL     1       9.666   2.334  -4.050  0.00  0.00    +0.026 A 
ATOM     37  C   UNL     1       9.703   1.762  -2.748  0.00  0.00    +0.043 A 
ATOM     38  N   UNL     1      10.692   1.288  -2.030  0.00  0.00    -0.380 N 
ATOM     39  C   UNL     1      10.157   0.823  -0.746  0.00  0.00    +0.144 C 
ATOM     40  H   UNL     1      11.623   1.254  -2.302  0.00  0.00    +0.160 HD
ENDBRANCH  30  31
ENDBRANCH  29  30
ENDBRANCH   7  29
TORSDOF 10
