REMARK  Name = ZINC42963952
REMARK  8 active torsions:
REMARK  status: ('A' for Active; 'I' for Inactive)
REMARK    1  A    between atoms: C_1  and  C_2
REMARK    2  A    between atoms: C_2  and  C_4
REMARK    3  A    between atoms: C_2  and  N_22
REMARK    4  A    between atoms: C_4  and  C_6
REMARK    5  A    between atoms: C_4  and  O_14
REMARK    6  A    between atoms: C_9  and  O_12
REMARK    7  A    between atoms: O_12  and  C_13
REMARK    8  A    between atoms: O_14  and  C_15
REMARK                            x       y       z     vdW  Elec       q    Type
REMARK                         _______ _______ _______ _____ _____    ______ ____
ROOT
ATOM      1  C   UNL     1       0.751  -0.519   1.250  0.00  0.00    +0.189 C 
ENDROOT
BRANCH   1   2
ATOM      2  C   UNL     1       0.861  -2.021   1.302  0.00  0.00    -0.009 A 
ATOM      3  C   UNL     1      -0.204  -2.775   1.760  0.00  0.00    +0.011 A 
ATOM      4  C   UNL     1      -0.107  -4.152   1.809  0.00  0.00    +0.046 A 
ATOM      5  C   UNL     1       1.061  -4.779   1.398  0.00  0.00    +0.120 A 
ATOM      6  C   UNL     1       2.128  -4.020   0.939  0.00  0.00    +0.046 A 
ATOM      7  C   UNL     1       2.023  -2.644   0.887  0.00  0.00    +0.011 A 
BRANCH   5   8
ATOM      8  O   UNL     1       1.159  -6.133   1.445  0.00  0.00    -0.495 OA
ATOM      9  C   UNL     1       2.391  -6.710   1.007  0.00  0.00    +0.277 C 
ENDBRANCH   5   8
ENDBRANCH   1   2
BRANCH   1  11
ATOM     10  C   UNL     1      -0.145   1.418  -0.049  0.00  0.00    -0.010 C 
ATOM     11  C   UNL     1      -0.034  -0.107   0.004  0.00  0.00    -0.032 C 
BRANCH  11  12
ATOM     12  N   UNL     1       0.663  -0.590  -1.196  0.00  0.00    +0.382 N 
ATOM     13  H   UNL     1       1.587  -0.186  -1.233  0.00  0.00    -0.089 HD
ATOM     14  H   UNL     1       0.736  -1.595  -1.161  0.00  0.00    -0.089 HD
ATOM     15  H   UNL     1       0.145  -0.318  -2.018  0.00  0.00    -0.089 HD
ENDBRANCH  11  12
ENDBRANCH   1  11
BRANCH   1  16
ATOM     16  O   UNL     1       0.073  -0.050   2.417  0.00  0.00    -0.485 OA
BRANCH  16  17
ATOM     17  C   UNL     1       0.539   1.094   2.984  0.00  0.00    +0.134 A 
ATOM     18  C   UNL     1       1.549   1.815   2.364  0.00  0.00    +0.047 A 
ATOM     19  C   UNL     1       2.021   2.978   2.941  0.00  0.00    +0.004 A 
ATOM     20  C   UNL     1       1.488   3.423   4.137  0.00  0.00    +0.001 A 
ATOM     21  C   UNL     1       0.482   2.707   4.758  0.00  0.00    +0.018 A 
ATOM     22  C   UNL     1       0.002   1.546   4.181  0.00  0.00    +0.055 A 
ATOM     23  I   UNL     1      -1.530   0.465   5.117  0.00  0.00    -0.040 I 
ENDBRANCH  16  17
ENDBRANCH   1  16
TORSDOF 6
