REMARK  Name = ZINC36507483
REMARK  13 active torsions:
REMARK  status: ('A' for Active; 'I' for Inactive)
REMARK    1  A    between atoms: C_6  and  C_7
REMARK    2  A    between atoms: C_7  and  C_9
REMARK    3  A    between atoms: C_7  and  O_41
REMARK    4  A    between atoms: C_9  and  C_11
REMARK    5  A    between atoms: C_9  and  C_33
REMARK    6  A    between atoms: C_11  and  C_12
REMARK    7  A    between atoms: C_12  and  C_13
REMARK    8  A    between atoms: C_13  and  C_15
REMARK    9  A    between atoms: C_13  and  C_23
REMARK   10  A    between atoms: C_15  and  N_16
REMARK   11  A    between atoms: C_23  and  C_25
REMARK   12  A    between atoms: C_23  and  O_32
REMARK   13  A    between atoms: C_33  and  N_34
REMARK                            x       y       z     vdW  Elec       q    Type
REMARK                         _______ _______ _______ _____ _____    ______ ____
ROOT
ATOM      1  C   UNL     1      -1.921  -2.067  -1.746  0.00  0.00    +0.005 C 
ENDROOT
BRANCH   1   2
ATOM      2  C   UNL     1      -0.438  -1.705  -1.645  0.00  0.00    +0.005 C 
BRANCH   2   3
ATOM      3  C   UNL     1       0.105  -2.152  -0.287  0.00  0.00    +0.146 C 
BRANCH   3   9
ATOM      4  C   UNL     1       1.867  -0.424   0.129  0.00  0.00    +0.009 A 
ATOM      5  C   UNL     1       3.190  -0.042   0.244  0.00  0.00    +0.039 A 
ATOM      6  C   UNL     1       4.197  -0.976   0.068  0.00  0.00    +0.123 A 
ATOM      7  C   UNL     1       3.877  -2.291  -0.224  0.00  0.00    +0.039 A 
ATOM      8  C   UNL     1       2.553  -2.671  -0.338  0.00  0.00    +0.009 A 
ATOM      9  C   UNL     1       1.548  -1.737  -0.162  0.00  0.00    -0.019 A 
ATOM     10  F   UNL     1       5.491  -0.605   0.179  0.00  0.00    -0.205 F 
ENDBRANCH   3   9
BRANCH   3  11
ATOM     11  O   UNL     1       0.006  -3.573  -0.178  0.00  0.00    -0.387 OA
ATOM     12  H   UNL     1       0.501  -4.055  -0.856  0.00  0.00    +0.210 HD
ENDBRANCH   3  11
ENDBRANCH   2   3
BRANCH   2  13
ATOM     13  C   UNL     1       0.336  -2.410  -2.761  0.00  0.00    -0.073 C 
BRANCH  13  14
ATOM     14  N   UNL     1       1.521  -1.617  -3.112  0.00  0.00    +0.380 N 
ATOM     15  C   UNL     1       1.078  -0.313  -3.643  0.00  0.00    -0.079 C 
ATOM     16  C   UNL     1       2.189   0.685  -3.434  0.00  0.00    -0.019 C 
ATOM     17  C   UNL     1       3.062   0.829  -4.695  0.00  0.00    -0.002 C 
ATOM     18  C   UNL     1       3.327  -0.535  -5.365  0.00  0.00    -0.002 C 
ATOM     19  C   UNL     1       3.615  -1.622  -4.361  0.00  0.00    -0.019 C 
ATOM     20  C   UNL     1       2.298  -2.347  -4.013  0.00  0.00    -0.079 C 
ATOM     21  H   UNL     1       2.062  -1.457  -2.275  0.00  0.00    -0.082 HD
ENDBRANCH  13  14
ENDBRANCH   2  13
ENDBRANCH   1   2
BRANCH   1  22
ATOM     22  C   UNL     1      -2.496  -1.506  -3.048  0.00  0.00    +0.005 C 
BRANCH  22  23
ATOM     23  C   UNL     1      -3.995  -1.805  -3.114  0.00  0.00    +0.005 C 
BRANCH  23  24
ATOM     24  C   UNL     1      -4.779  -0.599  -2.592  0.00  0.00    -0.073 C 
BRANCH  24  25
ATOM     25  N   UNL     1      -4.484  -0.403  -1.167  0.00  0.00    +0.380 N 
ATOM     26  C   UNL     1      -4.945  -1.589  -0.420  0.00  0.00    -0.079 C 
ATOM     27  C   UNL     1      -4.147  -1.686   0.856  0.00  0.00    -0.019 C 
ATOM     28  C   UNL     1      -4.897  -1.045   2.039  0.00  0.00    -0.002 C 
ATOM     29  C   UNL     1      -5.597   0.267   1.630  0.00  0.00    -0.002 C 
ATOM     30  C   UNL     1      -4.743   1.115   0.723  0.00  0.00    -0.019 C 
ATOM     31  C   UNL     1      -5.084   0.785  -0.745  0.00  0.00    -0.079 C 
ATOM     32  H   UNL     1      -3.485  -0.319  -1.052  0.00  0.00    -0.082 HD
ENDBRANCH  24  25
ENDBRANCH  23  24
BRANCH  23  33
ATOM     33  C   UNL     1      -4.396  -2.085  -4.564  0.00  0.00    +0.146 C 
BRANCH  33  34
ATOM     34  C   UNL     1      -5.879  -2.347  -4.634  0.00  0.00    -0.019 A 
ATOM     35  C   UNL     1      -6.756  -1.298  -4.835  0.00  0.00    +0.009 A 
ATOM     36  C   UNL     1      -8.116  -1.537  -4.899  0.00  0.00    +0.039 A 
ATOM     37  C   UNL     1      -8.599  -2.828  -4.763  0.00  0.00    +0.123 A 
ATOM     38  C   UNL     1      -7.719  -3.877  -4.562  0.00  0.00    +0.039 A 
ATOM     39  C   UNL     1      -6.359  -3.637  -4.503  0.00  0.00    +0.009 A 
ATOM     40  F   UNL     1      -9.928  -3.062  -4.825  0.00  0.00    -0.205 F 
ENDBRANCH  33  34
BRANCH  33  41
ATOM     41  O   UNL     1      -4.074  -0.953  -5.374  0.00  0.00    -0.387 OA
ATOM     42  H   UNL     1      -4.520  -0.138  -5.107  0.00  0.00    +0.210 HD
ENDBRANCH  33  41
ENDBRANCH  23  33
ENDBRANCH  22  23
ENDBRANCH   1  22
TORSDOF 13
