REMARK  Name = ZINC64771053
REMARK  12 active torsions:
REMARK  status: ('A' for Active; 'I' for Inactive)
REMARK    1  A    between atoms: C_1  and  C_2
REMARK    2  A    between atoms: C_6  and  C_8
REMARK    3  A    between atoms: C_6  and  N_26
REMARK    4  A    between atoms: C_8  and  N_9
REMARK    5  A    between atoms: N_12  and  C_13
REMARK    6  A    between atoms: C_13  and  C_14
REMARK    7  A    between atoms: N_16  and  C_17
REMARK    8  A    between atoms: C_17  and  C_18
REMARK    9  A    between atoms: C_21  and  O_24
REMARK   10  A    between atoms: O_24  and  C_25
REMARK   11  A    between atoms: N_26  and  C_27
REMARK   12  A    between atoms: N_26  and  C_28
REMARK                            x       y       z     vdW  Elec       q    Type
REMARK                         _______ _______ _______ _____ _____    ______ ____
ROOT
ATOM      1  N   UNL     1      -0.700  -4.079   0.966  0.00  0.00    -0.301 N 
ATOM      2  C   UNL     1      -1.875  -4.698   0.732  0.00  0.00    +0.300 C 
ATOM      3  O   UNL     1      -2.846  -4.051   0.392  0.00  0.00    -0.253 OA
ATOM      4  N   UNL     1      -1.972  -6.035   0.875  0.00  0.00    -0.291 N 
ATOM      5  H   UNL     1       0.074  -4.596   1.238  0.00  0.00    +0.150 HD
ATOM      6  H   UNL     1      -1.197  -6.551   1.146  0.00  0.00    +0.151 HD
ENDROOT
BRANCH   1   7
ATOM      7  C   UNL     1      -0.595  -2.626   0.811  0.00  0.00    +0.094 C 
BRANCH   7  13
ATOM      8  C   UNL     1       0.647   1.336  -0.408  0.00  0.00    +0.007 C 
ATOM      9  C   UNL     1       0.561  -0.190  -0.335  0.00  0.00    -0.015 C 
ATOM     10  C   UNL     1       1.543  -0.805  -1.333  0.00  0.00    +0.003 C 
ATOM     11  C   UNL     1       1.457  -2.331  -1.260  0.00  0.00    -0.001 C 
ATOM     12  C   UNL     1       1.810  -2.794   0.155  0.00  0.00    -0.010 C 
ATOM     13  C   UNL     1       0.828  -2.179   1.153  0.00  0.00    -0.050 C 
ATOM     14  C   UNL     1       0.915  -0.653   1.080  0.00  0.00    -0.007 C 
BRANCH  13  15
ATOM     15  N   UNL     1       1.168  -2.624   2.512  0.00  0.00    +0.381 N 
ATOM     16  C   UNL     1       2.503  -2.129   2.869  0.00  0.00    -0.096 C 
ATOM     17  C   UNL     1       0.179  -2.096   3.461  0.00  0.00    -0.096 C 
ATOM     18  H   UNL     1       1.162  -3.632   2.546  0.00  0.00    -0.082 HD
ENDBRANCH  13  15
ENDBRANCH   7  13
ENDBRANCH   1   7
BRANCH   4  19
ATOM     19  C   UNL     1      -3.248  -6.708   0.621  0.00  0.00    +0.201 C 
BRANCH  19  20
ATOM     20  C   UNL     1      -3.090  -8.189   0.850  0.00  0.00    +0.231 C 
ATOM     21  O   UNL     1      -2.017  -8.638   1.192  0.00  0.00    -0.274 OA
ATOM     22  N   UNL     1      -4.141  -9.014   0.674  0.00  0.00    -0.310 N 
ATOM     23  H   UNL     1      -4.999  -8.655   0.401  0.00  0.00    +0.149 HD
BRANCH  22  24
ATOM     24  C   UNL     1      -3.987 -10.454   0.897  0.00  0.00    +0.139 C 
BRANCH  24  25
ATOM     25  C   UNL     1      -5.300 -11.146   0.635  0.00  0.00    -0.030 A 
ATOM     26  C   UNL     1      -6.209 -11.313   1.663  0.00  0.00    +0.009 A 
ATOM     27  C   UNL     1      -7.413 -11.947   1.426  0.00  0.00    +0.046 A 
ATOM     28  C   UNL     1      -7.710 -12.417   0.155  0.00  0.00    +0.120 A 
ATOM     29  C   UNL     1      -6.796 -12.248  -0.875  0.00  0.00    +0.046 A 
ATOM     30  C   UNL     1      -5.595 -11.608  -0.634  0.00  0.00    +0.009 A 
BRANCH  28  31
ATOM     31  O   UNL     1      -8.893 -13.041  -0.081  0.00  0.00    -0.495 OA
ATOM     32  C   UNL     1      -9.131 -13.499  -1.414  0.00  0.00    +0.277 C 
ENDBRANCH  28  31
ENDBRANCH  24  25
ENDBRANCH  22  24
ENDBRANCH  19  20
ENDBRANCH   4  19
TORSDOF 8
