REMARK  Name = ZINC17189001
REMARK  7 active torsions:
REMARK  status: ('A' for Active; 'I' for Inactive)
REMARK    1  A    between atoms: C_1  and  C_2
REMARK    2  A    between atoms: C_2  and  C_4
REMARK    3  A    between atoms: C_2  and  N_10
REMARK    4  A    between atoms: C_11  and  C_13
REMARK    5  A    between atoms: N_15  and  N_16
REMARK    6  A    between atoms: N_16  and  C_17
REMARK    7  A    between atoms: C_25  and  C_28
REMARK                            x       y       z     vdW  Elec       q    Type
REMARK                         _______ _______ _______ _____ _____    ______ ____
ROOT
ATOM      1  N   UNL     1      -2.413   5.261  -0.454  0.00  0.00    -0.267 N 
ATOM      2  H   UNL     1      -1.495   5.833  -0.254  0.00  0.00    +0.170 HD
ENDROOT
BRANCH   1   3
ATOM      3  C   UNL     1      -2.400   3.916  -0.369  0.00  0.00    +0.033 C 
ATOM      4  C   UNL     1      -1.214   3.238  -0.143  0.00  0.00    +0.016 A 
ATOM      5  C   UNL     1       0.028   3.904  -0.087  0.00  0.00    +0.011 A 
ATOM      6  C   UNL     1       1.172   3.172  -0.038  0.00  0.00    +0.001 A 
ATOM      7  C   UNL     1       1.151   1.775  -0.026  0.00  0.00    +0.002 A 
ATOM      8  C   UNL     1      -0.012   1.074  -0.008  0.00  0.00    +0.026 A 
ATOM      9  C   UNL     1      -1.241   1.772   0.011  0.00  0.00    +0.044 A 
ATOM     10  N   UNL     1      -2.387   1.151   0.185  0.00  0.00    -0.377 N 
ATOM     11  C   UNL     1      -3.642   1.881   0.340  0.00  0.00    +0.115 C 
ATOM     12  C   UNL     1      -3.676   3.128  -0.536  0.00  0.00    +0.082 C 
ATOM     13  H   UNL     1      -2.417   0.052   0.218  0.00  0.00    +0.160 HD
BRANCH  11  14
ATOM     14  C   UNL     1      -4.787   0.979  -0.043  0.00  0.00    -0.025 A 
ATOM     15  C   UNL     1      -4.668   0.138  -1.134  0.00  0.00    +0.005 A 
ATOM     16  C   UNL     1      -5.717  -0.693  -1.482  0.00  0.00    +0.000 A 
ATOM     17  C   UNL     1      -6.887  -0.675  -0.747  0.00  0.00    +0.000 A 
ATOM     18  C   UNL     1      -7.007   0.170   0.341  0.00  0.00    +0.000 A 
ATOM     19  C   UNL     1      -5.957   0.997   0.692  0.00  0.00    +0.005 A 
ENDBRANCH  11  14
ENDBRANCH   1   3
BRANCH   1  22
ATOM     20  C   UNL     1      -3.585   7.266  -0.977  0.00  0.00    +0.315 C 
ATOM     21  O   UNL     1      -2.552   7.889  -0.844  0.00  0.00    -0.264 OA
ATOM     22  N   UNL     1      -3.595   5.931  -0.795  0.00  0.00    -0.229 N 
ATOM     23  H   UNL     1      -4.532   5.366  -0.915  0.00  0.00    +0.173 HD
BRANCH  20  25
ATOM     24  N   UNL     1      -4.837   9.315  -1.523  0.00  0.00    -0.301 N 
ATOM     25  C   UNL     1      -4.847   7.980  -1.341  0.00  0.00    +0.301 C 
ATOM     26  O   UNL     1      -5.880   7.357  -1.474  0.00  0.00    -0.265 OA
ATOM     27  H   UNL     1      -3.900   9.880  -1.403  0.00  0.00    +0.150 HD
BRANCH  24  29
ATOM     28  C   UNL     1      -6.272   9.958  -3.396  0.00  0.00    +0.033 C 
ATOM     29  C   UNL     1      -6.073  10.015  -1.880  0.00  0.00    +0.101 C 
BRANCH  29  30
ATOM     30  C   UNL     1      -5.981  11.454  -1.439  0.00  0.00    -0.027 A 
ATOM     31  C   UNL     1      -4.793  12.146  -1.581  0.00  0.00    +0.005 A 
ATOM     32  C   UNL     1      -4.710  13.466  -1.181  0.00  0.00    +0.000 A 
ATOM     33  C   UNL     1      -5.813  14.092  -0.630  0.00  0.00    +0.000 A 
ATOM     34  C   UNL     1      -7.000  13.398  -0.484  0.00  0.00    +0.000 A 
ATOM     35  C   UNL     1      -7.084  12.079  -0.888  0.00  0.00    +0.005 A 
ENDBRANCH  29  30
ENDBRANCH  24  29
ENDBRANCH  20  25
ENDBRANCH   1  22
TORSDOF 6
