REMARK  Name = ZINC08763929
REMARK  7 active torsions:
REMARK  status: ('A' for Active; 'I' for Inactive)
REMARK    1  A    between atoms: C_6  and  C_7
REMARK    2  A    between atoms: C_8  and  C_9
REMARK    3  A    between atoms: N_11  and  C_12
REMARK    4  A    between atoms: C_12  and  N_14
REMARK    5  A    between atoms: N_14  and  C_15
REMARK    6  A    between atoms: C_18  and  S_21
REMARK    7  A    between atoms: S_21  and  N_24
REMARK                            x       y       z     vdW  Elec       q    Type
REMARK                         _______ _______ _______ _____ _____    ______ ____
ROOT
ATOM      1  C   UNL     1      -3.237   2.385   3.675  0.00  0.00    +0.033 A 
ATOM      2  C   UNL     1      -1.988   2.984   3.572  0.00  0.00    +0.025 A 
ATOM      3  C   UNL     1      -1.231   2.807   2.431  0.00  0.00    +0.031 A 
ATOM      4  C   UNL     1      -1.714   2.033   1.391  0.00  0.00    +0.111 A 
ATOM      5  C   UNL     1      -2.960   1.439   1.489  0.00  0.00    +0.031 A 
ATOM      6  C   UNL     1      -3.720   1.608   2.629  0.00  0.00    +0.025 A 
ENDROOT
BRANCH   4   7
ATOM      7  S   UNL     1      -0.745   1.809  -0.063  0.00  0.00    +0.080 S 
ATOM      8  O   UNL     1       0.143   2.916  -0.133  0.00  0.00    -0.148 OA
ATOM      9  O   UNL     1      -1.651   1.490  -1.110  0.00  0.00    -0.148 OA
BRANCH   7  10
ATOM     10  N   UNL     1       0.193   0.465   0.177  0.00  0.00    -0.228 N 
ATOM     11  C   UNL     1      -0.397  -0.770   0.310  0.00  0.00    +0.186 C 
ATOM     12  N   UNL     1       0.382  -1.886   0.509  0.00  0.00    -0.370 N 
ATOM     13  H   UNL     1       1.158   0.549   0.223  0.00  0.00    +0.191 HD
ATOM     14  H   UNL     1      -2.203  -1.711   0.331  0.00  0.00    +0.159 HD
ATOM     15  H   UNL     1       1.347  -1.802   0.555  0.00  0.00    +0.159 HD
ATOM     16  H   UNL     1      -0.034  -2.757   0.603  0.00  0.00    +0.159 HD
ATOM     17  N   UNL     1      -1.719  -0.818   0.238  0.00  0.00    -0.370 N 
ATOM     18  H   UNL     1      -2.256   0.044   0.088  0.00  0.00    +0.159 HD
ENDBRANCH   7  10
ENDBRANCH   4   7
BRANCH   1  19
ATOM     19  N   UNL     1      -4.007   2.562   4.829  0.00  0.00    -0.297 N 
ATOM     20  H   UNL     1      -4.487   1.812   5.212  0.00  0.00    +0.154 HD
BRANCH  19  21
ATOM     21  C   UNL     1      -4.081   3.776   5.410  0.00  0.00    +0.141 C 
ATOM     22  S   UNL     1      -3.351   5.130   4.658  0.00  0.00    -0.018 S 
BRANCH  21  25
ATOM     23  C   UNL     1      -4.804   5.139   7.162  0.00  0.00    +0.242 C 
ATOM     24  O   UNL     1      -4.285   6.101   6.628  0.00  0.00    -0.270 OA
ATOM     25  N   UNL     1      -4.729   3.925   6.582  0.00  0.00    -0.264 N 
ATOM     26  H   UNL     1      -5.143   3.158   7.008  0.00  0.00    +0.157 HD
BRANCH  23  28
ATOM     27  C   UNL     1      -5.582   6.516   9.015  0.00  0.00    +0.013 C 
ATOM     28  C   UNL     1      -5.507   5.300   8.434  0.00  0.00    +0.068 C 
BRANCH  27  34
ATOM     29  C   UNL     1      -6.892   5.574  10.908  0.00  0.00    +0.011 A 
ATOM     30  C   UNL     1      -7.550   5.731  12.108  0.00  0.00    +0.039 A 
ATOM     31  C   UNL     1      -7.624   6.982  12.703  0.00  0.00    +0.123 A 
ATOM     32  C   UNL     1      -7.033   8.081  12.097  0.00  0.00    +0.039 A 
ATOM     33  C   UNL     1      -6.368   7.936  10.899  0.00  0.00    +0.011 A 
ATOM     34  C   UNL     1      -6.290   6.677  10.294  0.00  0.00    -0.025 A 
ATOM     35  F   UNL     1      -8.274   7.131  13.877  0.00  0.00    -0.205 F 
ENDBRANCH  27  34
ENDBRANCH  23  28
ENDBRANCH  21  25
ENDBRANCH  19  21
ENDBRANCH   1  19
TORSDOF 7
