REMARK  Name = ZINC32542228
REMARK  9 active torsions:
REMARK  status: ('A' for Active; 'I' for Inactive)
REMARK    1  A    between atoms: C_1  and  C_2
REMARK    2  A    between atoms: C_2  and  C_4
REMARK    3  A    between atoms: C_2  and  N_14
REMARK    4  A    between atoms: C_7  and  S_10
REMARK    5  A    between atoms: S_10  and  N_13
REMARK    6  A    between atoms: N_14  and  C_15
REMARK    7  A    between atoms: N_14  and  C_16
REMARK    8  A    between atoms: C_16  and  C_17
REMARK    9  A    between atoms: N_19  and  C_20
REMARK                            x       y       z     vdW  Elec       q    Type
REMARK                         _______ _______ _______ _____ _____    ______ ____
ROOT
ATOM      1  N   UNL     1      -0.024   0.015   0.261  0.00  0.00    +0.388 N 
ATOM      2  C   UNL     1      -0.014   1.462   0.012  0.00  0.00    -0.095 C 
ATOM      3  H   UNL     1       0.666  -0.456  -0.456  0.00  0.00    -0.081 HD
ENDROOT
BRANCH   1   5
ATOM      4  C   UNL     1      -1.850  -0.164  -1.361  0.00  0.00    -0.008 C 
ATOM      5  C   UNL     1      -1.362  -0.549   0.037  0.00  0.00    -0.041 C 
BRANCH   5   6
ATOM      6  C   UNL     1      -1.300  -2.051   0.152  0.00  0.00    -0.061 A 
ATOM      7  C   UNL     1      -0.291  -2.751  -0.484  0.00  0.00    +0.004 A 
ATOM      8  C   UNL     1      -0.232  -4.128  -0.376  0.00  0.00    +0.029 A 
ATOM      9  C   UNL     1      -1.186  -4.805   0.361  0.00  0.00    +0.105 A 
ATOM     10  C   UNL     1      -2.197  -4.105   0.992  0.00  0.00    +0.029 A 
ATOM     11  C   UNL     1      -2.254  -2.728   0.887  0.00  0.00    +0.004 A 
BRANCH   9  12
ATOM     12  S   UNL     1      -1.113  -6.560   0.496  0.00  0.00    +0.056 S 
ATOM     13  O   UNL     1       0.240  -6.929   0.266  0.00  0.00    -0.153 OA
ATOM     14  O   UNL     1      -1.804  -6.905   1.688  0.00  0.00    -0.153 OA
BRANCH  12  15
ATOM     15  N   UNL     1      -1.994  -7.184  -0.760  0.00  0.00    -0.204 NA
ATOM     16  H   UNL     1      -1.973  -8.283  -0.712  0.00  0.00    +0.144 HD
ATOM     17  H   UNL     1      -1.560  -6.851  -1.714  0.00  0.00    +0.144 HD
ENDBRANCH  12  15
ENDBRANCH   9  12
ENDBRANCH   5   6
ENDBRANCH   1   5
BRANCH   1  18
ATOM     18  C   UNL     1       0.456  -0.290   1.615  0.00  0.00    +0.019 C 
BRANCH  18  19
ATOM     19  C   UNL     1       1.912   0.084   1.729  0.00  0.00    +0.197 C 
ATOM     20  O   UNL     1       2.492   0.557   0.775  0.00  0.00    -0.278 OA
ATOM     21  N   UNL     1       2.568  -0.107   2.890  0.00  0.00    -0.310 N 
ATOM     22  H   UNL     1       2.042  -0.537   3.755  0.00  0.00    +0.149 HD
BRANCH  21  23
ATOM     23  C   UNL     1       3.983   0.256   3.000  0.00  0.00    +0.103 C 
ATOM     24  C   UNL     1       4.634  -0.581   4.100  0.00  0.00    +0.027 C 
ATOM     25  C   UNL     1       6.047  -0.039   4.347  0.00  0.00    +0.007 C 
ATOM     26  C   UNL     1       5.929   1.330   5.013  0.00  0.00    +0.035 C 
ATOM     27  C   UNL     1       4.992   2.218   4.237  0.00  0.00    -0.042 A 
ATOM     28  C   UNL     1       4.096   1.724   3.315  0.00  0.00    -0.024 A 
ATOM     29  C   UNL     1       3.255   2.598   2.638  0.00  0.00    +0.006 A 
ATOM     30  C   UNL     1       3.312   3.955   2.879  0.00  0.00    +0.000 A 
ATOM     31  C   UNL     1       4.215   4.451   3.801  0.00  0.00    +0.000 A 
ATOM     32  C   UNL     1       5.050   3.585   4.476  0.00  0.00    +0.004 A 
ENDBRANCH  21  23
ENDBRANCH  18  19
ENDBRANCH   1  18
TORSDOF 7
