REMARK  Name = ZINC27353613
REMARK  10 active torsions:
REMARK  status: ('A' for Active; 'I' for Inactive)
REMARK    1  A    between atoms: C_1  and  C_2
REMARK    2  A    between atoms: C_7  and  N_8
REMARK    3  A    between atoms: C_9  and  C_11
REMARK    4  A    between atoms: C_11  and  N_12
REMARK    5  A    between atoms: N_12  and  C_13
REMARK    6  A    between atoms: N_12  and  C_14
REMARK    7  A    between atoms: C_14  and  C_16
REMARK    8  A    between atoms: C_14  and  C_17
REMARK    9  A    between atoms: N_23  and  C_24
REMARK   10  A    between atoms: N_23  and  C_25
REMARK                            x       y       z     vdW  Elec       q    Type
REMARK                         _______ _______ _______ _____ _____    ______ ____
ROOT
ATOM      1  N   UNL     1      -4.840   1.165  -0.284  0.00  0.00    +0.390 N 
ATOM      2  C   UNL     1      -4.994   0.392   0.955  0.00  0.00    -0.095 C 
ATOM      3  H   UNL     1      -4.607   0.460  -1.096  0.00  0.00    -0.081 HD
ENDROOT
BRANCH   1   4
ATOM      4  C   UNL     1      -6.088   1.857  -0.632  0.00  0.00    -0.002 C 
ATOM      5  C   UNL     1      -7.198   0.827  -0.851  0.00  0.00    -0.005 C 
BRANCH   4   6
ATOM      6  C   UNL     1      -5.886   2.655  -1.894  0.00  0.00    +0.123 A 
ATOM      7  N   UNL     1      -5.344   2.083  -2.955  0.00  0.00    -0.201 NA
ATOM      8  C   UNL     1      -5.163   2.784  -4.072  0.00  0.00    +0.217 A 
ATOM      9  N   UNL     1      -5.529   4.060  -4.120  0.00  0.00    -0.181 NA
ATOM     10  C   UNL     1      -6.074   4.631  -3.051  0.00  0.00    +0.222 A 
ATOM     11  N   UNL     1      -6.256   3.922  -1.940  0.00  0.00    -0.201 NA
ATOM     12  N   UNL     1      -6.456   5.957  -3.096  0.00  0.00    -0.306 N 
ATOM     13  C   UNL     1      -6.262   6.734  -4.322  0.00  0.00    +0.132 C 
ATOM     14  C   UNL     1      -7.057   6.586  -1.917  0.00  0.00    +0.132 C 
ATOM     15  N   UNL     1      -4.597   2.186  -5.179  0.00  0.00    -0.327 N 
ATOM     16  H   UNL     1      -4.448   2.766  -6.102  0.00  0.00    +0.145 HD
ATOM     17  H   UNL     1      -4.294   1.129  -5.139  0.00  0.00    +0.145 HD
ENDBRANCH   4   6
ENDBRANCH   1   4
BRANCH   1  18
ATOM     18  C   UNL     1      -3.724   2.115  -0.178  0.00  0.00    +0.019 C 
BRANCH  18  20
ATOM     19  N   UNL     1      -1.262   2.023   0.044  0.00  0.00    -0.287 N 
ATOM     20  C   UNL     1      -2.427   1.355  -0.065  0.00  0.00    +0.201 C 
ATOM     21  O   UNL     1      -2.432   0.142  -0.073  0.00  0.00    -0.278 OA
ATOM     22  H   UNL     1      -1.263   3.121   0.123  0.00  0.00    +0.155 HD
BRANCH  19  29
ATOM     23  C   UNL     1       1.003   3.230  -1.185  0.00  0.00    +0.046 C 
ATOM     24  C   UNL     1       1.078   1.872  -0.534  0.00  0.00    -0.028 A 
ATOM     25  C   UNL     1       2.270   1.175  -0.525  0.00  0.00    +0.020 A 
ATOM     26  C   UNL     1       2.340  -0.071   0.072  0.00  0.00    +0.018 A 
ATOM     27  C   UNL     1       1.216  -0.622   0.661  0.00  0.00    +0.017 A 
ATOM     28  C   UNL     1       0.022   0.070   0.655  0.00  0.00    +0.024 A 
ATOM     29  C   UNL     1      -0.051   1.322   0.057  0.00  0.00    +0.036 A 
ATOM     30 BR   UNL     1       3.974  -1.022   0.082  0.00  0.00    -0.050 Br
ENDBRANCH  19  29
ENDBRANCH  18  20
ENDBRANCH   1  18
TORSDOF 5
