REMARK  Name = ZINC29112886
REMARK  8 active torsions:
REMARK  status: ('A' for Active; 'I' for Inactive)
REMARK    1  A    between atoms: C_1  and  C_2
REMARK    2  A    between atoms: C_2  and  C_3
REMARK    3  A    between atoms: C_2  and  C_4
REMARK    4  A    between atoms: C_4  and  C_6
REMARK    5  A    between atoms: C_4  and  N_11
REMARK    6  A    between atoms: N_11  and  C_12
REMARK    7  A    between atoms: C_12  and  C_13
REMARK    8  A    between atoms: C_17  and  C_26
REMARK                            x       y       z     vdW  Elec       q    Type
REMARK                         _______ _______ _______ _____ _____    ______ ____
ROOT
ATOM      1  C   UNL     1      -0.859   1.369   3.615  0.00  0.00    +0.203 C 
ATOM      2  O   UNL     1      -1.637   2.297   3.539  0.00  0.00    -0.277 OA
ATOM      3  N   UNL     1      -0.537   0.856   4.819  0.00  0.00    -0.266 N 
ATOM      4  C   UNL     1       0.471  -0.210   4.948  0.00  0.00    +0.168 C 
ATOM      5  C   UNL     1      -0.059  -1.228   5.967  0.00  0.00    +0.276 C 
ATOM      6  O   UNL     1      -0.297  -0.557   7.207  0.00  0.00    -0.476 OA
ATOM      7  C   UNL     1      -1.018   0.594   7.176  0.00  0.00    +0.143 A 
ATOM      8  C   UNL     1      -1.147   1.324   5.995  0.00  0.00    +0.078 A 
ATOM      9  C   UNL     1      -1.885   2.494   5.978  0.00  0.00    +0.027 A 
ATOM     10  C   UNL     1      -2.491   2.945   7.138  0.00  0.00    +0.002 A 
ATOM     11  C   UNL     1      -2.362   2.224   8.310  0.00  0.00    +0.004 A 
ATOM     12  C   UNL     1      -1.629   1.053   8.333  0.00  0.00    +0.047 A 
ENDROOT
BRANCH   5  13
ATOM     13  C   UNL     1       0.962  -2.318   6.171  0.00  0.00    +0.253 C 
ATOM     14  O   UNL     1       1.498  -2.453   7.250  0.00  0.00    -0.272 OA
ATOM     15  N   UNL     1       1.280  -3.143   5.153  0.00  0.00    -0.326 N 
ATOM     16  H   UNL     1       2.025  -3.938   5.301  0.00  0.00    +0.145 HD
ATOM     17  H   UNL     1       0.793  -3.020   4.174  0.00  0.00    +0.145 HD
ENDBRANCH   5  13
BRANCH   1  18
ATOM     18  C   UNL     1      -0.254   0.790   2.362  0.00  0.00    +0.016 C 
BRANCH  18  19
ATOM     19  N   UNL     1      -0.667   1.592   1.203  0.00  0.00    +0.390 N 
ATOM     20  H   UNL     1      -0.402   2.643   1.389  0.00  0.00    -0.084 HD
ATOM     21  H   UNL     1      -1.756   1.503   1.083  0.00  0.00    -0.084 HD
BRANCH  19  22
ATOM     22  C   UNL     1      -0.000   1.129  -0.022  0.00  0.00    -0.031 C 
BRANCH  22  23
ATOM     23  C   UNL     1      -0.777   1.598  -1.225  0.00  0.00    -0.024 A 
ATOM     24  C   UNL     1      -1.049   0.938  -2.377  0.00  0.00    +0.009 A 
ATOM     25  C   UNL     1      -1.789   1.574  -3.356  0.00  0.00    +0.008 A 
ATOM     26  C   UNL     1      -2.221   2.839  -3.135  0.00  0.00    +0.045 A 
ATOM     27  S   UNL     1      -1.584   3.167  -1.500  0.00  0.00    -0.103 S 
ENDBRANCH  22  23
BRANCH  22  29
ATOM     28  C   UNL     1       2.154   1.119  -1.288  0.00  0.00    +0.006 C 
ATOM     29  C   UNL     1       1.419   1.698  -0.077  0.00  0.00    -0.027 C 
ATOM     30  C   UNL     1       1.353   3.221  -0.200  0.00  0.00    +0.006 C 
ENDBRANCH  22  29
ENDBRANCH  19  22
ENDBRANCH  18  19
ENDBRANCH   1  18
TORSDOF 6
