REMARK  Name = ZINC65739639
REMARK  8 active torsions:
REMARK  status: ('A' for Active; 'I' for Inactive)
REMARK    1  A    between atoms: C_9  and  C_12
REMARK    2  A    between atoms: C_12  and  C_14
REMARK    3  A    between atoms: C_12  and  O_32
REMARK    4  A    between atoms: C_14  and  N_15
REMARK    5  A    between atoms: N_15  and  C_16
REMARK    6  A    between atoms: C_16  and  C_17
REMARK    7  A    between atoms: C_17  and  C_19
REMARK    8  A    between atoms: C_17  and  O_31
REMARK                            x       y       z     vdW  Elec       q    Type
REMARK                         _______ _______ _______ _____ _____    ______ ____
ROOT
ATOM      1  N   UNL     1       7.418  -2.319   0.333  0.00  0.00    +0.383 N 
ATOM      2  H   UNL     1       7.489  -3.310   0.514  0.00  0.00    -0.086 HD
ATOM      3  H   UNL     1       7.539  -2.148  -0.654  0.00  0.00    -0.086 HD
ENDROOT
BRANCH   1   4
ATOM      4  C   UNL     1       6.096  -1.838   0.755  0.00  0.00    -0.047 C 
BRANCH   4   5
ATOM      5  C   UNL     1       5.010  -2.578  -0.028  0.00  0.00    +0.138 C 
BRANCH   5  14
ATOM      6  C   UNL     1      -0.017   1.377   0.010  0.00  0.00    +0.000 A 
ATOM      7  C   UNL     1       1.172   2.084   0.002  0.00  0.00    +0.004 A 
ATOM      8  C   UNL     1       2.375   1.409  -0.015  0.00  0.00    +0.046 A 
ATOM      9  C   UNL     1       2.398   0.018  -0.024  0.00  0.00    +0.124 A 
ATOM     10  C   UNL     1       1.207  -0.687  -0.012  0.00  0.00    -0.006 A 
ATOM     11  C   UNL     1       0.002  -0.004   0.002  0.00  0.00    +0.007 A 
ATOM     12  C   UNL     1       1.187  -2.194  -0.010  0.00  0.00    +0.042 C 
ATOM     13  C   UNL     1       2.548  -2.729  -0.463  0.00  0.00    +0.052 C 
ATOM     14  C   UNL     1       3.641  -1.990   0.320  0.00  0.00    +0.200 C 
ATOM     15  O   UNL     1       3.602  -0.610  -0.046  0.00  0.00    -0.486 OA
ENDBRANCH   5  14
BRANCH   5  16
ATOM     16  O   UNL     1       5.035  -3.964   0.317  0.00  0.00    -0.390 OA
ATOM     17  H   UNL     1       4.880  -4.139   1.256  0.00  0.00    +0.210 HD
ENDBRANCH   5  16
ENDBRANCH   4   5
ENDBRANCH   1   4
BRANCH   1  18
ATOM     18  C   UNL     1       8.461  -1.609   1.085  0.00  0.00    -0.047 C 
BRANCH  18  19
ATOM     19  C   UNL     1       9.838  -2.111   0.646  0.00  0.00    +0.138 C 
BRANCH  19  20
ATOM     20  C   UNL     1      10.925  -1.370   1.429  0.00  0.00    +0.200 C 
ATOM     21  C   UNL     1      12.299  -1.964   1.093  0.00  0.00    +0.052 C 
ATOM     22  C   UNL     1      13.368  -1.132   1.805  0.00  0.00    +0.042 C 
ATOM     23  C   UNL     1      12.982  -0.936   3.249  0.00  0.00    -0.003 A 
ATOM     24  C   UNL     1      13.957  -0.549   4.153  0.00  0.00    +0.045 A 
ATOM     25  C   UNL     1      13.637  -0.356   5.484  0.00  0.00    +0.124 A 
ATOM     26  C   UNL     1      12.336  -0.549   5.917  0.00  0.00    +0.042 A 
ATOM     27  C   UNL     1      11.363  -0.936   5.020  0.00  0.00    +0.049 A 
ATOM     28  C   UNL     1      11.682  -1.133   3.680  0.00  0.00    +0.124 A 
ATOM     29  O   UNL     1      10.697  -1.524   2.830  0.00  0.00    -0.486 OA
ATOM     30  F   UNL     1      14.593   0.021   6.362  0.00  0.00    -0.205 F 
ENDBRANCH  19  20
BRANCH  19  31
ATOM     31  O   UNL     1       9.938  -3.513   0.902  0.00  0.00    -0.390 OA
ATOM     32  H   UNL     1       9.832  -3.751   1.833  0.00  0.00    +0.210 HD
ENDBRANCH  19  31
ENDBRANCH  18  19
ENDBRANCH   1  18
TORSDOF 8
