REMARK  Name = ZINC22735017
REMARK  10 active torsions:
REMARK  status: ('A' for Active; 'I' for Inactive)
REMARK    1  A    between atoms: C_1  and  C_2
REMARK    2  A    between atoms: C_4  and  C_35
REMARK    3  A    between atoms: C_6  and  N_8
REMARK    4  A    between atoms: C_9  and  C_11
REMARK    5  A    between atoms: N_13  and  C_14
REMARK    6  A    between atoms: C_14  and  C_15
REMARK    7  A    between atoms: C_15  and  C_17
REMARK    8  A    between atoms: C_15  and  N_28
REMARK    9  A    between atoms: N_26  and  C_27
REMARK   10  A    between atoms: N_31  and  C_34
REMARK                            x       y       z     vdW  Elec       q    Type
REMARK                         _______ _______ _______ _____ _____    ______ ____
ROOT
ATOM      1  C   UNL     1       4.082  -3.144   4.437  0.00  0.00    +0.104 C 
ENDROOT
BRANCH   1   2
ATOM      2  C   UNL     1       2.916  -3.149   3.482  0.00  0.00    -0.028 A 
ATOM      3  C   UNL     1       2.546  -4.320   2.846  0.00  0.00    +0.007 A 
ATOM      4  C   UNL     1       1.481  -4.321   1.972  0.00  0.00    +0.024 A 
ATOM      5  C   UNL     1       0.770  -3.146   1.722  0.00  0.00    +0.033 A 
ATOM      6  C   UNL     1       1.141  -1.978   2.366  0.00  0.00    -0.026 A 
ATOM      7  C   UNL     1       2.215  -1.984   3.241  0.00  0.00    +0.010 A 
ATOM      8  C   UNL     1       0.404  -0.680   2.153  0.00  0.00    +0.038 C 
ATOM      9  C   UNL     1      -0.470  -0.783   0.901  0.00  0.00    +0.024 C 
ATOM     10  C   UNL     1      -1.242  -2.107   0.972  0.00  0.00    +0.105 C 
ATOM     11  N   UNL     1      -0.293  -3.212   0.823  0.00  0.00    -0.333 N 
ATOM     12  C   UNL     1      -0.977  -4.509   0.910  0.00  0.00    +0.129 C 
ENDBRANCH   1   2
BRANCH   1  13
ATOM     13  N   UNL     1       4.237  -4.480   5.027  0.00  0.00    -0.297 NA
ATOM     14  C   UNL     1       4.741  -4.392   6.405  0.00  0.00    +0.066 C 
ATOM     15  C   UNL     1       4.812  -5.796   7.010  0.00  0.00    -0.064 C 
ATOM     16  N   UNL     1       5.689  -6.638   6.185  0.00  0.00    +0.379 N 
ATOM     17  C   UNL     1       5.185  -6.726   4.808  0.00  0.00    -0.064 C 
ATOM     18  C   UNL     1       5.114  -5.323   4.202  0.00  0.00    +0.066 C 
ATOM     19  C   UNL     1       5.843  -7.974   6.776  0.00  0.00    -0.096 C 
ATOM     20  H   UNL     1       6.682  -6.167   6.154  0.00  0.00    -0.082 HD
ENDBRANCH   1  13
BRANCH   1  21
ATOM     21  C   UNL     1       5.359  -2.770   3.680  0.00  0.00    +0.128 C 
BRANCH  21  24
ATOM     22  C   UNL     1       7.735  -2.523   4.162  0.00  0.00    +0.299 C 
ATOM     23  O   UNL     1       7.938  -2.437   2.969  0.00  0.00    -0.265 OA
ATOM     24  N   UNL     1       6.479  -2.691   4.622  0.00  0.00    -0.306 N 
ATOM     25  H   UNL     1       6.295  -2.770   5.703  0.00  0.00    +0.149 HD
BRANCH  22  27
ATOM     26  N   UNL     1      10.132  -2.275   4.662  0.00  0.00    -0.278 N 
ATOM     27  C   UNL     1       8.876  -2.443   5.122  0.00  0.00    +0.303 C 
ATOM     28  O   UNL     1       8.673  -2.529   6.315  0.00  0.00    -0.265 OA
ATOM     29  H   UNL     1      10.308  -2.112   3.589  0.00  0.00    +0.155 HD
BRANCH  26  35
ATOM     30  C   UNL     1      14.748  -3.638   5.662  0.00  0.00    +0.044 C 
ATOM     31  C   UNL     1      13.461  -2.963   6.061  0.00  0.00    -0.048 A 
ATOM     32  C   UNL     1      13.347  -2.375   7.308  0.00  0.00    +0.006 A 
ATOM     33  C   UNL     1      12.168  -1.754   7.678  0.00  0.00    -0.048 A 
ATOM     34  C   UNL     1      11.100  -1.719   6.803  0.00  0.00    +0.026 A 
ATOM     35  C   UNL     1      11.211  -2.308   5.550  0.00  0.00    +0.034 A 
ATOM     36  C   UNL     1      12.395  -2.936   5.183  0.00  0.00    +0.026 A 
ATOM     37  C   UNL     1      12.049  -1.114   9.037  0.00  0.00    +0.044 C 
ENDBRANCH  26  35
ENDBRANCH  22  27
ENDBRANCH  21  24
ENDBRANCH   1  21
TORSDOF 6
