REMARK  Name = ZINC58866776
REMARK  10 active torsions:
REMARK  status: ('A' for Active; 'I' for Inactive)
REMARK    1  A    between atoms: C_1  and  C_2
REMARK    2  A    between atoms: C_5  and  N_8
REMARK    3  A    between atoms: C_9  and  C_11
REMARK    4  A    between atoms: C_11  and  N_12
REMARK    5  A    between atoms: N_12  and  C_13
REMARK    6  A    between atoms: C_13  and  C_14
REMARK    7  A    between atoms: C_14  and  N_15
REMARK    8  A    between atoms: N_15  and  C_16
REMARK    9  A    between atoms: C_19  and  C_25
REMARK   10  A    between atoms: C_21  and  N_22
REMARK                            x       y       z     vdW  Elec       q    Type
REMARK                         _______ _______ _______ _____ _____    ______ ____
ROOT
ATOM      1  C   UNL     1       0.764  -8.281   2.488  0.00  0.00    -0.063 C 
ENDROOT
BRANCH   1   2
ATOM      2  N   UNL     1       0.674  -6.814   2.507  0.00  0.00    +0.386 N 
ATOM      3  H   UNL     1       1.484  -6.434   2.974  0.00  0.00    -0.085 HD
ATOM      4  H   UNL     1      -0.161  -6.535   3.000  0.00  0.00    -0.085 HD
BRANCH   2   5
ATOM      5  C   UNL     1       0.621  -6.309   1.129  0.00  0.00    +0.015 C 
BRANCH   5   7
ATOM      6  N   UNL     1       0.467  -4.118  -0.009  0.00  0.00    -0.287 N 
ATOM      7  C   UNL     1       0.528  -4.805   1.149  0.00  0.00    +0.200 C 
ATOM      8  O   UNL     1       0.508  -4.212   2.207  0.00  0.00    -0.278 OA
ATOM      9  H   UNL     1       0.406  -4.593  -0.852  0.00  0.00    +0.155 HD
BRANCH   6  14
ATOM     10  C   UNL     1       0.565   1.554   0.048  0.00  0.00    +0.044 C 
ATOM     11  C   UNL     1       0.539   0.047   0.033  0.00  0.00    -0.050 A 
ATOM     12  C   UNL     1       1.247  -0.664   0.984  0.00  0.00    +0.005 A 
ATOM     13  C   UNL     1       1.225  -2.045   0.973  0.00  0.00    +0.023 A 
ATOM     14  C   UNL     1       0.491  -2.719   0.005  0.00  0.00    +0.033 A 
ATOM     15  C   UNL     1      -0.219  -2.001  -0.948  0.00  0.00    +0.023 A 
ATOM     16  C   UNL     1      -0.197  -0.620  -0.929  0.00  0.00    +0.005 A 
ENDBRANCH   6  14
ENDBRANCH   5   7
ENDBRANCH   2   5
ENDBRANCH   1   2
BRANCH   1  17
ATOM     17  C   UNL     1       0.820  -8.807   3.923  0.00  0.00    +0.082 C 
BRANCH  17  18
ATOM     18  N   UNL     1       0.910 -10.269   3.904  0.00  0.00    -0.344 N 
ATOM     19  H   UNL     1       0.926 -10.743   3.057  0.00  0.00    +0.146 HD
BRANCH  18  20
ATOM     20  C   UNL     1       0.974 -10.981   5.104  0.00  0.00    +0.058 A 
ATOM     21  C   UNL     1       0.861 -10.313   6.316  0.00  0.00    +0.026 A 
ATOM     22  C   UNL     1       0.924 -11.019   7.501  0.00  0.00    +0.014 A 
ATOM     23  C   UNL     1       1.098 -12.391   7.481  0.00  0.00    +0.057 A 
ATOM     24  C   UNL     1       1.211 -13.060   6.276  0.00  0.00    +0.047 A 
ATOM     25  C   UNL     1       1.143 -12.360   5.087  0.00  0.00    +0.147 A 
BRANCH  23  26
ATOM     26  C   UNL     1       1.166 -13.159   8.776  0.00  0.00    +0.417 C 
ATOM     27  F   UNL     1       1.029 -12.274   9.851  0.00  0.00    -0.166 F 
ATOM     28  F   UNL     1       0.133 -14.102   8.814  0.00  0.00    -0.166 F 
ATOM     29  F   UNL     1       2.399 -13.815   8.866  0.00  0.00    -0.166 F 
ENDBRANCH  23  26
BRANCH  25  30
ATOM     30  N   UNL     1       1.258 -13.076   3.798  0.00  0.00    +0.058 N 
ATOM     31  O   UNL     1       0.585 -12.734   2.854  0.00  0.00    -0.126 OA
ATOM     32  O   UNL     1       2.024 -14.005   3.688  0.00  0.00    -0.126 OA
ENDBRANCH  25  30
ENDBRANCH  18  20
ENDBRANCH  17  18
ENDBRANCH   1  17
TORSDOF 9
