REMARK  Name = ZINC62904061
REMARK  5 active torsions:
REMARK  status: ('A' for Active; 'I' for Inactive)
REMARK    1  A    between atoms: C_1  and  C_2
REMARK    2  A    between atoms: C_2  and  C_7
REMARK    3  A    between atoms: N_9  and  C_10
REMARK    4  A    between atoms: C_10  and  C_15
REMARK    5  A    between atoms: C_15  and  O_16
REMARK                            x       y       z     vdW  Elec       q    Type
REMARK                         _______ _______ _______ _____ _____    ______ ____
ROOT
ATOM      1  C   UNL     1       0.728  -0.746  -1.256  0.00  0.00    +0.218 C 
ATOM      2  O   UNL     1       1.700  -1.471  -1.283  0.00  0.00    -0.275 OA
ATOM      3  N   UNL     1       0.192  -0.294  -2.407  0.00  0.00    -0.307 N 
ATOM      4  H   UNL     1      -0.629   0.223  -2.390  0.00  0.00    +0.149 HD
ENDROOT
BRANCH   1   6
ATOM      5  C   UNL     1       0.136   1.172   0.221  0.00  0.00    +0.019 C 
ATOM      6  C   UNL     1       0.120  -0.350   0.065  0.00  0.00    +0.027 C 
ATOM      7  C   UNL     1      -1.327  -0.885   0.174  0.00  0.00    -0.005 C 
ATOM      8  C   UNL     1      -1.152  -2.195   0.982  0.00  0.00    -0.082 C 
ATOM      9  N   UNL     1      -0.090  -1.851   1.962  0.00  0.00    +0.380 N 
ATOM     10  C   UNL     1       0.883  -1.015   1.225  0.00  0.00    -0.067 C 
ATOM     11  H   UNL     1      -0.483  -1.331   2.732  0.00  0.00    -0.086 HD
ATOM     12  H   UNL     1       0.357  -2.690   2.299  0.00  0.00    -0.086 HD
ENDBRANCH   1   6
BRANCH   3  13
ATOM     13  C   UNL     1       0.848  -0.585  -3.684  0.00  0.00    +0.058 C 
ATOM     14  C   UNL     1       0.028   0.002  -4.861  0.00  0.00    +0.028 C 
ATOM     15  C   UNL     1      -1.082  -1.058  -5.066  0.00  0.00    +0.002 C 
ATOM     16  C   UNL     1      -0.367  -2.405  -4.830  0.00  0.00    +0.002 C 
ATOM     17  C   UNL     1       0.860  -2.104  -3.952  0.00  0.00    +0.028 C 
BRANCH  13  18
ATOM     18  C   UNL     1       2.273  -0.029  -3.691  0.00  0.00    +0.181 C 
BRANCH  18  19
ATOM     19  O   UNL     1       2.242   1.365  -3.378  0.00  0.00    -0.393 OA
ATOM     20  H   UNL     1       3.113   1.784  -3.364  0.00  0.00    +0.209 HD
ENDBRANCH  18  19
ENDBRANCH  13  18
ENDBRANCH   3  13
TORSDOF 4
