REMARK  Name = ZINC38756124
REMARK  2 active torsions:
REMARK  status: ('A' for Active; 'I' for Inactive)
REMARK    1  A    between atoms: C_11  and  C_13
REMARK    2  A    between atoms: C_13  and  C_14
REMARK                            x       y       z     vdW  Elec       q    Type
REMARK                         _______ _______ _______ _____ _____    ______ ____
ROOT
ATOM      1  C   UNL     1       5.510  -2.026   1.732  0.00  0.00    +0.122 C 
ENDROOT
BRANCH   1   2
ATOM      2  C   UNL     1       6.209  -2.964   2.719  0.00  0.00    +0.112 C 
ATOM      3  C   UNL     1       6.940  -4.072   1.926  0.00  0.00    +0.103 C 
ATOM      4  S   UNL     1       8.382  -4.320   3.045  0.00  0.00    -0.086 S 
ATOM      5  C   UNL     1       8.332  -2.741   3.871  0.00  0.00    +0.172 A 
ATOM      6  N   UNL     1       7.130  -2.180   3.549  0.00  0.00    -0.283 N 
ATOM      7  C   UNL     1       6.887  -0.928   4.041  0.00  0.00    +0.258 A 
ATOM      8  O   UNL     1       5.845  -0.358   3.764  0.00  0.00    -0.267 OA
ATOM      9  C   UNL     1       7.831  -0.298   4.863  0.00  0.00    +0.038 A 
ATOM     10  C   UNL     1       8.998  -0.941   5.154  0.00  0.00    +0.052 A 
ATOM     11  N   UNL     1       9.211  -2.150   4.646  0.00  0.00    -0.228 NA
ATOM     12  C   UNL     1       9.855  -0.081   6.056  0.00  0.00    +0.056 C 
ATOM     13  C   UNL     1       9.271   1.343   5.926  0.00  0.00    +0.011 C 
ATOM     14  C   UNL     1       7.805   1.058   5.536  0.00  0.00    +0.043 C 
ENDBRANCH   1   2
BRANCH   1  25
ATOM     15  C   UNL     1       0.459   1.278  -1.208  0.00  0.00    +0.000 A 
ATOM     16  C   UNL     1       1.649   1.966  -1.062  0.00  0.00    +0.000 A 
ATOM     17  C   UNL     1       2.815   1.271  -0.816  0.00  0.00    +0.005 A 
ATOM     18  C   UNL     1       2.801  -0.113  -0.710  0.00  0.00    -0.027 A 
ATOM     19  C   UNL     1       1.615  -0.799  -0.846  0.00  0.00    -0.041 A 
ATOM     20  C   UNL     1       0.444  -0.097  -1.102  0.00  0.00    +0.004 A 
ATOM     21  C   UNL     1       1.518  -2.296  -0.714  0.00  0.00    +0.054 C 
ATOM     22  C   UNL     1       2.883  -2.951  -0.919  0.00  0.00    +0.113 C 
ATOM     23  N   UNL     1       3.865  -2.216  -0.105  0.00  0.00    -0.297 N 
ATOM     24  C   UNL     1       4.113  -0.812  -0.454  0.00  0.00    +0.143 C 
ATOM     25  C   UNL     1       4.510  -2.808   0.919  0.00  0.00    +0.218 C 
ATOM     26  O   UNL     1       4.287  -3.969   1.186  0.00  0.00    -0.276 OA
ENDBRANCH   1  25
TORSDOF 2
