REMARK  Name = ZINC01898068
REMARK  16 active torsions:
REMARK  status: ('A' for Active; 'I' for Inactive)
REMARK    1  A    between atoms: C_1  and  C_2
REMARK    2  A    between atoms: C_4  and  C_12
REMARK    3  A    between atoms: C_6  and  C_11
REMARK    4  A    between atoms: C_12  and  C_13
REMARK    5  A    between atoms: C_13  and  C_15
REMARK    6  A    between atoms: C_13  and  O_46
REMARK    7  A    between atoms: C_15  and  C_16
REMARK    8  A    between atoms: C_15  and  C_17
REMARK    9  A    between atoms: C_15  and  O_45
REMARK   10  A    between atoms: C_21  and  O_44
REMARK   11  A    between atoms: C_22  and  C_43
REMARK   12  A    between atoms: C_33  and  C_42
REMARK   13  A    between atoms: C_35  and  O_41
REMARK   14  A    between atoms: C_37  and  O_40
REMARK   15  A    between atoms: O_46  and  C_47
REMARK   16  A    between atoms: C_47  and  C_49
REMARK                            x       y       z     vdW  Elec       q    Type
REMARK                         _______ _______ _______ _____ _____    ______ ____
ROOT
ATOM      1  C   UNL     1      -5.574  -2.252  -2.591  0.00  0.00    +0.033 C 
ATOM      2  C   UNL     1      -6.693  -1.178  -2.634  0.00  0.00    +0.010 C 
ATOM      3  C   UNL     1      -7.550  -1.490  -3.894  0.00  0.00    +0.040 C 
ATOM      4  C   UNL     1      -7.292  -2.982  -4.116  0.00  0.00    +0.093 C 
ATOM      5  C   UNL     1      -5.760  -3.069  -3.861  0.00  0.00    +0.006 C 
ATOM      6  C   UNL     1      -5.393  -4.536  -3.828  0.00  0.00    +0.011 C 
ATOM      7  C   UNL     1      -5.555  -5.078  -5.256  0.00  0.00    +0.009 C 
ATOM      8  C   UNL     1      -6.975  -4.888  -5.789  0.00  0.00    +0.025 C 
ATOM      9  C   UNL     1      -7.504  -3.501  -5.509  0.00  0.00    -0.031 C 
ATOM     10  C   UNL     1      -8.138  -2.752  -6.404  0.00  0.00    +0.049 C 
ATOM     11  C   UNL     1      -8.359  -3.262  -7.763  0.00  0.00    +0.160 C 
ATOM     12  O   UNL     1      -8.582  -2.517  -8.694  0.00  0.00    -0.292 OA
ATOM     13  C   UNL     1      -8.295  -4.764  -7.943  0.00  0.00    +0.069 C 
ATOM     14  C   UNL     1      -7.019  -5.271  -7.258  0.00  0.00    -0.013 C 
ATOM     15  C   UNL     1      -6.929  -6.793  -7.402  0.00  0.00    +0.041 C 
ATOM     16  C   UNL     1      -8.150  -7.437  -6.740  0.00  0.00    +0.144 C 
ATOM     17  C   UNL     1      -9.425  -6.934  -7.419  0.00  0.00    +0.144 C 
ATOM     18  C   UNL     1      -9.529  -5.403  -7.304  0.00  0.00    +0.046 C 
ATOM     19  C   UNL     1      -5.808  -4.658  -7.963  0.00  0.00    +0.012 C 
ATOM     20  C   UNL     1      -5.012  -2.398  -5.015  0.00  0.00    +0.015 C 
ENDROOT
BRANCH   1  21
ATOM     21  C   UNL     1      -4.197  -1.585  -2.584  0.00  0.00    +0.103 C 
ATOM     22  C   UNL     1      -3.110  -2.661  -2.614  0.00  0.00    +0.045 C 
BRANCH  21  23
ATOM     23  O   UNL     1      -4.069  -0.746  -3.734  0.00  0.00    -0.385 OA
ATOM     24  H   UNL     1      -4.728  -0.040  -3.782  0.00  0.00    +0.210 HD
ENDBRANCH  21  23
BRANCH  21  25
ATOM     25  C   UNL     1      -4.046  -0.741  -1.318  0.00  0.00    +0.208 C 
BRANCH  25  26
ATOM     26  C   UNL     1      -2.669  -0.074  -1.311  0.00  0.00    +0.055 C 
BRANCH  26  29
ATOM     27  C   UNL     1      -1.404   2.957  -0.187  0.00  0.00    +0.019 C 
ATOM     28  C   UNL     1      -1.137   1.463   0.011  0.00  0.00    +0.101 C 
ATOM     29  C   UNL     1      -2.469   0.669   0.011  0.00  0.00    +0.046 C 
ATOM     30  C   UNL     1      -2.213  -0.322   1.179  0.00  0.00    +0.177 C 
ATOM     31  O   UNL     1      -1.431   0.468   2.100  0.00  0.00    -0.461 OA
ATOM     32  C   UNL     1      -0.553   1.205   1.387  0.00  0.00    +0.311 C 
ATOM     33  O   UNL     1       0.521   1.595   1.778  0.00  0.00    -0.251 OA
ATOM     34  C   UNL     1      -1.423  -1.539   0.695  0.00  0.00    +0.052 C 
ENDBRANCH  26  29
ENDBRANCH  25  26
BRANCH  25  35
ATOM     35  O   UNL     1      -5.062   0.264  -1.291  0.00  0.00    -0.459 OA
BRANCH  35  36
ATOM     36  C   UNL     1      -5.489   0.667  -0.083  0.00  0.00    +0.304 C 
ATOM     37  O   UNL     1      -5.015   0.182   0.917  0.00  0.00    -0.251 OA
ATOM     38  C   UNL     1      -6.558   1.723   0.024  0.00  0.00    +0.136 C 
ENDBRANCH  35  36
ENDBRANCH  25  35
ENDBRANCH  21  25
ENDBRANCH   1  21
BRANCH  17  39
ATOM     39  O   UNL     1     -10.563  -7.535  -6.797  0.00  0.00    -0.389 OA
ATOM     40  H   UNL     1     -10.575  -8.500  -6.847  0.00  0.00    +0.210 HD
ENDBRANCH  17  39
BRANCH  16  41
ATOM     41  O   UNL     1      -8.179  -7.090  -5.354  0.00  0.00    -0.389 OA
ATOM     42  H   UNL     1      -8.928  -7.464  -4.871  0.00  0.00    +0.210 HD
ENDBRANCH  16  41
BRANCH   4  43
ATOM     43  O   UNL     1      -8.027  -3.764  -3.172  0.00  0.00    -0.384 OA
ATOM     44  H   UNL     1      -8.986  -3.657  -3.235  0.00  0.00    +0.211 HD
ENDBRANCH   4  43
TORSDOF 10
