REMARK  Name = ZINC63710342
REMARK  5 active torsions:
REMARK  status: ('A' for Active; 'I' for Inactive)
REMARK    1  A    between atoms: C_7  and  C_10
REMARK    2  A    between atoms: C_10  and  C_11
REMARK    3  A    between atoms: C_11  and  N_12
REMARK    4  A    between atoms: C_13  and  C_15
REMARK    5  A    between atoms: N_17  and  C_18
REMARK                            x       y       z     vdW  Elec       q    Type
REMARK                         _______ _______ _______ _____ _____    ______ ____
ROOT
ATOM      1  N   UNL     1      -0.458  -4.798  -1.460  0.00  0.00    -0.307 N 
ATOM      2  C   UNL     1      -0.811  -5.380  -2.623  0.00  0.00    +0.299 C 
ATOM      3  O   UNL     1      -0.370  -4.957  -3.672  0.00  0.00    -0.265 OA
ATOM      4  H   UNL     1      -0.810  -5.136  -0.622  0.00  0.00    +0.149 HD
ENDROOT
BRANCH   2   5
ATOM      5  C   UNL     1      -1.744  -6.548  -2.622  0.00  0.00    +0.301 C 
ATOM      6  O   UNL     1      -2.184  -6.971  -1.573  0.00  0.00    -0.265 OA
ATOM      7  N   UNL     1      -2.096  -7.130  -3.785  0.00  0.00    -0.280 N 
ATOM      8  H   UNL     1      -1.744  -6.792  -4.623  0.00  0.00    +0.152 HD
BRANCH   7   9
ATOM      9  C   UNL     1      -3.011  -8.274  -3.783  0.00  0.00    +0.224 C 
ATOM     10  N   UNL     1      -3.048  -8.924  -5.101  0.00  0.00    -0.316 N 
ATOM     11  C   UNL     1      -4.266  -8.940  -5.777  0.00  0.00    +0.043 A 
ATOM     12  C   UNL     1      -4.493  -9.512  -7.042  0.00  0.00    +0.024 A 
ATOM     13  C   UNL     1      -5.737  -9.475  -7.628  0.00  0.00    +0.002 A 
ATOM     14  C   UNL     1      -6.808  -8.875  -6.993  0.00  0.00    +0.001 A 
ATOM     15  C   UNL     1      -6.614  -8.303  -5.747  0.00  0.00    +0.016 A 
ATOM     16  C   UNL     1      -5.369  -8.340  -5.161  0.00  0.00    +0.032 A 
ATOM     17  S   UNL     1      -4.756  -7.726  -3.607  0.00  0.00    -0.082 S 
ATOM     18  H   UNL     1      -2.253  -9.326  -5.486  0.00  0.00    +0.149 HD
ENDBRANCH   7   9
ENDBRANCH   2   5
BRANCH   1  19
ATOM     19  C   UNL     1       0.457  -3.653  -1.462  0.00  0.00    +0.109 C 
BRANCH  19  20
ATOM     20  C   UNL     1       0.691  -3.186  -0.024  0.00  0.00    +0.052 C 
BRANCH  20  27
ATOM     21  C   UNL     1      -0.016   1.348   0.009  0.00  0.00    +0.001 A 
ATOM     22  C   UNL     1       1.166   2.101   0.002  0.00  0.00    +0.002 A 
ATOM     23  C   UNL     1       2.391   1.535  -0.013  0.00  0.00    +0.026 A 
ATOM     24  C   UNL     1       2.529   0.120  -0.022  0.00  0.00    +0.043 A 
ATOM     25  N   UNL     1       3.587  -0.654  -0.037  0.00  0.00    -0.380 N 
ATOM     26  C   UNL     1       3.143  -2.053  -0.041  0.00  0.00    +0.144 C 
ATOM     27  C   UNL     1       1.631  -2.008  -0.025  0.00  0.00    -0.040 C 
ATOM     28  C   UNL     1       1.295  -0.698  -0.014  0.00  0.00    -0.001 A 
ATOM     29  C   UNL     1       0.002  -0.004   0.002  0.00  0.00    +0.010 A 
ATOM     30  H   UNL     1       4.509  -0.353  -0.045  0.00  0.00    +0.160 HD
ENDBRANCH  20  27
ENDBRANCH  19  20
ENDBRANCH   1  19
TORSDOF 5
