REMARK  Name = ZINC61799487
REMARK  12 active torsions:
REMARK  status: ('A' for Active; 'I' for Inactive)
REMARK    1  A    between atoms: C_1  and  C_2
REMARK    2  A    between atoms: C_2  and  C_3
REMARK    3  A    between atoms: C_2  and  N_13
REMARK    4  A    between atoms: C_6  and  S_9
REMARK    5  A    between atoms: S_9  and  N_12
REMARK    6  A    between atoms: N_13  and  C_14
REMARK    7  A    between atoms: N_13  and  C_15
REMARK    8  A    between atoms: C_15  and  C_16
REMARK    9  A    between atoms: N_18  and  C_19
REMARK   10  A    between atoms: C_19  and  C_20
REMARK   11  A    between atoms: C_19  and  C_21
REMARK   12  A    between atoms: C_19  and  C_22
REMARK                            x       y       z     vdW  Elec       q    Type
REMARK                         _______ _______ _______ _____ _____    ______ ____
ROOT
ATOM      1  C   UNL     1      -0.019   1.526   0.010  0.00  0.00    -0.008 C 
ATOM      2  C   UNL     1       0.002  -0.004   0.002  0.00  0.00    -0.041 C 
ENDROOT
BRANCH   2   3
ATOM      3  C   UNL     1      -1.412  -0.526   0.013  0.00  0.00    -0.061 A 
ATOM      4  C   UNL     1      -2.123  -0.571   1.197  0.00  0.00    +0.004 A 
ATOM      5  C   UNL     1      -3.420  -1.049   1.207  0.00  0.00    +0.029 A 
ATOM      6  C   UNL     1      -4.006  -1.482   0.032  0.00  0.00    +0.105 A 
ATOM      7  C   UNL     1      -3.295  -1.436  -1.153  0.00  0.00    +0.029 A 
ATOM      8  C   UNL     1      -2.000  -0.954  -1.163  0.00  0.00    +0.004 A 
BRANCH   6   9
ATOM      9  S   UNL     1      -5.658  -2.093   0.045  0.00  0.00    +0.056 S 
ATOM     10  O   UNL     1      -5.785  -2.944  -1.086  0.00  0.00    -0.153 OA
ATOM     11  O   UNL     1      -5.915  -2.542   1.369  0.00  0.00    -0.153 OA
BRANCH   9  12
ATOM     12  N   UNL     1      -6.660  -0.801  -0.219  0.00  0.00    -0.204 NA
ATOM     13  H   UNL     1      -7.510  -0.930  -0.669  0.00  0.00    +0.144 HD
ATOM     14  H   UNL     1      -6.397   0.085   0.076  0.00  0.00    +0.144 HD
ENDBRANCH   9  12
ENDBRANCH   6   9
ENDBRANCH   2   3
BRANCH   2  15
ATOM     15  N   UNL     1       0.713  -0.491   1.192  0.00  0.00    +0.388 N 
ATOM     16  C   UNL     1       2.091   0.018   1.182  0.00  0.00    -0.095 C 
ATOM     17  H   UNL     1       0.240  -0.165   2.022  0.00  0.00    -0.081 HD
BRANCH  15  18
ATOM     18  C   UNL     1       0.733  -1.960   1.184  0.00  0.00    +0.019 C 
BRANCH  18  19
ATOM     19  C   UNL     1       1.352  -2.461   2.463  0.00  0.00    +0.197 C 
ATOM     20  O   UNL     1       1.739  -1.672   3.299  0.00  0.00    -0.278 OA
ATOM     21  N   UNL     1       1.476  -3.785   2.678  0.00  0.00    -0.312 N 
ATOM     22  H   UNL     1       1.167  -4.416   2.010  0.00  0.00    +0.149 HD
BRANCH  21  23
ATOM     23  C   UNL     1       2.078  -4.272   3.922  0.00  0.00    +0.026 C 
ATOM     24  C   UNL     1       1.256  -3.780   5.114  0.00  0.00    +0.031 C 
ATOM     25  C   UNL     1       2.099  -5.802   3.913  0.00  0.00    +0.031 C 
ATOM     26  C   UNL     1       3.509  -3.744   4.037  0.00  0.00    +0.031 C 
ENDBRANCH  21  23
ENDBRANCH  18  19
ENDBRANCH  15  18
ENDBRANCH   2  15
TORSDOF 7
