REMARK  Name = ZINC08254142
REMARK  12 active torsions:
REMARK  status: ('A' for Active; 'I' for Inactive)
REMARK    1  A    between atoms: C_1  and  C_2
REMARK    2  A    between atoms: C_2  and  O_3
REMARK    3  A    between atoms: O_3  and  C_4
REMARK    4  A    between atoms: C_6  and  C_20
REMARK    5  A    between atoms: C_9  and  O_10
REMARK    6  A    between atoms: O_10  and  C_11
REMARK    7  A    between atoms: C_11  and  C_12
REMARK    8  A    between atoms: C_20  and  N_47
REMARK    9  A    between atoms: C_21  and  C_22
REMARK   10  A    between atoms: C_21  and  N_47
REMARK   11  A    between atoms: C_22  and  C_24
REMARK   12  A    between atoms: C_22  and  O_25
REMARK                            x       y       z     vdW  Elec       q    Type
REMARK                         _______ _______ _______ _____ _____    ______ ____
ROOT
ATOM      1  C   UNL     1       2.405   0.035  -0.021  0.00  0.00    +0.163 A 
ATOM      2  C   UNL     1       2.379   1.421  -0.013  0.00  0.00    +0.051 A 
ATOM      3  C   UNL     1       1.169   2.089   0.002  0.00  0.00    -0.060 A 
ATOM      4  C   UNL     1      -0.017   1.379   0.010  0.00  0.00    +0.021 A 
ATOM      5  C   UNL     1       0.002  -0.004   0.002  0.00  0.00    +0.063 A 
ATOM      6  C   UNL     1       1.212  -0.680  -0.013  0.00  0.00    +0.176 A 
ATOM      7 BR   UNL     1      -1.622  -0.972   0.013  0.00  0.00    -0.046 Br
ENDROOT
BRANCH   1   8
ATOM      8  O   UNL     1       3.595  -0.624  -0.035  0.00  0.00    -0.489 OA
BRANCH   8  10
ATOM      9  C   UNL     1       6.009  -0.735  -0.058  0.00  0.00    +0.048 C 
ATOM     10  C   UNL     1       4.779   0.175  -0.042  0.00  0.00    +0.226 C 
ENDBRANCH   8  10
ENDBRANCH   1   8
BRANCH   6  11
ATOM     11  O   UNL     1       1.233  -2.041  -0.020  0.00  0.00    -0.483 OA
BRANCH  11  12
ATOM     12  C   UNL     1       1.230  -2.683  -1.297  0.00  0.00    +0.267 C 
BRANCH  12  13
ATOM     13  C   UNL     1       1.255  -4.178  -1.107  0.00  0.00    +0.025 A 
ATOM     14  C   UNL     1       1.281  -4.712   0.167  0.00  0.00    +0.010 A 
ATOM     15  C   UNL     1       1.298  -6.083   0.342  0.00  0.00    +0.001 A 
ATOM     16  C   UNL     1       1.300  -6.921  -0.758  0.00  0.00    +0.003 A 
ATOM     17  C   UNL     1       1.280  -6.389  -2.033  0.00  0.00    +0.039 A 
ATOM     18  C   UNL     1       1.257  -5.015  -2.209  0.00  0.00    +0.130 A 
ATOM     19  F   UNL     1       1.238  -4.494  -3.455  0.00  0.00    -0.205 F 
ENDBRANCH  12  13
ENDBRANCH  11  12
ENDBRANCH   6  11
BRANCH   3  20
ATOM     20  C   UNL     1       1.143   3.596   0.010  0.00  0.00    -0.047 C 
BRANCH  20  21
ATOM     21  N   UNL     1       1.148   4.072   1.406  0.00  0.00    +0.383 N 
ATOM     22  H   UNL     1       1.997   3.736   1.876  0.00  0.00    -0.085 HD
ATOM     23  H   UNL     1       0.320   3.707   1.891  0.00  0.00    -0.085 HD
BRANCH  21  24
ATOM     24  C   UNL     1       1.123   5.547   1.444  0.00  0.00    -0.051 C 
BRANCH  24  25
ATOM     25  C   UNL     1       1.128   6.011   2.902  0.00  0.00    +0.095 C 
ATOM     26  C   UNL     1       0.977   7.532   2.954  0.00  0.00    +0.035 C 
BRANCH  25  27
ATOM     27  O   UNL     1       2.362   5.634   3.517  0.00  0.00    -0.394 OA
ATOM     28  H   UNL     1       3.144   6.013   3.094  0.00  0.00    +0.210 HD
ENDBRANCH  25  27
ENDBRANCH  24  25
ENDBRANCH  21  24
ENDBRANCH  20  21
ENDBRANCH   3  20
TORSDOF 10
