REMARK  Name = ZINC39308715
REMARK  7 active torsions:
REMARK  status: ('A' for Active; 'I' for Inactive)
REMARK    1  A    between atoms: C_1  and  C_2
REMARK    2  A    between atoms: C_6  and  O_26
REMARK    3  A    between atoms: C_7  and  O_25
REMARK    4  A    between atoms: N_12  and  C_13
REMARK    5  A    between atoms: C_13  and  C_14
REMARK    6  A    between atoms: N_16  and  C_17
REMARK    7  A    between atoms: C_21  and  C_23
REMARK                            x       y       z     vdW  Elec       q    Type
REMARK                         _______ _______ _______ _____ _____    ______ ____
ROOT
ATOM      1  C   UNL     1      -0.002   1.536   0.013  0.00  0.00    -0.008 C 
ATOM      2  C   UNL     1       0.007   0.006   0.002  0.00  0.00    -0.040 C 
ATOM      3  C   UNL     1       0.698  -0.478  -1.245  0.00  0.00    -0.054 A 
ATOM      4  C   UNL     1       0.443   0.181  -2.440  0.00  0.00    +0.051 A 
ATOM      5  C   UNL     1       1.055  -0.231  -3.610  0.00  0.00    +0.158 A 
ATOM      6  C   UNL     1       1.930  -1.313  -3.588  0.00  0.00    +0.158 A 
ATOM      7  C   UNL     1       2.182  -1.966  -2.395  0.00  0.00    +0.053 A 
ATOM      8  C   UNL     1       1.567  -1.548  -1.224  0.00  0.00    -0.044 A 
ATOM      9  C   UNL     1       1.877  -2.283   0.055  0.00  0.00    +0.017 C 
ATOM     10  C   UNL     1       0.827  -1.945   1.114  0.00  0.00    -0.073 C 
ATOM     11  N   UNL     1       0.701  -0.482   1.198  0.00  0.00    +0.390 N 
ATOM     12  H   UNL     1       1.619  -0.066   1.249  0.00  0.00    -0.080 HD
ENDROOT
BRANCH   6  13
ATOM     13  O   UNL     1       2.535  -1.726  -4.734  0.00  0.00    -0.503 OA
ATOM     14  H   UNL     1       3.384  -1.297  -4.908  0.00  0.00    +0.292 HD
ENDBRANCH   6  13
BRANCH   5  15
ATOM     15  O   UNL     1       0.801   0.418  -4.778  0.00  0.00    -0.503 OA
ATOM     16  H   UNL     1       1.402   1.155  -4.957  0.00  0.00    +0.292 HD
ENDBRANCH   5  15
BRANCH  11  17
ATOM     17  C   UNL     1      -0.071  -0.123   2.395  0.00  0.00    +0.020 C 
BRANCH  17  18
ATOM     18  C   UNL     1       0.703  -0.516   3.627  0.00  0.00    +0.201 C 
ATOM     19  O   UNL     1       1.790  -1.043   3.519  0.00  0.00    -0.278 OA
ATOM     20  N   UNL     1       0.186  -0.282   4.850  0.00  0.00    -0.287 N 
ATOM     21  H   UNL     1      -0.651   0.199   4.939  0.00  0.00    +0.155 HD
BRANCH  20  22
ATOM     22  C   UNL     1       0.859  -0.733   5.992  0.00  0.00    +0.035 A 
ATOM     23  C   UNL     1       0.137  -1.180   7.092  0.00  0.00    +0.023 A 
ATOM     24  C   UNL     1       0.796  -1.627   8.222  0.00  0.00    +0.003 A 
ATOM     25  C   UNL     1       2.175  -1.632   8.265  0.00  0.00    +0.019 A 
ATOM     26  C   UNL     1       2.910  -1.186   7.165  0.00  0.00    +0.054 A 
ATOM     27  C   UNL     1       2.244  -0.740   6.022  0.00  0.00    +0.042 A 
BRANCH  26  28
ATOM     28  C   UNL     1       4.341  -1.190   7.207  0.00  0.00    +0.099 C 
ATOM     29  N   UNL     1       5.477  -1.194   7.240  0.00  0.00    -0.191 NA
ENDBRANCH  26  28
ENDBRANCH  20  22
ENDBRANCH  17  18
ENDBRANCH  11  17
TORSDOF 6
