REMARK  Name = ZINC59500974
REMARK  5 active torsions:
REMARK  status: ('A' for Active; 'I' for Inactive)
REMARK    1  A    between atoms: C_4  and  C_7
REMARK    2  A    between atoms: C_10  and  C_13
REMARK    3  A    between atoms: C_15  and  C_21
REMARK    4  A    between atoms: C_21  and  C_23
REMARK    5  A    between atoms: C_21  and  O_29
REMARK                            x       y       z     vdW  Elec       q    Type
REMARK                         _______ _______ _______ _____ _____    ______ ____
ROOT
ATOM      1  C   UNL     1       7.422  -3.015  -0.232  0.00  0.00    +0.109 C 
ATOM      2  C   UNL     1       7.595  -3.685   1.159  0.00  0.00    +0.131 C 
ATOM      3  N   UNL     1       8.332  -4.930   1.051  0.00  0.00    -0.361 N 
ATOM      4  C   UNL     1       8.457  -5.546  -0.090  0.00  0.00    +0.126 C 
ATOM      5  S   UNL     1       7.607  -4.520  -1.281  0.00  0.00    -0.083 S 
ATOM      6  N   UNL     1       9.106  -6.735  -0.328  0.00  0.00    -0.339 N 
ATOM      7  H   UNL     1       9.536  -7.207   0.402  0.00  0.00    +0.144 HD
ATOM      8  H   UNL     1       9.134  -7.101  -1.226  0.00  0.00    +0.144 HD
ATOM      9  H   UNL     1       8.741  -5.311   1.844  0.00  0.00    +0.162 HD
ENDROOT
BRANCH   1  13
ATOM     10  C   UNL     1       3.547  -1.262  -0.665  0.00  0.00    -0.018 A 
ATOM     11  C   UNL     1       3.705  -2.642  -0.770  0.00  0.00    +0.009 A 
ATOM     12  C   UNL     1       4.959  -3.203  -0.629  0.00  0.00    +0.005 A 
ATOM     13  C   UNL     1       6.056  -2.397  -0.385  0.00  0.00    -0.032 A 
ATOM     14  C   UNL     1       5.904  -1.026  -0.279  0.00  0.00    +0.005 A 
ATOM     15  C   UNL     1       4.657  -0.454  -0.424  0.00  0.00    +0.009 A 
BRANCH  10  19
ATOM     16  C   UNL     1      -0.308   0.482  -1.095  0.00  0.00    +0.000 A 
ATOM     17  C   UNL     1      -0.157  -0.889  -1.195  0.00  0.00    +0.001 A 
ATOM     18  C   UNL     1       1.092  -1.461  -1.056  0.00  0.00    +0.008 A 
ATOM     19  C   UNL     1       2.202  -0.653  -0.815  0.00  0.00    -0.018 A 
ATOM     20  C   UNL     1       2.044   0.728  -0.716  0.00  0.00    +0.008 A 
ATOM     21  C   UNL     1       0.791   1.288  -0.856  0.00  0.00    +0.001 A 
ENDBRANCH  10  19
ENDBRANCH   1  13
BRANCH   2  22
ATOM     22  C   UNL     1       6.214  -3.971   1.753  0.00  0.00    +0.168 C 
BRANCH  22  23
ATOM     23  C   UNL     1       6.370  -4.757   3.029  0.00  0.00    -0.017 A 
ATOM     24  C   UNL     1       6.595  -4.099   4.223  0.00  0.00    +0.006 A 
ATOM     25  C   UNL     1       6.738  -4.820   5.394  0.00  0.00    +0.000 A 
ATOM     26  C   UNL     1       6.655  -6.200   5.370  0.00  0.00    +0.000 A 
ATOM     27  C   UNL     1       6.428  -6.858   4.176  0.00  0.00    +0.000 A 
ATOM     28  C   UNL     1       6.281  -6.136   3.006  0.00  0.00    +0.006 A 
ENDBRANCH  22  23
BRANCH  22  29
ATOM     29  O   UNL     1       5.551  -2.736   2.032  0.00  0.00    -0.385 OA
ATOM     30  H   UNL     1       6.020  -2.171   2.660  0.00  0.00    +0.210 HD
ENDBRANCH  22  29
ENDBRANCH   2  22
TORSDOF 5
