REMARK  Name = ZINC21111447
REMARK  13 active torsions:
REMARK  status: ('A' for Active; 'I' for Inactive)
REMARK    1  A    between atoms: C_1  and  C_2
REMARK    2  A    between atoms: C_2  and  O_3
REMARK    3  A    between atoms: O_3  and  C_4
REMARK    4  A    between atoms: C_4  and  C_6
REMARK    5  A    between atoms: C_10  and  N_11
REMARK    6  A    between atoms: C_12  and  C_14
REMARK    7  A    between atoms: C_14  and  S_15
REMARK    8  A    between atoms: S_15  and  C_16
REMARK    9  A    between atoms: C_18  and  C_21
REMARK   10  A    between atoms: C_27  and  C_33
REMARK   11  A    between atoms: C_27  and  C_34
REMARK   12  A    between atoms: C_29  and  C_31
REMARK   13  A    between atoms: C_29  and  C_32
REMARK                            x       y       z     vdW  Elec       q    Type
REMARK                         _______ _______ _______ _____ _____    ______ ____
ROOT
ATOM      1  C   UNL     1      -0.647   1.516  -4.905  0.00  0.00    +0.091 A 
ATOM      2  C   UNL     1      -1.522   2.109  -5.893  0.00  0.00    -0.024 A 
ATOM      3  C   UNL     1      -2.558   2.828  -5.401  0.00  0.00    -0.016 A 
ATOM      4  S   UNL     1      -2.385   2.713  -3.644  0.00  0.00    -0.079 S 
ATOM      5  C   UNL     1      -0.959   1.732  -3.566  0.00  0.00    +0.086 A 
ATOM      6  C   UNL     1      -3.594   3.554  -6.194  0.00  0.00    -0.041 C 
ATOM      7  N   UNL     1      -3.497   3.247  -7.618  0.00  0.00    +0.389 N 
ATOM      8  C   UNL     1      -2.786   2.040  -8.008  0.00  0.00    -0.069 C 
ATOM      9  C   UNL     1      -1.378   1.985  -7.404  0.00  0.00    +0.024 C 
ATOM     10  C   UNL     1      -3.562   0.786  -7.597  0.00  0.00    -0.010 C 
ATOM     11  C   UNL     1      -2.643   2.027  -9.541  0.00  0.00    -0.010 C 
ATOM     12  C   UNL     1      -4.988   3.194  -5.663  0.00  0.00    -0.005 C 
ATOM     13  C   UNL     1      -3.386   5.068  -5.994  0.00  0.00    -0.005 C 
ATOM     14  H   UNL     1      -4.508   3.131  -8.037  0.00  0.00    -0.084 HD
ATOM     15  H   UNL     1      -2.977   4.066  -8.135  0.00  0.00    -0.084 HD
ENDROOT
BRANCH   5  16
ATOM     16  N   UNL     1      -0.288   1.272  -2.443  0.00  0.00    -0.279 N 
ATOM     17  C   UNL     1      -0.742   1.585  -1.213  0.00  0.00    +0.228 C 
ATOM     18  O   UNL     1      -1.736   2.268  -1.088  0.00  0.00    -0.275 OA
ATOM     19  H   UNL     1       0.614   0.653  -2.556  0.00  0.00    +0.155 HD
BRANCH  17  20
ATOM     20  C   UNL     1      -0.013   1.086   0.008  0.00  0.00    +0.173 C 
BRANCH  20  21
ATOM     21  S   UNL     1      -0.860   1.669   1.497  0.00  0.00    -0.077 S 
BRANCH  21  22
ATOM     22  C   UNL     1       0.174   0.961   2.735  0.00  0.00    +0.190 A 
ATOM     23  N   UNL     1       0.016   1.077   4.087  0.00  0.00    -0.316 N 
ATOM     24  C   UNL     1       1.050   0.361   4.644  0.00  0.00    +0.162 A 
ATOM     25  N   UNL     1       1.754  -0.134   3.653  0.00  0.00    -0.129 NA
ATOM     26  N   UNL     1       1.241   0.221   2.530  0.00  0.00    -0.122 NA
ATOM     27  H   UNL     1      -0.821   1.662   4.494  0.00  0.00    +0.169 HD
BRANCH  24  28
ATOM     28  C   UNL     1       1.318   0.183   6.087  0.00  0.00    +0.019 A 
ATOM     29  C   UNL     1       0.475   0.768   7.034  0.00  0.00    +0.011 A 
ATOM     30  C   UNL     1       0.727   0.593   8.379  0.00  0.00    +0.001 A 
ATOM     31  C   UNL     1       1.819  -0.151   8.790  0.00  0.00    +0.000 A 
ATOM     32  C   UNL     1       2.660  -0.730   7.857  0.00  0.00    +0.001 A 
ATOM     33  C   UNL     1       2.417  -0.568   6.509  0.00  0.00    +0.011 A 
ENDBRANCH  24  28
ENDBRANCH  21  22
ENDBRANCH  20  21
ENDBRANCH  17  20
ENDBRANCH   5  16
BRANCH   1  34
ATOM     34  C   UNL     1       0.523   0.722  -5.285  0.00  0.00    +0.342 C 
ATOM     35  O   UNL     1       0.419  -0.480  -5.440  0.00  0.00    -0.245 OA
BRANCH  34  36
ATOM     36  O   UNL     1       1.717   1.324  -5.463  0.00  0.00    -0.461 OA
BRANCH  36  38
ATOM     37  C   UNL     1       4.094   1.329  -5.994  0.00  0.00    +0.048 C 
ATOM     38  C   UNL     1       2.834   0.475  -5.839  0.00  0.00    +0.229 C 
ENDBRANCH  36  38
ENDBRANCH  34  36
ENDBRANCH   1  34
TORSDOF 8
