REMARK  Name = ZINC66907813
REMARK  7 active torsions:
REMARK  status: ('A' for Active; 'I' for Inactive)
REMARK    1  A    between atoms: C_10  and  C_11
REMARK    2  A    between atoms: C_10  and  O_29
REMARK    3  A    between atoms: C_11  and  N_12
REMARK    4  A    between atoms: N_15  and  C_16
REMARK    5  A    between atoms: C_16  and  C_17
REMARK    6  A    between atoms: C_17  and  C_19
REMARK    7  A    between atoms: C_17  and  N_24
REMARK                            x       y       z     vdW  Elec       q    Type
REMARK                         _______ _______ _______ _____ _____    ______ ____
ROOT
ATOM      1  N   UNL     1       4.253   1.630  -0.985  0.00  0.00    -0.296 N 
ATOM      2  C   UNL     1       5.021   2.482  -1.694  0.00  0.00    +0.300 C 
ATOM      3  O   UNL     1       5.523   2.120  -2.740  0.00  0.00    -0.253 OA
ATOM      4  N   UNL     1       5.232   3.734  -1.242  0.00  0.00    -0.301 N 
ATOM      5  H   UNL     1       3.852   1.919  -0.150  0.00  0.00    +0.150 HD
ATOM      6  H   UNL     1       4.832   4.022  -0.407  0.00  0.00    +0.150 HD
ENDROOT
BRANCH   1   7
ATOM      7  C   UNL     1       4.023   0.270  -1.477  0.00  0.00    +0.145 C 
BRANCH   7  17
ATOM      8  C   UNL     1       2.504  -4.432  -2.012  0.00  0.00    +0.000 A 
ATOM      9  C   UNL     1       2.558  -3.358  -2.881  0.00  0.00    +0.000 A 
ATOM     10  C   UNL     1       2.735  -2.083  -2.385  0.00  0.00    +0.007 A 
ATOM     11  C   UNL     1       2.862  -1.869  -1.018  0.00  0.00    -0.011 A 
ATOM     12  C   UNL     1       2.813  -2.938  -0.153  0.00  0.00    -0.041 A 
ATOM     13  C   UNL     1       2.630  -4.221  -0.654  0.00  0.00    +0.004 A 
ATOM     14  C   UNL     1       2.960  -2.782   1.338  0.00  0.00    +0.035 C 
ATOM     15  C   UNL     1       2.720  -1.332   1.752  0.00  0.00    +0.008 C 
ATOM     16  C   UNL     1       3.597  -0.427   0.879  0.00  0.00    +0.041 C 
ATOM     17  C   UNL     1       3.046  -0.451  -0.545  0.00  0.00    +0.107 C 
BRANCH  17  18
ATOM     18  O   UNL     1       1.786   0.223  -0.574  0.00  0.00    -0.382 OA
ATOM     19  H   UNL     1       1.381   0.263  -1.451  0.00  0.00    +0.211 HD
ENDBRANCH  17  18
ENDBRANCH   7  17
ENDBRANCH   1   7
BRANCH   4  20
ATOM     20  C   UNL     1       6.067   4.659  -2.012  0.00  0.00    +0.098 C 
BRANCH  20  21
ATOM     21  C   UNL     1       6.232   5.966  -1.233  0.00  0.00    +0.016 C 
BRANCH  21  22
ATOM     22  N   UNL     1       7.170   6.844  -1.944  0.00  0.00    +0.387 N 
ATOM     23  C   UNL     1       7.352   8.114  -1.194  0.00  0.00    -0.078 C 
ATOM     24  C   UNL     1       8.711   8.643  -1.716  0.00  0.00    -0.020 C 
ATOM     25  C   UNL     1       9.544   7.351  -1.882  0.00  0.00    -0.020 C 
ATOM     26  C   UNL     1       8.509   6.218  -2.006  0.00  0.00    -0.078 C 
ATOM     27  H   UNL     1       6.832   7.035  -2.875  0.00  0.00    -0.081 HD
ENDBRANCH  21  22
BRANCH  21  28
ATOM     28  C   UNL     1       4.895   6.651  -1.113  0.00  0.00    +0.093 A 
ATOM     29  C   UNL     1       4.094   6.630  -0.033  0.00  0.00    +0.043 A 
ATOM     30  C   UNL     1       2.951   7.397  -0.355  0.00  0.00    +0.041 A 
ATOM     31  C   UNL     1       3.122   7.841  -1.613  0.00  0.00    +0.195 A 
ATOM     32  O   UNL     1       4.304   7.391  -2.065  0.00  0.00    -0.469 OA
ENDBRANCH  21  28
ENDBRANCH  20  21
ENDBRANCH   4  20
TORSDOF 7
