REMARK  Name = ZINC54515711
REMARK  3 active torsions:
REMARK  status: ('A' for Active; 'I' for Inactive)
REMARK    1  A    between atoms: N_7  and  C_11
REMARK    2  A    between atoms: C_11  and  N_12
REMARK    3  A    between atoms: C_18  and  C_20
REMARK                            x       y       z     vdW  Elec       q    Type
REMARK                         _______ _______ _______ _____ _____    ______ ____
ROOT
ATOM      1  N   UNL     1       0.794  -3.397  -1.992  0.00  0.00    -0.282 NA
ATOM      2  C   UNL     1      -0.251  -2.502  -2.506  0.00  0.00    +0.105 C 
ATOM      3  C   UNL     1      -0.674  -2.966  -3.904  0.00  0.00    +0.123 C 
ATOM      4  N   UNL     1      -1.053  -4.385  -3.830  0.00  0.00    -0.295 N 
ATOM      5  C   UNL     1      -0.112  -5.324  -3.201  0.00  0.00    +0.123 C 
ATOM      6  C   UNL     1       0.289  -4.767  -1.831  0.00  0.00    +0.105 C 
ATOM      7  C   UNL     1      -2.230  -4.814  -4.326  0.00  0.00    +0.250 C 
ATOM      8  O   UNL     1      -2.496  -6.000  -4.322  0.00  0.00    -0.270 OA
ENDROOT
BRANCH   7   9
ATOM      9  C   UNL     1      -3.198  -3.842  -4.875  0.00  0.00    +0.073 A 
ATOM     10  C   UNL     1      -2.796  -2.924  -5.847  0.00  0.00    +0.036 A 
ATOM     11  C   UNL     1      -3.705  -2.019  -6.356  0.00  0.00    +0.042 A 
ATOM     12  C   UNL     1      -5.015  -2.019  -5.904  0.00  0.00    +0.023 A 
ATOM     13  C   UNL     1      -5.421  -2.924  -4.942  0.00  0.00    +0.040 A 
ATOM     14  C   UNL     1      -4.522  -3.840  -4.427  0.00  0.00    +0.136 A 
ATOM     15  F   UNL     1      -4.922  -4.728  -3.490  0.00  0.00    -0.205 F 
ATOM     16 CL   UNL     1      -3.206  -0.878  -7.565  0.00  0.00    -0.084 Cl
ENDBRANCH   7   9
BRANCH   1  17
ATOM     17  C   UNL     1       1.349  -2.889  -0.730  0.00  0.00    +0.216 C 
BRANCH  17  24
ATOM     18  C   UNL     1       1.001   1.655  -1.207  0.00  0.00    +0.002 A 
ATOM     19  C   UNL     1       2.215   2.262  -1.478  0.00  0.00    +0.004 A 
ATOM     20  C   UNL     1       3.366   1.505  -1.579  0.00  0.00    +0.048 A 
ATOM     21  C   UNL     1       3.307   0.131  -1.407  0.00  0.00    +0.157 A 
ATOM     22  C   UNL     1       2.083  -0.480  -1.134  0.00  0.00    +0.091 A 
ATOM     23  C   UNL     1       0.932   0.287  -1.035  0.00  0.00    +0.030 A 
ATOM     24  N   UNL     1       2.337  -1.846  -1.016  0.00  0.00    -0.261 N 
ATOM     25  C   UNL     1       3.657  -2.031  -1.211  0.00  0.00    +0.422 A 
ATOM     26  O   UNL     1       4.228  -3.104  -1.179  0.00  0.00    -0.223 OA
ATOM     27  O   UNL     1       4.244  -0.847  -1.447  0.00  0.00    -0.407 OA
ENDBRANCH  17  24
ENDBRANCH   1  17
TORSDOF 3
