REMARK  Name = ZINC67297877
REMARK  6 active torsions:
REMARK  status: ('A' for Active; 'I' for Inactive)
REMARK    1  A    between atoms: C_1  and  C_2
REMARK    2  A    between atoms: C_6  and  N_8
REMARK    3  A    between atoms: C_9  and  C_11
REMARK    4  A    between atoms: C_16  and  O_31
REMARK    5  A    between atoms: N_21  and  C_22
REMARK    6  A    between atoms: C_25  and  C_28
REMARK                            x       y       z     vdW  Elec       q    Type
REMARK                         _______ _______ _______ _____ _____    ______ ____
ROOT
ATOM      1  C   UNL     1      -0.180  -4.645   3.752  0.00  0.00    +0.098 A 
ATOM      2  C   UNL     1      -0.150  -6.032   3.821  0.00  0.00    +0.030 A 
ATOM      3  C   UNL     1      -0.225  -6.640   5.099  0.00  0.00    +0.018 A 
ATOM      4  C   UNL     1       0.001  -8.018   5.245  0.00  0.00    +0.015 A 
ATOM      5  C   UNL     1      -0.032  -8.584   6.485  0.00  0.00    +0.046 A 
ATOM      6  C   UNL     1      -0.297  -7.806   7.611  0.00  0.00    +0.120 A 
ATOM      7  C   UNL     1      -0.542  -6.447   7.485  0.00  0.00    +0.092 A 
ATOM      8  C   UNL     1      -0.519  -5.857   6.233  0.00  0.00    +0.141 A 
ATOM      9  O   UNL     1      -0.800  -4.538   6.093  0.00  0.00    -0.438 OA
ATOM     10  C   UNL     1      -0.247  -3.904   5.025  0.00  0.00    +0.212 A 
ATOM     11  N   UNL     1       0.208  -2.671   5.122  0.00  0.00    -0.325 N 
ATOM     12  H   UNL     1       0.693  -2.274   4.381  0.00  0.00    +0.169 HD
ENDROOT
BRANCH  11  13
ATOM     13  C   UNL     1      -0.002  -1.954   6.261  0.00  0.00    +0.042 A 
ATOM     14  C   UNL     1      -1.264  -1.959   6.868  0.00  0.00    +0.026 A 
ATOM     15  C   UNL     1      -1.474  -1.241   8.009  0.00  0.00    +0.015 A 
ATOM     16  C   UNL     1      -0.428  -0.499   8.572  0.00  0.00    +0.037 A 
ATOM     17  C   UNL     1       0.833  -0.494   7.965  0.00  0.00    +0.015 A 
ATOM     18  C   UNL     1       1.045  -1.217   6.828  0.00  0.00    +0.026 A 
BRANCH  16  19
ATOM     19  C   UNL     1      -0.656   0.277   9.804  0.00  0.00    +0.242 C 
ATOM     20  O   UNL     1      -1.752   0.273  10.332  0.00  0.00    -0.270 OA
ATOM     21  N   UNL     1       0.350   0.991  10.346  0.00  0.00    -0.325 N 
ATOM     22  H   UNL     1       1.224   0.994   9.926  0.00  0.00    +0.145 HD
ATOM     23  H   UNL     1       0.201   1.501  11.157  0.00  0.00    +0.145 HD
ENDBRANCH  16  19
ENDBRANCH  11  13
BRANCH   1  25
ATOM     24  N   UNL     1      -0.311  -2.607   2.413  0.00  0.00    -0.266 N 
ATOM     25  C   UNL     1      -0.139  -3.943   2.460  0.00  0.00    +0.254 C 
ATOM     26  O   UNL     1       0.051  -4.568   1.433  0.00  0.00    -0.270 OA
ATOM     27  H   UNL     1      -0.414  -2.102   3.235  0.00  0.00    +0.157 HD
BRANCH  24  33
ATOM     28  C   UNL     1      -1.584   1.266  -0.099  0.00  0.00    +0.065 C 
ATOM     29  C   UNL     1      -0.943  -0.097  -0.050  0.00  0.00    +0.040 A 
ATOM     30  C   UNL     1      -0.415  -0.644  -1.202  0.00  0.00    +0.023 A 
ATOM     31  C   UNL     1       0.174  -1.899  -1.151  0.00  0.00    +0.005 A 
ATOM     32  C   UNL     1       0.211  -2.562   0.064  0.00  0.00    +0.044 A 
ATOM     33  C   UNL     1      -0.340  -1.951   1.184  0.00  0.00    +0.125 A 
ATOM     34  N   UNL     1      -0.889  -0.749   1.095  0.00  0.00    -0.237 NA
ENDBRANCH  24  33
ENDBRANCH   1  25
BRANCH   6  35
ATOM     35  O   UNL     1      -0.314  -8.383   8.839  0.00  0.00    -0.507 OA
ATOM     36  H   UNL     1       0.544  -8.386   9.285  0.00  0.00    +0.292 HD
ENDBRANCH   6  35
TORSDOF 5
