REMARK  Name = ZINC45110416
REMARK  10 active torsions:
REMARK  status: ('A' for Active; 'I' for Inactive)
REMARK    1  A    between atoms: C_1  and  C_2
REMARK    2  A    between atoms: C_2  and  C_4
REMARK    3  A    between atoms: C_2  and  N_19
REMARK    4  A    between atoms: C_4  and  N_5
REMARK    5  A    between atoms: N_5  and  S_6
REMARK    6  A    between atoms: S_6  and  C_9
REMARK    7  A    between atoms: C_10  and  N_17
REMARK    8  A    between atoms: N_17  and  N_18
REMARK    9  A    between atoms: N_19  and  C_20
REMARK   10  A    between atoms: N_19  and  C_21
REMARK                            x       y       z     vdW  Elec       q    Type
REMARK                         _______ _______ _______ _____ _____    ______ ____
ROOT
ATOM      1  C   UNL     1       1.207  -1.825   4.422  0.00  0.00    +0.222 A 
ATOM      2  C   UNL     1       1.655  -0.665   4.945  0.00  0.00    +0.179 A 
ATOM      3  N   UNL     1       1.033  -0.465   6.120  0.00  0.00    -0.203 NA
ATOM      4  C   UNL     1       0.217  -1.457   6.343  0.00  0.00    +0.181 A 
ATOM      5  N   UNL     1       0.268  -2.355   5.311  0.00  0.00    -0.276 N 
ATOM      6  C   UNL     1      -0.549  -3.460   5.404  0.00  0.00    +0.102 A 
ATOM      7  C   UNL     1      -1.349  -3.630   6.456  0.00  0.00    +0.067 A 
ATOM      8  S   UNL     1      -0.980  -2.184   7.438  0.00  0.00    -0.058 S 
ENDROOT
BRANCH   1   9
ATOM      9  S   UNL     1       1.710  -2.538   2.891  0.00  0.00    +0.078 S 
ATOM     10  O   UNL     1       1.450  -3.932   2.988  0.00  0.00    -0.151 OA
ATOM     11  O   UNL     1       3.004  -2.023   2.609  0.00  0.00    -0.151 OA
BRANCH   9  12
ATOM     12  N   UNL     1       0.699  -1.948   1.720  0.00  0.00    -0.190 NA
ATOM     13  H   UNL     1       0.101  -2.549   1.248  0.00  0.00    +0.148 HD
BRANCH  12  14
ATOM     14  C   UNL     1       0.708  -0.519   1.397  0.00  0.00    +0.090 C 
BRANCH  14  16
ATOM     15  C   UNL     1      -0.059   1.205  -0.240  0.00  0.00    -0.012 C 
ATOM     16  C   UNL     1      -0.011  -0.293   0.065  0.00  0.00    -0.057 C 
BRANCH  16  17
ATOM     17  N   UNL     1      -1.379  -0.820   0.152  0.00  0.00    +0.379 N 
ATOM     18  C   UNL     1      -2.140  -0.045   1.141  0.00  0.00    -0.096 C 
ATOM     19  C   UNL     1      -2.030  -0.711  -1.161  0.00  0.00    -0.096 C 
ATOM     20  H   UNL     1      -1.350  -1.788   0.433  0.00  0.00    -0.082 HD
ENDBRANCH  16  17
ENDBRANCH  14  16
ENDBRANCH  12  14
ENDBRANCH   9  12
ENDBRANCH   1   9
BRANCH   2  21
ATOM     21  N   UNL     1       2.606   0.187   4.364  0.00  0.00    -0.265 N 
ATOM     22  H   UNL     1       3.003  -0.042   3.508  0.00  0.00    +0.168 HD
BRANCH  21  23
ATOM     23  N   UNL     1       2.974   1.337   5.001  0.00  0.00    -0.255 NA
ATOM     24  H   UNL     1       3.662   1.844   4.465  0.00  0.00    +0.140 HD
ATOM     25  H   UNL     1       2.170   1.916   5.196  0.00  0.00    +0.140 HD
ENDBRANCH  21  23
ENDBRANCH   2  21
TORSDOF 7
