REMARK  Name = ZINC14476254
REMARK  11 active torsions:
REMARK  status: ('A' for Active; 'I' for Inactive)
REMARK    1  A    between atoms: C_1  and  C_2
REMARK    2  A    between atoms: C_2  and  N_3
REMARK    3  A    between atoms: N_3  and  C_4
REMARK    4  A    between atoms: N_3  and  C_6
REMARK    5  A    between atoms: C_4  and  C_5
REMARK    6  A    between atoms: C_6  and  C_7
REMARK    7  A    between atoms: C_7  and  N_8
REMARK    8  A    between atoms: C_9  and  C_11
REMARK    9  A    between atoms: C_24  and  C_27
REMARK   10  A    between atoms: C_29  and  N_34
REMARK   11  A    between atoms: C_32  and  O_33
REMARK                            x       y       z     vdW  Elec       q    Type
REMARK                         _______ _______ _______ _____ _____    ______ ____
ROOT
ATOM      1  C   UNL     1      -4.038  -6.250   0.289  0.00  0.00    +0.037 A 
ATOM      2  C   UNL     1      -2.837  -6.920   0.540  0.00  0.00    +0.015 A 
ATOM      3  C   UNL     1      -2.840  -8.286   0.696  0.00  0.00    +0.024 A 
ATOM      4  C   UNL     1      -4.034  -9.003   0.607  0.00  0.00    +0.031 A 
ATOM      5  C   UNL     1      -5.230  -8.344   0.370  0.00  0.00    -0.019 A 
ATOM      6  C   UNL     1      -5.231  -6.970   0.210  0.00  0.00    +0.019 A 
ATOM      7  C   UNL     1      -6.545  -9.068   0.301  0.00  0.00    +0.049 C 
ATOM      8  C   UNL     1      -7.515  -8.359   1.234  0.00  0.00    -0.023 C 
ATOM      9  C   UNL     1      -7.642  -9.020   2.355  0.00  0.00    -0.030 C 
ATOM     10  C   UNL     1      -6.791 -10.273   2.344  0.00  0.00    +0.033 C 
ATOM     11  C   UNL     1      -6.471 -10.497   0.832  0.00  0.00    +0.029 C 
ATOM     12  C   UNL     1      -5.175 -11.215   0.606  0.00  0.00    +0.108 C 
ATOM     13  N   UNL     1      -3.999 -10.380   0.753  0.00  0.00    -0.336 N 
ATOM     14  H   UNL     1      -3.147 -10.805   0.939  0.00  0.00    +0.147 HD
ENDROOT
BRANCH  12  15
ATOM     15  C   UNL     1      -5.066 -12.332   1.611  0.00  0.00    +0.017 A 
ATOM     16  C   UNL     1      -4.387 -12.131   2.797  0.00  0.00    +0.041 A 
ATOM     17  C   UNL     1      -4.287 -13.155   3.721  0.00  0.00    +0.127 A 
ATOM     18  C   UNL     1      -4.867 -14.383   3.460  0.00  0.00    +0.036 A 
ATOM     19  C   UNL     1      -5.548 -14.589   2.276  0.00  0.00    +0.048 A 
ATOM     20  C   UNL     1      -5.654 -13.561   1.350  0.00  0.00    +0.122 A 
BRANCH  17  21
ATOM     21  N   UNL     1      -3.558 -12.937   4.990  0.00  0.00    +0.056 N 
ATOM     22  O   UNL     1      -3.051 -11.863   5.219  0.00  0.00    -0.126 OA
ATOM     23  O   UNL     1      -3.471 -13.831   5.798  0.00  0.00    -0.126 OA
ENDBRANCH  17  21
BRANCH  20  24
ATOM     24  O   UNL     1      -6.327 -13.760   0.186  0.00  0.00    -0.506 OA
ATOM     25  H   UNL     1      -5.776 -14.092  -0.535  0.00  0.00    +0.292 HD
ENDBRANCH  20  24
ENDBRANCH  12  15
BRANCH   1  27
ATOM     26  N   UNL     1      -2.893  -4.092   0.191  0.00  0.00    -0.313 N 
ATOM     27  C   UNL     1      -4.046  -4.785   0.114  0.00  0.00    +0.244 C 
ATOM     28  O   UNL     1      -5.092  -4.204  -0.099  0.00  0.00    -0.270 OA
ATOM     29  H   UNL     1      -2.058  -4.556   0.361  0.00  0.00    +0.149 HD
BRANCH  26  30
ATOM     30  C   UNL     1      -2.900  -2.637   0.017  0.00  0.00    +0.086 C 
BRANCH  30  31
ATOM     31  C   UNL     1      -1.473  -2.100   0.150  0.00  0.00    -0.060 C 
BRANCH  31  32
ATOM     32  N   UNL     1      -1.462  -0.661  -0.144  0.00  0.00    +0.380 N 
ATOM     33  H   UNL     1      -1.871  -0.500  -1.053  0.00  0.00    -0.082 HD
BRANCH  32  35
ATOM     34  C   UNL     1      -2.333   1.534   0.503  0.00  0.00    -0.017 C 
ATOM     35  C   UNL     1      -2.240   0.053   0.876  0.00  0.00    -0.082 C 
ENDBRANCH  32  35
BRANCH  32  36
ATOM     36  C   UNL     1      -0.077  -0.171  -0.137  0.00  0.00    -0.082 C 
ATOM     37  C   UNL     1       0.692  -0.798  -1.301  0.00  0.00    -0.017 C 
ENDBRANCH  32  36
ENDBRANCH  31  32
ENDBRANCH  30  31
ENDBRANCH  26  30
ENDBRANCH   1  27
TORSDOF 9
