REMARK  Name = ZINC39631958
REMARK  11 active torsions:
REMARK  status: ('A' for Active; 'I' for Inactive)
REMARK    1  A    between atoms: C_1  and  C_2
REMARK    2  A    between atoms: C_2  and  C_4
REMARK    3  A    between atoms: C_2  and  N_11
REMARK    4  A    between atoms: C_4  and  C_5
REMARK    5  A    between atoms: C_5  and  C_6
REMARK    6  A    between atoms: C_6  and  C_7
REMARK    7  A    between atoms: C_7  and  C_8
REMARK    8  A    between atoms: C_7  and  C_9
REMARK    9  A    between atoms: C_7  and  O_10
REMARK   10  A    between atoms: C_12  and  C_14
REMARK   11  A    between atoms: C_25  and  C_27
REMARK                            x       y       z     vdW  Elec       q    Type
REMARK                         _______ _______ _______ _____ _____    ______ ____
ROOT
ATOM      1  C   UNL     1       2.889  -2.915  -3.737  0.00  0.00    +0.100 C 
ATOM      2  C   UNL     1       3.442  -4.352  -3.604  0.00  0.00    +0.121 C 
ATOM      3  N   UNL     1       2.755  -5.118  -4.670  0.00  0.00    -0.300 N 
ATOM      4  C   UNL     1       2.708  -4.186  -5.822  0.00  0.00    +0.115 C 
ATOM      5  C   UNL     1       2.412  -2.809  -5.195  0.00  0.00    -0.004 C 
ATOM      6  C   UNL     1       3.187  -1.717  -5.926  0.00  0.00    -0.010 C 
ATOM      7  C   UNL     1       2.654  -1.591  -7.356  0.00  0.00    -0.082 C 
ATOM      8  N   UNL     1       1.224  -1.264  -7.321  0.00  0.00    +0.379 N 
ATOM      9  C   UNL     1       0.474  -2.362  -6.699  0.00  0.00    -0.082 C 
ATOM     10  C   UNL     1       0.914  -2.521  -5.241  0.00  0.00    -0.010 C 
ATOM     11  C   UNL     1       2.280  -6.378  -4.606  0.00  0.00    +0.219 C 
ATOM     12  O   UNL     1       2.307  -6.984  -3.556  0.00  0.00    -0.275 OA
ATOM     13  H   UNL     1       1.086  -0.419  -6.787  0.00  0.00    -0.086 HD
ATOM     14  H   UNL     1       0.889  -1.121  -8.262  0.00  0.00    -0.086 HD
ENDROOT
BRANCH  11  15
ATOM     15  C   UNL     1       1.715  -7.033  -5.840  0.00  0.00    +0.079 C 
ATOM     16  C   UNL     1       1.028  -8.349  -5.456  0.00  0.00    +0.017 C 
ATOM     17  C   UNL     1       0.313  -8.900  -6.692  0.00  0.00    +0.027 C 
ATOM     18  C   UNL     1       1.245  -8.908  -7.868  0.00  0.00    -0.031 C 
ATOM     19  C   UNL     1       2.345  -8.228  -7.926  0.00  0.00    -0.030 C 
ATOM     20  C   UNL     1       2.847  -7.341  -6.823  0.00  0.00    +0.039 C 
ENDBRANCH  11  15
BRANCH   1  22
ATOM     21  N   UNL     1       1.406  -1.463  -2.391  0.00  0.00    -0.312 N 
ATOM     22  C   UNL     1       1.735  -2.708  -2.790  0.00  0.00    +0.218 C 
ATOM     23  O   UNL     1       1.102  -3.661  -2.388  0.00  0.00    -0.275 OA
ATOM     24  H   UNL     1       1.864  -0.696  -2.768  0.00  0.00    +0.149 HD
BRANCH  21  26
ATOM     25  C   UNL     1      -1.013  -1.298  -2.068  0.00  0.00    +0.028 C 
ATOM     26  C   UNL     1       0.356  -1.270  -1.387  0.00  0.00    +0.070 C 
BRANCH  26  27
ATOM     27  C   UNL     1       0.555   0.081  -0.697  0.00  0.00    +0.022 C 
BRANCH  27  28
ATOM     28  C   UNL     1       1.879   0.074   0.069  0.00  0.00    +0.005 C 
BRANCH  28  29
ATOM     29  C   UNL     1       2.019   1.376   0.859  0.00  0.00    +0.034 C 
BRANCH  29  30
ATOM     30  C   UNL     1       3.278   1.314   1.726  0.00  0.00    +0.061 C 
ATOM     31  C   UNL     1       4.501   1.086   0.835  0.00  0.00    +0.041 C 
ATOM     32  C   UNL     1       3.440   2.631   2.487  0.00  0.00    +0.041 C 
BRANCH  30  33
ATOM     33  O   UNL     1       3.162   0.237   2.659  0.00  0.00    -0.389 OA
ATOM     34  H   UNL     1       2.406   0.315   3.257  0.00  0.00    +0.210 HD
ENDBRANCH  30  33
ENDBRANCH  29  30
ENDBRANCH  28  29
ENDBRANCH  27  28
ENDBRANCH  26  27
ENDBRANCH  21  26
ENDBRANCH   1  22
TORSDOF 8
