REMARK  Name = ZINC37174221
REMARK  9 active torsions:
REMARK  status: ('A' for Active; 'I' for Inactive)
REMARK    1  A    between atoms: C_1  and  C_2
REMARK    2  A    between atoms: C_2  and  C_4
REMARK    3  A    between atoms: C_2  and  N_16
REMARK    4  A    between atoms: N_6  and  C_7
REMARK    5  A    between atoms: C_10  and  O_14
REMARK    6  A    between atoms: C_12  and  N_13
REMARK    7  A    between atoms: O_14  and  C_15
REMARK    8  A    between atoms: N_16  and  C_17
REMARK    9  A    between atoms: N_16  and  C_18
REMARK                            x       y       z     vdW  Elec       q    Type
REMARK                         _______ _______ _______ _____ _____    ______ ____
ROOT
ATOM      1  C   UNL     1       0.226  -0.912   1.251  0.00  0.00    +0.203 C 
ATOM      2  O   UNL     1       0.977  -1.861   1.175  0.00  0.00    -0.277 OA
ATOM      3  N   UNL     1      -0.319  -0.577   2.438  0.00  0.00    -0.285 N 
ATOM      4  H   UNL     1      -0.979   0.133   2.485  0.00  0.00    +0.155 HD
ENDROOT
BRANCH   3   5
ATOM      5  C   UNL     1       0.069  -1.254   3.604  0.00  0.00    +0.054 A 
ATOM      6  C   UNL     1       0.398  -2.599   3.549  0.00  0.00    +0.029 A 
ATOM      7  C   UNL     1       0.780  -3.266   4.697  0.00  0.00    +0.047 A 
ATOM      8  C   UNL     1       0.836  -2.592   5.909  0.00  0.00    +0.122 A 
ATOM      9  C   UNL     1       0.507  -1.247   5.971  0.00  0.00    +0.070 A 
ATOM     10  C   UNL     1       0.129  -0.573   4.819  0.00  0.00    +0.050 A 
BRANCH  10  11
ATOM     11  N   UNL     1      -0.197   0.786   4.878  0.00  0.00    -0.356 N 
ATOM     12  H   UNL     1      -0.465   1.256   4.073  0.00  0.00    +0.142 HD
ATOM     13  H   UNL     1      -0.155   1.259   5.724  0.00  0.00    +0.142 HD
ENDBRANCH  10  11
BRANCH   8  14
ATOM     14  O   UNL     1       1.212  -3.252   7.036  0.00  0.00    -0.495 OA
ATOM     15  C   UNL     1       1.535  -4.638   6.900  0.00  0.00    +0.277 C 
ENDBRANCH   8  14
ENDBRANCH   3   5
BRANCH   1  17
ATOM     16  C   UNL     1       0.234   1.365   0.269  0.00  0.00    -0.004 C 
ATOM     17  C   UNL     1      -0.099  -0.107   0.019  0.00  0.00    +0.016 C 
BRANCH  17  18
ATOM     18  N   UNL     1       0.695  -0.604  -1.113  0.00  0.00    +0.388 N 
ATOM     19  C   UNL     1       2.117  -0.324  -0.874  0.00  0.00    -0.095 C 
ATOM     20  H   UNL     1       0.560  -1.599  -1.208  0.00  0.00    -0.081 HD
BRANCH  18  21
ATOM     21  C   UNL     1       0.264   0.069  -2.346  0.00  0.00    -0.057 C 
ATOM     22  C   UNL     1      -1.250  -0.086  -2.484  0.00  0.00    -0.004 C 
ATOM     23  C   UNL     1      -1.659  -0.059  -3.983  0.00  0.00    +0.067 C 
ATOM     24  S   UNL     1      -0.272  -1.045  -4.699  0.00  0.00    -0.162 S 
ATOM     25  C   UNL     1       1.050  -0.524  -3.532  0.00  0.00    +0.054 C 
ENDBRANCH  18  21
ENDBRANCH  17  18
ENDBRANCH   1  17
TORSDOF 6
