REMARK  Name = ZINC13444971
REMARK  11 active torsions:
REMARK  status: ('A' for Active; 'I' for Inactive)
REMARK    1  A    between atoms: C_1  and  O_2
REMARK    2  A    between atoms: O_2  and  C_3
REMARK    3  A    between atoms: C_5  and  C_26
REMARK    4  A    between atoms: C_6  and  N_13
REMARK    5  A    between atoms: C_7  and  O_11
REMARK    6  A    between atoms: C_8  and  O_9
REMARK    7  A    between atoms: O_9  and  C_10
REMARK    8  A    between atoms: O_11  and  C_12
REMARK    9  A    between atoms: C_14  and  C_16
REMARK   10  A    between atoms: C_16  and  O_17
REMARK   11  A    between atoms: O_17  and  C_18
REMARK                            x       y       z     vdW  Elec       q    Type
REMARK                         _______ _______ _______ _____ _____    ______ ____
ROOT
ATOM      1  C   UNL     1       7.790  -3.724   0.242  0.00  0.00    +0.166 A 
ATOM      2  C   UNL     1       7.555  -2.402   0.559  0.00  0.00    +0.066 A 
ATOM      3  C   UNL     1       6.262  -1.877   0.455  0.00  0.00    +0.092 A 
ATOM      4  C   UNL     1       5.208  -2.700   0.028  0.00  0.00    +0.094 A 
ATOM      5  C   UNL     1       5.455  -4.032  -0.284  0.00  0.00    +0.187 A 
ATOM      6  C   UNL     1       6.744  -4.541  -0.182  0.00  0.00    +0.205 A 
ENDROOT
BRANCH   4   7
ATOM      7  N   UNL     1       3.915  -2.184  -0.078  0.00  0.00    -0.279 N 
ATOM      8  C   UNL     1       2.880  -2.841   0.483  0.00  0.00    +0.255 C 
ATOM      9  O   UNL     1       3.054  -3.929   0.989  0.00  0.00    -0.272 OA
ATOM     10  H   UNL     1       3.762  -1.354  -0.555  0.00  0.00    +0.155 HD
BRANCH   8  11
ATOM     11  C   UNL     1       1.506  -2.222   0.481  0.00  0.00    +0.325 C 
BRANCH  11  12
ATOM     12  O   UNL     1       0.586  -3.103   1.128  0.00  0.00    -0.481 OA
BRANCH  12  13
ATOM     13  C   UNL     1      -0.707  -2.692   1.212  0.00  0.00    +0.139 A 
ATOM     14  C   UNL     1      -1.083  -1.467   0.682  0.00  0.00    +0.048 A 
ATOM     15  C   UNL     1      -2.396  -1.048   0.773  0.00  0.00    +0.019 A 
ATOM     16  C   UNL     1      -3.340  -1.855   1.384  0.00  0.00    +0.019 A 
ATOM     17  C   UNL     1      -2.969  -3.078   1.913  0.00  0.00    +0.039 A 
ATOM     18  C   UNL     1      -1.654  -3.498   1.829  0.00  0.00    +0.084 A 
ATOM     19 CL   UNL     1      -1.189  -5.033   2.493  0.00  0.00    -0.080 Cl
ATOM     20 BR   UNL     1      -5.138  -1.282   1.501  0.00  0.00    -0.050 Br
ENDBRANCH  12  13
ENDBRANCH  11  12
ENDBRANCH   8  11
ENDBRANCH   4   7
BRANCH   3  21
ATOM     21  C   UNL     1       6.008  -0.468   0.792  0.00  0.00    +0.389 C 
ATOM     22  O   UNL     1       4.870  -0.041   0.802  0.00  0.00    -0.241 OA
ATOM     23  O   UNL     1       7.037   0.351   1.089  0.00  0.00    -0.241 OA
ENDBRANCH   3  21
BRANCH   1  25
ATOM     24  C   UNL     1      10.074  -3.341   0.785  0.00  0.00    +0.277 C 
ATOM     25  O   UNL     1       9.049  -4.232   0.344  0.00  0.00    -0.491 OA
ENDBRANCH   1  25
BRANCH   6  26
ATOM     26  O   UNL     1       6.983  -5.843  -0.492  0.00  0.00    -0.488 OA
ATOM     27  C   UNL     1       6.866  -6.794   0.567  0.00  0.00    +0.277 C 
ENDBRANCH   6  26
BRANCH   5  28
ATOM     28  O   UNL     1       4.436  -4.835  -0.693  0.00  0.00    -0.490 OA
ATOM     29  C   UNL     1       4.179  -4.893  -2.098  0.00  0.00    +0.277 C 
ENDBRANCH   5  28
TORSDOF 8
