REMARK  Name = ZINC07278605
REMARK  2 active torsions:
REMARK  status: ('A' for Active; 'I' for Inactive)
REMARK    1  A    between atoms: N_12  and  C_16
REMARK    2  A    between atoms: C_16  and  C_17
REMARK                            x       y       z     vdW  Elec       q    Type
REMARK                         _______ _______ _______ _____ _____    ______ ____
ROOT
ATOM      1  C   UNL     1       2.646   0.843  -0.308  0.00  0.00    +0.000 A 
ATOM      2  C   UNL     1       2.498  -0.527  -0.421  0.00  0.00    +0.000 A 
ATOM      3  C   UNL     1       1.241  -1.093  -0.346  0.00  0.00    +0.006 A 
ATOM      4  C   UNL     1       0.124  -0.294  -0.158  0.00  0.00    -0.012 A 
ATOM      5  C   UNL     1       0.274   1.077  -0.042  0.00  0.00    -0.042 A 
ATOM      6  C   UNL     1       1.536   1.642  -0.120  0.00  0.00    +0.004 A 
ATOM      7  C   UNL     1      -1.079   1.725   0.167  0.00  0.00    +0.038 C 
ATOM      8  C   UNL     1      -2.110   0.657  -0.269  0.00  0.00    +0.045 C 
ATOM      9  C   UNL     1      -1.334  -0.648  -0.050  0.00  0.00    +0.138 C 
ATOM     10  C   UNL     1      -1.661  -1.259   1.288  0.00  0.00    +0.251 C 
ATOM     11  O   UNL     1      -1.504  -0.761   2.382  0.00  0.00    -0.272 OA
ATOM     12  N   UNL     1      -2.166  -2.480   1.007  0.00  0.00    -0.215 N 
ATOM     13  C   UNL     1      -2.198  -2.708  -0.312  0.00  0.00    +0.310 C 
ATOM     14  O   UNL     1      -2.610  -3.737  -0.811  0.00  0.00    -0.252 OA
ATOM     15  N   UNL     1      -1.720  -1.668  -1.025  0.00  0.00    -0.281 N 
ATOM     16  H   UNL     1      -1.647  -1.608  -1.991  0.00  0.00    +0.152 HD
ENDROOT
BRANCH  12  17
ATOM     17  C   UNL     1      -2.623  -3.435   2.020  0.00  0.00    +0.213 C 
BRANCH  17  18
ATOM     18  C   UNL     1      -4.085  -3.207   2.302  0.00  0.00    +0.234 C 
ATOM     19  O   UNL     1      -4.687  -2.333   1.716  0.00  0.00    -0.274 OA
ATOM     20  N   UNL     1      -4.724  -3.975   3.207  0.00  0.00    -0.297 N 
ATOM     21  C   UNL     1      -3.990  -4.969   4.003  0.00  0.00    +0.108 C 
ATOM     22  C   UNL     1      -4.671  -6.328   3.858  0.00  0.00    +0.019 C 
ATOM     23  C   UNL     1      -6.154  -6.199   4.217  0.00  0.00    +0.007 C 
ATOM     24  C   UNL     1      -6.824  -5.215   3.250  0.00  0.00    +0.010 C 
ATOM     25  C   UNL     1      -6.171  -3.841   3.416  0.00  0.00    +0.079 C 
ATOM     26  C   UNL     1      -6.760  -2.862   2.406  0.00  0.00    +0.023 C 
ATOM     27  C   UNL     1      -6.542  -3.361   0.990  0.00  0.00    +0.002 C 
ATOM     28  C   UNL     1      -7.231  -4.718   0.832  0.00  0.00    +0.000 C 
ATOM     29  C   UNL     1      -6.618  -5.713   1.818  0.00  0.00    +0.005 C 
ENDBRANCH  17  18
ENDBRANCH  12  17
TORSDOF 2
