REMARK  Name = ZINC02792483
REMARK  12 active torsions:
REMARK  status: ('A' for Active; 'I' for Inactive)
REMARK    1  A    between atoms: C_1  and  C_2
REMARK    2  A    between atoms: C_2  and  O_3
REMARK    3  A    between atoms: O_3  and  C_4
REMARK    4  A    between atoms: C_6  and  C_14
REMARK    5  A    between atoms: C_9  and  O_10
REMARK    6  A    between atoms: O_10  and  C_11
REMARK    7  A    between atoms: N_16  and  C_17
REMARK    8  A    between atoms: C_18  and  C_31
REMARK    9  A    between atoms: C_23  and  C_27
REMARK   10  A    between atoms: C_27  and  C_28
REMARK   11  A    between atoms: C_27  and  C_29
REMARK   12  A    between atoms: C_27  and  C_30
REMARK                            x       y       z     vdW  Elec       q    Type
REMARK                         _______ _______ _______ _____ _____    ______ ____
ROOT
ATOM      1  C   UNL     1       3.492   2.572  -0.017  0.00  0.00    +0.249 C 
ATOM      2  O   UNL     1       3.272   3.768  -0.009  0.00  0.00    -0.270 OA
ATOM      3  N   UNL     1       2.466   1.698  -0.012  0.00  0.00    -0.275 N 
ATOM      4  H   UNL     1       2.641   0.744  -0.019  0.00  0.00    +0.156 HD
ENDROOT
BRANCH   3   5
ATOM      5  C   UNL     1       1.159   2.163   0.003  0.00  0.00    +0.090 A 
ATOM      6  C   UNL     1      -0.017   1.428   0.010  0.00  0.00    +0.084 A 
ATOM      7  C   UNL     1      -1.270   2.164   0.020  0.00  0.00    -0.018 A 
ATOM      8  C   UNL     1      -1.146   3.510   0.033  0.00  0.00    -0.004 A 
ATOM      9  S   UNL     1       0.600   3.803   0.017  0.00  0.00    -0.077 S 
ATOM     10  C   UNL     1      -2.253   4.518   0.050  0.00  0.00    +0.047 C 
ATOM     11  C   UNL     1      -3.554   3.801   0.436  0.00  0.00    -0.000 C 
ATOM     12  C   UNL     1      -3.686   2.529  -0.408  0.00  0.00    +0.009 C 
ATOM     13  C   UNL     1      -2.642   1.502   0.034  0.00  0.00    +0.037 C 
BRANCH  11  14
ATOM     14  C   UNL     1      -4.747   4.721   0.165  0.00  0.00    -0.035 C 
ATOM     15  C   UNL     1      -4.786   5.082  -1.321  0.00  0.00    +0.011 C 
ATOM     16  C   UNL     1      -6.042   4.004   0.551  0.00  0.00    +0.011 C 
ATOM     17  C   UNL     1      -4.604   5.998   0.996  0.00  0.00    +0.011 C 
ENDBRANCH  11  14
BRANCH   6  18
ATOM     18  C   UNL     1       0.002  -0.004   0.002  0.00  0.00    +0.102 C 
ATOM     19  N   UNL     1       0.018  -1.140  -0.004  0.00  0.00    -0.191 NA
ENDBRANCH   6  18
ENDBRANCH   3   5
BRANCH   1  22
ATOM     20  C   UNL     1       7.247   2.514  -0.053  0.00  0.00    +0.163 A 
ATOM     21  C   UNL     1       5.947   2.982  -0.044  0.00  0.00    +0.062 A 
ATOM     22  C   UNL     1       4.882   2.077  -0.033  0.00  0.00    +0.041 A 
ATOM     23  C   UNL     1       5.136   0.703  -0.043  0.00  0.00    +0.017 A 
ATOM     24  C   UNL     1       6.435   0.243  -0.057  0.00  0.00    +0.050 A 
ATOM     25  C   UNL     1       7.493   1.142  -0.062  0.00  0.00    +0.168 A 
BRANCH  20  26
ATOM     26  O   UNL     1       8.286   3.391  -0.057  0.00  0.00    -0.489 OA
BRANCH  26  28
ATOM     27  C   UNL     1       9.248   5.608  -0.054  0.00  0.00    +0.048 C 
ATOM     28  C   UNL     1       7.960   4.782  -0.047  0.00  0.00    +0.226 C 
ENDBRANCH  26  28
ENDBRANCH  20  26
BRANCH  25  29
ATOM     29  O   UNL     1       8.771   0.683  -0.077  0.00  0.00    -0.431 OA
BRANCH  29  30
ATOM     30  C   UNL     1       8.952  -0.735  -0.086  0.00  0.00    +0.541 C 
ATOM     31  F   UNL     1       8.367  -1.287   1.058  0.00  0.00    -0.166 F 
ATOM     32  F   UNL     1       8.346  -1.274  -1.226  0.00  0.00    -0.166 F 
ENDBRANCH  29  30
ENDBRANCH  25  29
ENDBRANCH   1  22
TORSDOF 8
