REMARK  Name = ZINC17307143
REMARK  9 active torsions:
REMARK  status: ('A' for Active; 'I' for Inactive)
REMARK    1  A    between atoms: C_1  and  N_50
REMARK    2  A    between atoms: C_2  and  C_3
REMARK    3  A    between atoms: C_2  and  N_50
REMARK    4  A    between atoms: C_8  and  O_13
REMARK    5  A    between atoms: O_13  and  C_14
REMARK    6  A    between atoms: C_15  and  C_16
REMARK    7  A    between atoms: C_15  and  N_50
REMARK    8  A    between atoms: N_18  and  C_19
REMARK    9  A    between atoms: C_24  and  C_25
REMARK                            x       y       z     vdW  Elec       q    Type
REMARK                         _______ _______ _______ _____ _____    ______ ____
ROOT
ATOM      1  C   UNL     1      -9.470  -1.894   3.820  0.00  0.00    +0.019 C 
ENDROOT
BRANCH   1   2
ATOM      2  C   UNL     1      -9.432  -3.292   4.381  0.00  0.00    +0.201 C 
ATOM      3  O   UNL     1      -8.380  -3.769   4.750  0.00  0.00    -0.278 OA
ATOM      4  N   UNL     1     -10.567  -4.013   4.473  0.00  0.00    -0.287 N 
ATOM      5  H   UNL     1     -11.420  -3.605   4.253  0.00  0.00    +0.155 HD
BRANCH   4   6
ATOM      6  C   UNL     1     -10.517  -5.350   4.884  0.00  0.00    +0.045 A 
ATOM      7  C   UNL     1      -9.354  -6.088   4.708  0.00  0.00    +0.025 A 
ATOM      8  C   UNL     1      -9.306  -7.407   5.115  0.00  0.00    +0.022 A 
ATOM      9  C   UNL     1     -10.416  -7.992   5.699  0.00  0.00    +0.042 A 
ATOM     10  C   UNL     1     -11.576  -7.259   5.875  0.00  0.00    +0.034 A 
ATOM     11  C   UNL     1     -11.627  -5.938   5.475  0.00  0.00    +0.077 A 
ATOM     12 CL   UNL     1     -10.353  -9.650   6.210  0.00  0.00    -0.084 Cl
BRANCH  11  13
ATOM     13  C   UNL     1     -12.889  -5.138   5.673  0.00  0.00    +0.419 C 
ATOM     14  F   UNL     1     -13.859  -5.941   6.282  0.00  0.00    -0.166 F 
ATOM     15  F   UNL     1     -12.618  -4.035   6.488  0.00  0.00    -0.166 F 
ATOM     16  F   UNL     1     -13.360  -4.697   4.432  0.00  0.00    -0.166 F 
ENDBRANCH  11  13
ENDBRANCH   4   6
ENDBRANCH   1   2
BRANCH   1  18
ATOM     17  C   UNL     1      -7.630  -1.139   5.200  0.00  0.00    -0.095 C 
ATOM     18  N   UNL     1      -8.098  -1.346   3.814  0.00  0.00    +0.386 N 
ATOM     19  H   UNL     1      -7.474  -2.014   3.347  0.00  0.00    -0.081 HD
BRANCH  18  20
ATOM     20  C   UNL     1      -8.069  -0.066   3.075  0.00  0.00    -0.043 C 
BRANCH  20  21
ATOM     21  C   UNL     1      -6.634   0.359   2.893  0.00  0.00    -0.063 A 
ATOM     22  C   UNL     1      -6.033   1.173   3.851  0.00  0.00    +0.002 A 
ATOM     23  C   UNL     1      -4.739   1.574   3.717  0.00  0.00    +0.009 A 
ATOM     24  C   UNL     1      -3.996   1.162   2.598  0.00  0.00    -0.014 A 
ATOM     25  C   UNL     1      -2.658   1.556   2.427  0.00  0.00    +0.054 A 
ATOM     26  C   UNL     1      -1.967   1.137   1.326  0.00  0.00    +0.121 A 
ATOM     27  C   UNL     1      -2.574   0.324   0.364  0.00  0.00    +0.046 A 
ATOM     28  C   UNL     1      -3.865  -0.080   0.504  0.00  0.00    +0.012 A 
ATOM     29  C   UNL     1      -4.607   0.333   1.624  0.00  0.00    -0.017 A 
ATOM     30  C   UNL     1      -5.945  -0.060   1.797  0.00  0.00    +0.010 A 
BRANCH  26  31
ATOM     31  O   UNL     1      -0.673   1.518   1.161  0.00  0.00    -0.495 OA
ATOM     32  C   UNL     1      -0.002   1.048  -0.009  0.00  0.00    +0.277 C 
ENDBRANCH  26  31
ENDBRANCH  20  21
ENDBRANCH  18  20
ENDBRANCH   1  18
TORSDOF 7
