REMARK  Name = ZINC63000130
REMARK  7 active torsions:
REMARK  status: ('A' for Active; 'I' for Inactive)
REMARK    1  A    between atoms: C_1  and  C_2
REMARK    2  A    between atoms: C_2  and  C_4
REMARK    3  A    between atoms: C_2  and  N_11
REMARK    4  A    between atoms: N_11  and  CA_12
REMARK    5  A    between atoms: CA_12  and  C_14
REMARK    6  A    between atoms: CA_12  and  C_16
REMARK    7  A    between atoms: C_14  and  O_15
REMARK                            x       y       z     vdW  Elec       q    Type
REMARK                         _______ _______ _______ _____ _____    ______ ____
ROOT
ATOM      1  N   UNL     1      -1.376  -0.512   0.012  0.00  0.00    +0.389 N 
ATOM      2  H1  UNL     1      -1.888  -0.113  -0.760  0.00  0.00    -0.084 HD
ATOM      3  H2  UNL     1      -1.364  -1.518  -0.076  0.00  0.00    -0.084 HD
ENDROOT
BRANCH   1   5
ATOM      4  C   UNL     1      -0.019   1.526   0.010  0.00  0.00    -0.009 C 
ATOM      5  C   UNL     1       0.002  -0.004   0.002  0.00  0.00    -0.043 C 
BRANCH   5   6
ATOM      6  C   UNL     1       0.707  -0.490  -1.238  0.00  0.00    -0.062 A 
ATOM      7  C   UNL     1       0.037  -0.522  -2.447  0.00  0.00    +0.003 A 
ATOM      8  C   UNL     1       0.684  -0.967  -3.584  0.00  0.00    +0.014 A 
ATOM      9  C   UNL     1       2.002  -1.382  -3.513  0.00  0.00    +0.013 A 
ATOM     10  C   UNL     1       2.672  -1.350  -2.303  0.00  0.00    +0.014 A 
ATOM     11  C   UNL     1       2.026  -0.899  -1.167  0.00  0.00    +0.003 A 
ATOM     12  I   UNL     1       2.982  -2.058  -5.236  0.00  0.00    -0.044 I 
ENDBRANCH   5   6
ENDBRANCH   1   5
BRANCH   1  13
ATOM     13  CA  UNL     1      -2.026  -0.140   1.276  0.00  0.00    -0.014 C 
BRANCH  13  14
ATOM     14  C   UNL     1      -3.475  -0.553   1.237  0.00  0.00    -0.059 A 
ATOM     15  C   UNL     1      -3.833  -1.766   0.677  0.00  0.00    +0.002 A 
ATOM     16  C   UNL     1      -5.161  -2.145   0.641  0.00  0.00    +0.000 A 
ATOM     17  C   UNL     1      -6.132  -1.312   1.165  0.00  0.00    +0.000 A 
ATOM     18  C   UNL     1      -5.774  -0.100   1.726  0.00  0.00    +0.000 A 
ATOM     19  C   UNL     1      -4.445   0.277   1.766  0.00  0.00    +0.002 A 
ENDBRANCH  13  14
BRANCH  13  20
ATOM     20  C   UNL     1      -1.325  -0.846   2.438  0.00  0.00    +0.144 C 
BRANCH  20  21
ATOM     21  O   UNL     1      -1.512  -2.258   2.319  0.00  0.00    -0.396 OA
ATOM     22  H   UNL     1      -1.093  -2.771   3.024  0.00  0.00    +0.209 HD
ENDBRANCH  20  21
ENDBRANCH  13  20
ENDBRANCH   1  13
TORSDOF 6
