REMARK  Name = ZINC22431595
REMARK  10 active torsions:
REMARK  status: ('A' for Active; 'I' for Inactive)
REMARK    1  A    between atoms: C_1  and  C_2
REMARK    2  A    between atoms: C_5  and  S_8
REMARK    3  A    between atoms: S_8  and  N_11
REMARK    4  A    between atoms: N_11  and  C_12
REMARK    5  A    between atoms: N_11  and  C_29
REMARK    6  A    between atoms: C_12  and  C_13
REMARK    7  A    between atoms: N_15  and  C_16
REMARK    8  A    between atoms: C_16  and  C_17
REMARK    9  A    between atoms: C_20  and  N_23
REMARK   10  A    between atoms: C_27  and  C_28
REMARK                            x       y       z     vdW  Elec       q    Type
REMARK                         _______ _______ _______ _____ _____    ______ ____
ROOT
ATOM      1  C   UNL     1       0.089  -3.339   0.417  0.00  0.00    +0.227 C 
ENDROOT
BRANCH   1   2
ATOM      2  C   UNL     1      -0.971  -3.429  -0.651  0.00  0.00    +0.232 C 
ATOM      3  O   UNL     1      -0.883  -2.749  -1.651  0.00  0.00    -0.274 OA
ATOM      4  N   UNL     1      -2.017  -4.264  -0.493  0.00  0.00    -0.310 N 
ATOM      5  H   UNL     1      -2.097  -4.881   0.414  0.00  0.00    +0.149 HD
BRANCH   4   6
ATOM      6  C   UNL     1      -3.048  -4.351  -1.531  0.00  0.00    +0.139 C 
BRANCH   6   7
ATOM      7  C   UNL     1      -4.097  -5.349  -1.114  0.00  0.00    -0.030 A 
ATOM      8  C   UNL     1      -3.963  -6.679  -1.468  0.00  0.00    +0.007 A 
ATOM      9  C   UNL     1      -4.921  -7.597  -1.083  0.00  0.00    +0.026 A 
ATOM     10  C   UNL     1      -6.024  -7.182  -0.350  0.00  0.00    +0.048 A 
ATOM     11  C   UNL     1      -6.158  -5.845  -0.001  0.00  0.00    +0.026 A 
ATOM     12  C   UNL     1      -5.194  -4.932  -0.384  0.00  0.00    +0.007 A 
BRANCH  10  13
ATOM     13  N   UNL     1      -7.000  -8.111   0.038  0.00  0.00    -0.305 N 
ATOM     14  C   UNL     1      -7.510  -8.278   1.300  0.00  0.00    +0.110 A 
ATOM     15  C   UNL     1      -8.418  -9.270   1.225  0.00  0.00    +0.102 A 
ATOM     16  N   UNL     1      -8.464  -9.700  -0.045  0.00  0.00    -0.350 N 
ATOM     17  C   UNL     1      -7.623  -9.010  -0.766  0.00  0.00    +0.088 A 
ATOM     18  C   UNL     1      -7.382  -9.185  -2.244  0.00  0.00    +0.084 C 
ATOM     19  H   UNL     1      -9.145 -10.518  -0.324  0.00  0.00    +0.166 HD
ENDBRANCH  10  13
ENDBRANCH   6   7
ENDBRANCH   4   6
ENDBRANCH   1   2
BRANCH   1  20
ATOM     20  N   UNL     1       1.109  -2.369   0.011  0.00  0.00    -0.194 N 
BRANCH  20  21
ATOM     21  C   UNL     1       0.922  -1.008   0.272  0.00  0.00    +0.052 A 
ATOM     22  C   UNL     1      -0.362  -0.493   0.395  0.00  0.00    +0.027 A 
ATOM     23  C   UNL     1      -0.545   0.851   0.652  0.00  0.00    +0.040 A 
ATOM     24  C   UNL     1       0.551   1.687   0.786  0.00  0.00    +0.124 A 
ATOM     25  C   UNL     1       1.833   1.176   0.664  0.00  0.00    +0.040 A 
ATOM     26  C   UNL     1       2.020  -0.168   0.407  0.00  0.00    +0.027 A 
ATOM     27  F   UNL     1       0.370   3.002   1.038  0.00  0.00    -0.205 F 
ENDBRANCH  20  21
BRANCH  20  28
ATOM     28  S   UNL     1       2.484  -2.884  -0.755  0.00  0.00    +0.075 S 
ATOM     29  O   UNL     1       2.159  -4.113  -1.390  0.00  0.00    -0.150 OA
ATOM     30  O   UNL     1       2.992  -1.767  -1.472  0.00  0.00    -0.150 OA
BRANCH  28  35
ATOM     31  C   UNL     1       6.536  -4.174   3.525  0.00  0.00    +0.044 C 
ATOM     32  C   UNL     1       5.524  -3.852   2.456  0.00  0.00    -0.050 A 
ATOM     33  C   UNL     1       4.571  -4.789   2.101  0.00  0.00    +0.005 A 
ATOM     34  C   UNL     1       3.643  -4.493   1.121  0.00  0.00    +0.029 A 
ATOM     35  C   UNL     1       3.667  -3.260   0.495  0.00  0.00    +0.109 A 
ATOM     36  C   UNL     1       4.623  -2.326   0.847  0.00  0.00    +0.029 A 
ATOM     37  C   UNL     1       5.548  -2.620   1.830  0.00  0.00    +0.005 A 
ENDBRANCH  28  35
ENDBRANCH  20  28
ENDBRANCH   1  20
TORSDOF 8
