REMARK  Name = ZINC52604246
REMARK  10 active torsions:
REMARK  status: ('A' for Active; 'I' for Inactive)
REMARK    1  A    between atoms: C_5  and  C_7
REMARK    2  A    between atoms: C_7  and  N_8
REMARK    3  A    between atoms: N_8  and  C_9
REMARK    4  A    between atoms: C_9  and  C_10
REMARK    5  A    between atoms: C_10  and  O_33
REMARK    6  A    between atoms: N_13  and  C_16
REMARK    7  A    between atoms: C_16  and  C_17
REMARK    8  A    between atoms: C_17  and  C_18
REMARK    9  A    between atoms: C_18  and  C_19
REMARK   10  A    between atoms: C_22  and  N_28
REMARK                            x       y       z     vdW  Elec       q    Type
REMARK                         _______ _______ _______ _____ _____    ______ ____
ROOT
ATOM      1  C   UNL     1       1.522  -4.613  -2.857  0.00  0.00    +0.048 C 
ATOM      2  C   UNL     1       2.818  -4.080  -3.475  0.00  0.00    +0.014 C 
ATOM      3  C   UNL     1       2.973  -4.646  -4.888  0.00  0.00    -0.076 C 
ATOM      4  N   UNL     1       3.025  -6.112  -4.829  0.00  0.00    +0.380 N 
ATOM      5  C   UNL     1       1.758  -6.634  -4.304  0.00  0.00    -0.076 C 
ATOM      6  C   UNL     1       1.555  -6.144  -2.869  0.00  0.00    +0.014 C 
ATOM      7  H   UNL     1       3.781  -6.397  -4.225  0.00  0.00    -0.082 HD
ENDROOT
BRANCH   1   8
ATOM      8  O   UNL     1       0.403  -4.154  -3.619  0.00  0.00    -0.391 OA
ATOM      9  H   UNL     1       0.322  -3.191  -3.656  0.00  0.00    +0.210 HD
ENDBRANCH   1   8
BRANCH   1  10
ATOM     10  C   UNL     1       1.400  -4.115  -1.416  0.00  0.00    -0.047 C 
BRANCH  10  11
ATOM     11  N   UNL     1       1.368  -2.646  -1.407  0.00  0.00    +0.385 N 
ATOM     12  H   UNL     1       0.576  -2.324  -1.943  0.00  0.00    -0.085 HD
ATOM     13  H   UNL     1       2.219  -2.289  -1.815  0.00  0.00    -0.085 HD
BRANCH  11  14
ATOM     14  C   UNL     1       1.250  -2.168  -0.023  0.00  0.00    -0.026 C 
BRANCH  14  19
ATOM     15  C   UNL     1      -0.017   1.382   0.010  0.00  0.00    +0.003 A 
ATOM     16  C   UNL     1       1.194   2.059   0.002  0.00  0.00    +0.020 A 
ATOM     17  C   UNL     1       2.370   1.334  -0.013  0.00  0.00    +0.111 A 
ATOM     18  N   UNL     1       2.350   0.015  -0.021  0.00  0.00    -0.262 NA
ATOM     19  C   UNL     1       1.218  -0.661  -0.014  0.00  0.00    +0.024 A 
ATOM     20  C   UNL     1       0.002  -0.004   0.002  0.00  0.00    +0.021 A 
ENDBRANCH  14  19
ENDBRANCH  11  14
ENDBRANCH  10  11
ENDBRANCH   1  10
BRANCH   4  21
ATOM     21  C   UNL     1       3.252  -6.648  -6.178  0.00  0.00    -0.079 C 
BRANCH  21  22
ATOM     22  C   UNL     1       3.430  -8.165  -6.101  0.00  0.00    -0.014 C 
BRANCH  22  23
ATOM     23  C   UNL     1       3.667  -8.723  -7.506  0.00  0.00    +0.031 C 
BRANCH  23  24
ATOM     24  C   UNL     1       3.843 -10.218  -7.430  0.00  0.00    -0.042 C 
ATOM     25  C   UNL     1       2.889 -11.159  -7.614  0.00  0.00    +0.001 A 
ATOM     26  C   UNL     1       1.459 -11.078  -7.928  0.00  0.00    +0.036 A 
ATOM     27  C   UNL     1       0.738 -12.219  -8.057  0.00  0.00    +0.050 A 
ATOM     28  C   UNL     1       1.314 -13.492  -7.899  0.00  0.00    +0.028 A 
ATOM     29  C   UNL     1       2.621 -13.668  -7.610  0.00  0.00    +0.028 A 
ATOM     30  C   UNL     1       3.494 -12.501  -7.449  0.00  0.00    +0.043 A 
ATOM     31  N   UNL     1       4.770 -12.393  -7.174  0.00  0.00    -0.380 N 
ATOM     32  C   UNL     1       5.123 -10.969  -7.138  0.00  0.00    +0.144 C 
ATOM     33  H   UNL     1       5.381 -13.131  -7.022  0.00  0.00    +0.160 HD
BRANCH  27  34
ATOM     34  N   UNL     1      -0.629 -12.127  -8.358  0.00  0.00    -0.288 N 
ATOM     35  C   UNL     1      -1.353 -10.988  -8.550  0.00  0.00    +0.229 A 
ATOM     36  N   UNL     1      -2.580 -11.351  -8.807  0.00  0.00    -0.138 NA
ATOM     37  N   UNL     1      -2.671 -12.633  -8.788  0.00  0.00    -0.138 NA
ATOM     38  C   UNL     1      -1.505 -13.157  -8.523  0.00  0.00    +0.229 A 
ENDBRANCH  27  34
ENDBRANCH  23  24
ENDBRANCH  22  23
ENDBRANCH  21  22
ENDBRANCH   4  21
TORSDOF 10
