REMARK  Name = ZINC66249369
REMARK  7 active torsions:
REMARK  status: ('A' for Active; 'I' for Inactive)
REMARK    1  A    between atoms: C_1  and  C_2
REMARK    2  A    between atoms: N_7  and  C_9
REMARK    3  A    between atoms: C_9  and  C_10
REMARK    4  A    between atoms: N_15  and  S_16
REMARK    5  A    between atoms: S_16  and  C_19
REMARK    6  A    between atoms: C_21  and  C_25
REMARK    7  A    between atoms: N_22  and  C_24
REMARK                            x       y       z     vdW  Elec       q    Type
REMARK                         _______ _______ _______ _____ _____    ______ ____
ROOT
ATOM      1  C   UNL     1       1.633  -3.997   2.220  0.00  0.00    +0.008 A 
ATOM      2  C   UNL     1       2.793  -4.650   2.149  0.00  0.00    +0.068 A 
ATOM      3  S   UNL     1       2.268  -6.356   2.200  0.00  0.00    -0.057 S 
ATOM      4  C   UNL     1       0.509  -6.066   2.315  0.00  0.00    +0.191 A 
ATOM      5  N   UNL     1       0.461  -4.689   2.311  0.00  0.00    -0.338 N 
ATOM      6  N   UNL     1      -0.472  -6.932   2.389  0.00  0.00    -0.103 NA
ATOM      7  H   UNL     1      -0.387  -4.222   2.367  0.00  0.00    +0.167 HD
ENDROOT
BRANCH   6   8
ATOM      8  S   UNL     1      -0.146  -8.555   2.382  0.00  0.00    +0.103 S 
ATOM      9  O   UNL     1       0.390  -8.857   1.101  0.00  0.00    -0.146 OA
ATOM     10  O   UNL     1       0.555  -8.834   3.586  0.00  0.00    -0.146 OA
BRANCH   8  11
ATOM     11  C   UNL     1      -1.690  -9.397   2.493  0.00  0.00    +0.131 A 
ATOM     12  C   UNL     1      -2.340  -9.774   3.673  0.00  0.00    +0.061 A 
ATOM     13  C   UNL     1      -3.511 -10.403   3.308  0.00  0.00    +0.106 A 
ATOM     14  N   UNL     1      -3.568 -10.406   1.932  0.00  0.00    -0.344 N 
ATOM     15  C   UNL     1      -2.462  -9.788   1.451  0.00  0.00    +0.115 A 
ATOM     16  C   UNL     1      -4.648 -10.976   1.124  0.00  0.00    +0.149 C 
BRANCH  13  17
ATOM     17  C   UNL     1      -4.513 -10.967   4.218  0.00  0.00    +0.258 C 
ATOM     18  O   UNL     1      -5.464 -11.580   3.772  0.00  0.00    -0.269 OA
ATOM     19  N   UNL     1      -4.379 -10.806   5.550  0.00  0.00    -0.324 N 
ATOM     20  H   UNL     1      -3.662 -10.257   5.903  0.00  0.00    +0.145 HD
ATOM     21  H   UNL     1      -5.000 -11.240   6.156  0.00  0.00    +0.145 HD
ENDBRANCH  13  17
ENDBRANCH   8  11
ENDBRANCH   6   8
BRANCH   1  22
ATOM     22  C   UNL     1       1.617  -2.490   2.208  0.00  0.00    -0.024 C 
BRANCH  22  28
ATOM     23  C   UNL     1       1.854  -2.405  -2.681  0.00  0.00    +0.005 C 
ATOM     24  C   UNL     1       1.022  -1.994  -1.464  0.00  0.00    -0.031 C 
ATOM     25  C   UNL     1       0.833  -0.474  -1.463  0.00  0.00    -0.001 C 
ATOM     26  C   UNL     1       0.068  -0.066  -0.201  0.00  0.00    -0.018 C 
ATOM     27  C   UNL     1       0.830  -0.556   1.032  0.00  0.00    -0.078 C 
ATOM     28  N   UNL     1       0.955  -2.018   0.985  0.00  0.00    +0.384 N 
ATOM     29  C   UNL     1       1.748  -2.414  -0.184  0.00  0.00    -0.075 C 
ATOM     30  H   UNL     1       0.036  -2.431   0.922  0.00  0.00    -0.081 HD
ENDBRANCH  22  28
ENDBRANCH   1  22
TORSDOF 5
