REMARK  Name = ZINC02873736
REMARK  10 active torsions:
REMARK  status: ('A' for Active; 'I' for Inactive)
REMARK    1  A    between atoms: C_1  and  N_2
REMARK    2  A    between atoms: N_2  and  C_3
REMARK    3  A    between atoms: N_2  and  S_27
REMARK    4  A    between atoms: C_7  and  N_9
REMARK    5  A    between atoms: C_10  and  C_12
REMARK    6  A    between atoms: C_12  and  N_13
REMARK    7  A    between atoms: N_13  and  C_14
REMARK    8  A    between atoms: N_13  and  S_23
REMARK    9  A    between atoms: S_23  and  C_26
REMARK   10  A    between atoms: S_27  and  C_30
REMARK                            x       y       z     vdW  Elec       q    Type
REMARK                         _______ _______ _______ _____ _____    ______ ____
ROOT
ATOM      1  N   UNL     1      -0.862   3.269   1.472  0.00  0.00    -0.284 N 
ATOM      2  C   UNL     1      -0.583   1.957   1.341  0.00  0.00    +0.236 C 
ATOM      3  O   UNL     1      -0.894   1.180   2.220  0.00  0.00    -0.274 OA
ATOM      4  H   UNL     1      -0.547   3.900   0.806  0.00  0.00    +0.155 HD
ENDROOT
BRANCH   1   9
ATOM      5  C   UNL     1      -2.093   5.414   4.198  0.00  0.00    +0.052 A 
ATOM      6  C   UNL     1      -3.087   4.605   4.737  0.00  0.00    +0.025 A 
ATOM      7  C   UNL     1      -3.338   3.361   4.191  0.00  0.00    +0.004 A 
ATOM      8  C   UNL     1      -2.605   2.919   3.106  0.00  0.00    +0.023 A 
ATOM      9  C   UNL     1      -1.607   3.720   2.567  0.00  0.00    +0.035 A 
ATOM     10  C   UNL     1      -1.353   4.971   3.112  0.00  0.00    +0.048 A 
BRANCH   5  12
ATOM     11  C   UNL     1      -0.521   7.289   4.595  0.00  0.00    +0.157 C 
ATOM     12  N   UNL     1      -1.841   6.673   4.750  0.00  0.00    -0.211 N 
BRANCH  12  13
ATOM     13  S   UNL     1      -3.034   7.468   5.578  0.00  0.00    +0.042 S 
ATOM     14  O   UNL     1      -2.705   8.845   5.453  0.00  0.00    -0.155 OA
ATOM     15  O   UNL     1      -4.248   6.961   5.041  0.00  0.00    -0.155 OA
ATOM     16  C   UNL     1      -2.841   6.934   7.301  0.00  0.00    +0.218 C 
ENDBRANCH  12  13
ENDBRANCH   5  12
ENDBRANCH   1   9
BRANCH   2  17
ATOM     17  C   UNL     1       0.115   1.454   0.103  0.00  0.00    +0.227 C 
BRANCH  17  18
ATOM     18  N   UNL     1       0.302   0.005   0.203  0.00  0.00    -0.197 N 
BRANCH  18  19
ATOM     19  C   UNL     1       1.413  -0.512   0.877  0.00  0.00    +0.071 A 
ATOM     20  C   UNL     1       1.375  -0.677   2.255  0.00  0.00    +0.047 A 
ATOM     21  C   UNL     1       2.474  -1.192   2.918  0.00  0.00    +0.061 A 
ATOM     22  C   UNL     1       3.614  -1.535   2.210  0.00  0.00    +0.061 A 
ATOM     23  C   UNL     1       3.655  -1.367   0.837  0.00  0.00    +0.043 A 
ATOM     24  C   UNL     1       2.558  -0.856   0.169  0.00  0.00    +0.065 A 
ATOM     25 CL   UNL     1       2.611  -0.646  -1.554  0.00  0.00    -0.082 Cl
ATOM     26 CL   UNL     1       4.993  -2.175   3.046  0.00  0.00    -0.082 Cl
ATOM     27 CL   UNL     1       2.426  -1.403   4.640  0.00  0.00    -0.082 Cl
ENDBRANCH  18  19
BRANCH  18  28
ATOM     28  S   UNL     1      -0.802  -1.021  -0.483  0.00  0.00    +0.043 S 
ATOM     29  O   UNL     1      -0.701  -2.220   0.273  0.00  0.00    -0.155 OA
ATOM     30  O   UNL     1      -2.015  -0.282  -0.511  0.00  0.00    -0.155 OA
ATOM     31  C   UNL     1      -0.198  -1.295  -2.172  0.00  0.00    +0.218 C 
ENDBRANCH  18  28
ENDBRANCH  17  18
ENDBRANCH   2  17
TORSDOF 7
