REMARK  Name = ZINC31808870
REMARK  5 active torsions:
REMARK  status: ('A' for Active; 'I' for Inactive)
REMARK    1  A    between atoms: C_1  and  C_2
REMARK    2  A    between atoms: C_2  and  C_3
REMARK    3  A    between atoms: C_2  and  C_4
REMARK    4  A    between atoms: C_4  and  N_5
REMARK    5  A    between atoms: C_17  and  O_25
REMARK                            x       y       z     vdW  Elec       q    Type
REMARK                         _______ _______ _______ _____ _____    ______ ____
ROOT
ATOM      1  N   UNL     1       1.989  -0.050  -1.089  0.00  0.00    -0.268 N 
ATOM      2  C   UNL     1       2.367   1.241  -1.417  0.00  0.00    +0.059 A 
ATOM      3  C   UNL     1       3.739   1.417  -1.197  0.00  0.00    -0.005 A 
ATOM      4  C   UNL     1       4.375   2.615  -1.445  0.00  0.00    +0.007 A 
ATOM      5  C   UNL     1       3.591   3.658  -1.927  0.00  0.00    +0.002 A 
ATOM      6  C   UNL     1       2.239   3.498  -2.148  0.00  0.00    +0.022 A 
ATOM      7  C   UNL     1       1.591   2.296  -1.902  0.00  0.00    +0.063 A 
ATOM      8 CL   UNL     1      -0.111   2.111  -2.187  0.00  0.00    -0.082 Cl
ATOM      9  C   UNL     1       4.249   0.110  -0.684  0.00  0.00    +0.112 C 
ATOM     10  C   UNL     1       3.030  -0.784  -0.642  0.00  0.00    +0.235 C 
ATOM     11  O   UNL     1       2.994  -1.940  -0.278  0.00  0.00    -0.274 OA
ATOM     12  C   UNL     1       5.310  -0.477  -1.615  0.00  0.00    +0.121 C 
ATOM     13  C   UNL     1       6.661   0.128  -1.358  0.00  0.00    +0.191 C 
ATOM     14  N   UNL     1       7.057   0.530  -0.188  0.00  0.00    -0.198 NA
ATOM     15  C   UNL     1       6.203   0.453   0.873  0.00  0.00    +0.156 A 
ATOM     16  C   UNL     1       4.839   0.253   0.691  0.00  0.00    +0.036 A 
ATOM     17  C   UNL     1       4.245   0.222   1.938  0.00  0.00    +0.141 A 
ATOM     18  N   UNL     1       5.176   0.405   2.846  0.00  0.00    -0.180 NA
ATOM     19  N   UNL     1       6.413   0.563   2.202  0.00  0.00    -0.260 N 
ATOM     20  H   UNL     1       7.267   0.722   2.634  0.00  0.00    +0.191 HD
ENDROOT
BRANCH  13  21
ATOM     21  O   UNL     1       7.508   0.261  -2.398  0.00  0.00    -0.495 OA
ATOM     22  H   UNL     1       8.359   0.657  -2.165  0.00  0.00    +0.293 HD
ENDBRANCH  13  21
BRANCH   1  23
ATOM     23  C   UNL     1       0.619  -0.557  -1.207  0.00  0.00    +0.116 C 
BRANCH  23  25
ATOM     24  C   UNL     1       1.307  -2.201  -2.958  0.00  0.00    +0.009 C 
ATOM     25  C   UNL     1       0.373  -1.032  -2.640  0.00  0.00    +0.001 C 
ATOM     26  C   UNL     1      -1.081  -1.486  -2.784  0.00  0.00    +0.009 C 
ENDBRANCH  23  25
ENDBRANCH   1  23
TORSDOF 3
