REMARK  Name = ZINC09271057
REMARK  10 active torsions:
REMARK  status: ('A' for Active; 'I' for Inactive)
REMARK    1  A    between atoms: C_1  and  C_2
REMARK    2  A    between atoms: C_2  and  N_57
REMARK    3  A    between atoms: C_3  and  C_4
REMARK    4  A    between atoms: C_3  and  N_57
REMARK    5  A    between atoms: C_5  and  C_6
REMARK    6  A    between atoms: C_5  and  N_57
REMARK    7  A    between atoms: C_6  and  N_7
REMARK    8  A    between atoms: C_8  and  C_26
REMARK    9  A    between atoms: C_11  and  C_12
REMARK   10  A    between atoms: C_11  and  O_21
REMARK                            x       y       z     vdW  Elec       q    Type
REMARK                         _______ _______ _______ _____ _____    ______ ____
ROOT
ATOM      1  N   UNL     1       0.487  -0.459   0.726  0.00  0.00    -0.285 N 
ATOM      2  C   UNL     1       1.898  -0.816   0.549  0.00  0.00    +0.145 C 
ATOM      3  C   UNL     1       2.653   0.482   0.375  0.00  0.00    +0.074 C 
ATOM      4  C   UNL     1       4.016   0.632   0.177  0.00  0.00    +0.168 C 
ATOM      5  C   UNL     1       1.697   1.503   0.453  0.00  0.00    +0.249 C 
ATOM      6  O   UNL     1       1.919   2.697   0.358  0.00  0.00    -0.282 OA
ATOM      7  C   UNL     1       0.366   0.878   0.672  0.00  0.00    +0.288 C 
ATOM      8  O   UNL     1      -0.679   1.487   0.780  0.00  0.00    -0.266 OA
ENDROOT
BRANCH   4   9
ATOM      9  C   UNL     1       4.610   1.968   0.158  0.00  0.00    +0.171 A 
ATOM     10  C   UNL     1       5.479   2.430  -0.784  0.00  0.00    +0.061 A 
ATOM     11  C   UNL     1       5.800   3.764  -0.428  0.00  0.00    +0.021 A 
ATOM     12  C   UNL     1       6.622   4.745  -0.993  0.00  0.00    +0.011 A 
ATOM     13  C   UNL     1       6.732   5.966  -0.391  0.00  0.00    +0.001 A 
ATOM     14  C   UNL     1       6.033   6.241   0.777  0.00  0.00    +0.004 A 
ATOM     15  C   UNL     1       5.218   5.289   1.350  0.00  0.00    +0.047 A 
ATOM     16  C   UNL     1       5.091   4.040   0.756  0.00  0.00    +0.136 A 
ATOM     17  O   UNL     1       4.387   2.934   1.075  0.00  0.00    -0.452 OA
ENDBRANCH   4   9
BRANCH   2  18
ATOM     18  C   UNL     1       2.062  -1.677  -0.676  0.00  0.00    -0.021 A 
ATOM     19  C   UNL     1       1.336  -1.399  -1.819  0.00  0.00    +0.006 A 
ATOM     20  C   UNL     1       1.491  -2.185  -2.946  0.00  0.00    +0.001 A 
ATOM     21  C   UNL     1       2.364  -3.257  -2.926  0.00  0.00    +0.015 A 
ATOM     22  C   UNL     1       3.086  -3.539  -1.781  0.00  0.00    +0.018 A 
ATOM     23  C   UNL     1       2.935  -2.748  -0.656  0.00  0.00    +0.021 A 
ATOM     24 BR   UNL     1       4.280  -5.006  -1.753  0.00  0.00    -0.050 Br
ENDBRANCH   2  18
BRANCH   4  25
ATOM     25  O   UNL     1       4.797  -0.457   0.002  0.00  0.00    -0.503 OA
ATOM     26  H   UNL     1       5.746  -0.170  -0.126  0.00  0.00    +0.292 HD
ENDBRANCH   4  25
BRANCH   1  27
ATOM     27  C   UNL     1      -0.612  -1.406   0.930  0.00  0.00    +0.090 C 
BRANCH  27  28
ATOM     28  C   UNL     1      -1.193  -1.812  -0.425  0.00  0.00    -0.060 C 
BRANCH  28  29
ATOM     29  N   UNL     1      -2.368  -2.679  -0.196  0.00  0.00    +0.380 N 
ATOM     30  H   UNL     1      -2.159  -3.328   0.573  0.00  0.00    -0.082 HD
BRANCH  29  32
ATOM     31  C   UNL     1      -4.671  -2.783   0.622  0.00  0.00    -0.017 C 
ATOM     32  C   UNL     1      -3.538  -1.856   0.175  0.00  0.00    -0.082 C 
ENDBRANCH  29  32
BRANCH  29  33
ATOM     33  C   UNL     1      -2.665  -3.460  -1.415  0.00  0.00    -0.082 C 
ATOM     34  C   UNL     1      -1.674  -4.622  -1.507  0.00  0.00    -0.017 C 
ENDBRANCH  29  33
ENDBRANCH  28  29
ENDBRANCH  27  28
ENDBRANCH   1  27
TORSDOF 8
