REMARK  Name = ZINC26441558
REMARK  2 active torsions:
REMARK  status: ('A' for Active; 'I' for Inactive)
REMARK    1  A    between atoms: C_6  and  N_7
REMARK    2  A    between atoms: N_10  and  N_11
REMARK                            x       y       z     vdW  Elec       q    Type
REMARK                         _______ _______ _______ _____ _____    ______ ____
ROOT
ATOM      1  N   UNL     1       3.622  -0.653  -0.036  0.00  0.00    -0.268 N 
ATOM      2  C   UNL     1       4.777   0.033  -0.145  0.00  0.00    +0.320 C 
ATOM      3  O   UNL     1       4.764   1.249  -0.139  0.00  0.00    -0.251 OA
ATOM      4  N   UNL     1       5.945  -0.628  -0.261  0.00  0.00    -0.219 N 
ATOM      5  H   UNL     1       3.640  -1.750   0.047  0.00  0.00    +0.156 HD
ATOM      6  H   UNL     1       6.888  -0.067  -0.350  0.00  0.00    +0.174 HD
ENDROOT
BRANCH   4   7
ATOM      7  N   UNL     1       5.960  -2.029  -0.268  0.00  0.00    -0.252 N 
ATOM      8  C   UNL     1       7.148  -2.701  -0.385  0.00  0.00    +0.084 C 
ATOM      9  N   UNL     1       8.241  -2.045  -0.489  0.00  0.00    -0.375 N 
ATOM     10  C   UNL     1       9.526  -2.749  -0.614  0.00  0.00    +0.113 C 
ATOM     11  C   UNL     1       9.620  -3.360  -2.013  0.00  0.00    +0.021 C 
ATOM     12  C   UNL     1       8.971  -4.734  -2.044  0.00  0.00    +0.002 C 
ATOM     13  C   UNL     1       7.470  -4.694  -1.812  0.00  0.00    +0.007 C 
ATOM     14  C   UNL     1       7.159  -4.214  -0.386  0.00  0.00    +0.070 C 
ATOM     15  H   UNL     1       5.018  -2.589  -0.179  0.00  0.00    +0.171 HD
ATOM     16  H   UNL     1       8.225  -0.945  -0.484  0.00  0.00    +0.161 HD
ENDBRANCH   4   7
BRANCH   1  22
ATOM     17  C   UNL     1       2.248   1.192  -0.771  0.00  0.00    +0.025 A 
ATOM     18  C   UNL     1       1.041   1.864  -0.763  0.00  0.00    +0.023 A 
ATOM     19  C   UNL     1      -0.017   1.380  -0.014  0.00  0.00    +0.059 A 
ATOM     20  C   UNL     1       0.132   0.220   0.729  0.00  0.00    +0.061 A 
ATOM     21  C   UNL     1       1.337  -0.456   0.723  0.00  0.00    +0.044 A 
ATOM     22  C   UNL     1       2.400   0.029  -0.028  0.00  0.00    +0.036 A 
ATOM     23 CL   UNL     1      -1.197  -0.385   1.668  0.00  0.00    -0.082 Cl
ATOM     24 CL   UNL     1      -1.530   2.230   0.000  0.00  0.00    -0.082 Cl
ENDBRANCH   1  22
TORSDOF 2
