REMARK  Name = ZINC20967897
REMARK  13 active torsions:
REMARK  status: ('A' for Active; 'I' for Inactive)
REMARK    1  A    between atoms: C_1  and  C_2
REMARK    2  A    between atoms: C_2  and  C_3
REMARK    3  A    between atoms: C_3  and  O_4
REMARK    4  A    between atoms: O_4  and  C_5
REMARK    5  A    between atoms: C_6  and  C_13
REMARK    6  A    between atoms: C_13  and  N_14
REMARK    7  A    between atoms: N_14  and  C_15
REMARK    8  A    between atoms: C_15  and  C_16
REMARK    9  A    between atoms: C_16  and  N_17
REMARK   10  A    between atoms: N_17  and  C_18
REMARK   11  A    between atoms: C_18  and  C_19
REMARK   12  A    between atoms: C_19  and  C_21
REMARK   13  A    between atoms: C_19  and  O_22
REMARK                            x       y       z     vdW  Elec       q    Type
REMARK                         _______ _______ _______ _____ _____    ______ ____
ROOT
ATOM      1  C   UNL     1      -0.795   1.527  -1.120  0.00  0.00    -0.043 C 
ENDROOT
BRANCH   1   3
ATOM      2  C   UNL     1      -3.132   1.477  -0.211  0.00  0.00    +0.136 A 
ATOM      3  C   UNL     1      -2.186   0.947  -1.076  0.00  0.00    -0.021 A 
ATOM      4  C   UNL     1      -2.517  -0.116  -1.894  0.00  0.00    +0.020 A 
ATOM      5  C   UNL     1      -3.793  -0.650  -1.854  0.00  0.00    +0.019 A 
ATOM      6  C   UNL     1      -4.740  -0.121  -0.996  0.00  0.00    +0.034 A 
ATOM      7  C   UNL     1      -4.413   0.944  -0.176  0.00  0.00    +0.061 A 
ATOM      8 BR   UNL     1      -5.707   1.667   0.997  0.00  0.00    -0.046 Br
ATOM      9 BR   UNL     1      -4.242  -2.106  -2.974  0.00  0.00    -0.050 Br
BRANCH   2  10
ATOM     10  O   UNL     1      -2.806   2.519   0.598  0.00  0.00    -0.491 OA
BRANCH  10  11
ATOM     11  C   UNL     1      -3.020   3.834   0.080  0.00  0.00    +0.229 C 
BRANCH  11  13
ATOM     12  C   UNL     1      -2.827   6.276   0.571  0.00  0.00    +0.007 C 
ATOM     13  C   UNL     1      -2.599   4.869   1.125  0.00  0.00    +0.038 C 
ENDBRANCH  11  13
ENDBRANCH  10  11
ENDBRANCH   2  10
ENDBRANCH   1   3
BRANCH   1  14
ATOM     14  N   UNL     1      -0.012   1.005   0.008  0.00  0.00    +0.383 N 
ATOM     15  H   UNL     1      -0.497   1.287   0.954  0.00  0.00    -0.085 HD
ATOM     16  H   UNL     1       0.046  -0.091  -0.062  0.00  0.00    -0.085 HD
BRANCH  14  17
ATOM     17  C   UNL     1       1.353   1.550  -0.003  0.00  0.00    -0.067 C 
BRANCH  17  18
ATOM     18  C   UNL     1       2.136   0.985   1.184  0.00  0.00    +0.062 C 
BRANCH  18  19
ATOM     19  N   UNL     1       3.501   1.530   1.173  0.00  0.00    -0.315 NA
ATOM     20  H   UNL     1       4.001   1.248   0.235  0.00  0.00    +0.122 HD
BRANCH  19  21
ATOM     21  C   UNL     1       4.284   1.008   2.301  0.00  0.00    +0.111 C 
BRANCH  21  22
ATOM     22  C   UNL     1       5.696   1.596   2.257  0.00  0.00    +0.125 C 
ATOM     23  C   UNL     1       6.549   0.959   3.355  0.00  0.00    +0.039 C 
BRANCH  22  24
ATOM     24  O   UNL     1       5.630   3.009   2.464  0.00  0.00    -0.391 OA
ATOM     25  H   UNL     1       6.552   3.608   2.466  0.00  0.00    +0.210 HD
ENDBRANCH  22  24
ENDBRANCH  21  22
ENDBRANCH  19  21
ENDBRANCH  18  19
ENDBRANCH  17  18
ENDBRANCH  14  17
ENDBRANCH   1  14
TORSDOF 11
