REMARK  Name = ZINC20110792
REMARK  12 active torsions:
REMARK  status: ('A' for Active; 'I' for Inactive)
REMARK    1  A    between atoms: C_1  and  C_2
REMARK    2  A    between atoms: C_2  and  N_3
REMARK    3  A    between atoms: N_11  and  N_12
REMARK    4  A    between atoms: C_13  and  C_15
REMARK    5  A    between atoms: C_15  and  N_28
REMARK    6  A    between atoms: C_16  and  C_17
REMARK    7  A    between atoms: C_20  and  N_23
REMARK    8  A    between atoms: N_23  and  C_24
REMARK    9  A    between atoms: N_23  and  C_26
REMARK   10  A    between atoms: C_24  and  C_25
REMARK   11  A    between atoms: C_26  and  C_27
REMARK   12  A    between atoms: C_29  and  C_31
REMARK                            x       y       z     vdW  Elec       q    Type
REMARK                         _______ _______ _______ _____ _____    ______ ____
ROOT
ATOM      1  C   UNL     1      -1.732  -2.210   6.981  0.00  0.00    +0.098 C 
ATOM      2  C   UNL     1      -2.010  -2.333   8.303  0.00  0.00    +0.036 C 
ENDROOT
BRANCH   2   3
ATOM      3  C   UNL     1      -0.948  -2.705   9.245  0.00  0.00    -0.023 A 
ATOM      4  C   UNL     1       0.326  -2.136   9.129  0.00  0.00    +0.010 A 
ATOM      5  C   UNL     1       1.318  -2.488  10.014  0.00  0.00    +0.024 A 
ATOM      6  C   UNL     1       1.057  -3.409  11.025  0.00  0.00    +0.030 A 
ATOM      7  C   UNL     1      -0.208  -3.978  11.145  0.00  0.00    +0.024 A 
ATOM      8  C   UNL     1      -1.208  -3.626  10.268  0.00  0.00    +0.010 A 
BRANCH   6   9
ATOM      9  N   UNL     1       2.065  -3.762  11.919  0.00  0.00    -0.330 N 
BRANCH   9  10
ATOM     10  C   UNL     1       1.792  -4.731  12.984  0.00  0.00    +0.102 C 
ATOM     11  C   UNL     1       2.098  -6.143  12.479  0.00  0.00    +0.024 C 
ENDBRANCH   9  10
BRANCH   9  12
ATOM     12  C   UNL     1       3.397  -3.165  11.795  0.00  0.00    +0.102 C 
ATOM     13  C   UNL     1       3.461  -1.883  12.627  0.00  0.00    +0.024 C 
ENDBRANCH   9  12
ENDBRANCH   6   9
ENDBRANCH   2   3
BRANCH   1  15
ATOM     14  N   UNL     1      -0.128  -2.488   5.167  0.00  0.00    -0.201 N 
ATOM     15  C   UNL     1      -0.473  -2.737   6.445  0.00  0.00    +0.277 C 
ATOM     16  O   UNL     1       0.261  -3.399   7.155  0.00  0.00    -0.267 OA
ATOM     17  H   UNL     1      -0.713  -1.960   4.601  0.00  0.00    +0.178 HD
BRANCH  14  26
ATOM     18  N   UNL     1       1.358  -1.973   1.266  0.00  0.00    -0.266 N 
ATOM     19  C   UNL     1       2.542  -2.691   1.399  0.00  0.00    +0.046 A 
ATOM     20  C   UNL     1       3.567  -2.958   0.497  0.00  0.00    +0.024 A 
ATOM     21  C   UNL     1       4.654  -3.712   0.889  0.00  0.00    +0.002 A 
ATOM     22  C   UNL     1       4.740  -4.209   2.178  0.00  0.00    +0.001 A 
ATOM     23  C   UNL     1       3.733  -3.954   3.087  0.00  0.00    +0.012 A 
ATOM     24  C   UNL     1       2.633  -3.196   2.702  0.00  0.00    +0.028 A 
ATOM     25  C   UNL     1       1.411  -2.749   3.410  0.00  0.00    +0.153 C 
ATOM     26  N   UNL     1       1.075  -2.992   4.655  0.00  0.00    -0.174 NA
ATOM     27  C   UNL     1       0.656  -1.968   2.411  0.00  0.00    +0.271 C 
ATOM     28  O   UNL     1      -0.414  -1.417   2.592  0.00  0.00    -0.268 OA
BRANCH  18  30
ATOM     29  C   UNL     1       1.472   0.129   0.021  0.00  0.00    +0.025 C 
ATOM     30  C   UNL     1       0.933  -1.303   0.034  0.00  0.00    +0.111 C 
ENDBRANCH  18  30
ENDBRANCH  14  26
ENDBRANCH   1  15
BRANCH   1  31
ATOM     31  N   UNL     1      -2.645  -1.580   6.129  0.00  0.00    -0.277 N 
ATOM     32  C   UNL     1      -3.162  -2.251   5.080  0.00  0.00    +0.248 C 
ATOM     33  O   UNL     1      -2.902  -3.428   4.924  0.00  0.00    -0.270 OA
ATOM     34  H   UNL     1      -2.907  -0.660   6.293  0.00  0.00    +0.155 HD
BRANCH  32  35
ATOM     35  C   UNL     1      -4.046  -1.555   4.121  0.00  0.00    +0.037 A 
ATOM     36  C   UNL     1      -4.342  -0.202   4.295  0.00  0.00    +0.013 A 
ATOM     37  C   UNL     1      -5.167   0.441   3.395  0.00  0.00    +0.001 A 
ATOM     38  C   UNL     1      -5.701  -0.252   2.323  0.00  0.00    +0.000 A 
ATOM     39  C   UNL     1      -5.411  -1.594   2.145  0.00  0.00    +0.001 A 
ATOM     40  C   UNL     1      -4.583  -2.247   3.034  0.00  0.00    +0.013 A 
ENDBRANCH  32  35
ENDBRANCH   1  31
TORSDOF 9
