REMARK  Name = ZINC37715513
REMARK  8 active torsions:
REMARK  status: ('A' for Active; 'I' for Inactive)
REMARK    1  A    between atoms: C_3  and  C_6
REMARK    2  A    between atoms: C_6  and  C_8
REMARK    3  A    between atoms: C_6  and  N_14
REMARK    4  A    between atoms: N_14  and  C_15
REMARK    5  A    between atoms: C_15  and  C_16
REMARK    6  A    between atoms: C_16  and  C_17
REMARK    7  A    between atoms: C_17  and  C_18
REMARK    8  A    between atoms: C_18  and  N_19
REMARK                            x       y       z     vdW  Elec       q    Type
REMARK                         _______ _______ _______ _____ _____    ______ ____
ROOT
ATOM      1  C   UNL     1       3.761   1.845  -0.024  0.00  0.00    +0.128 C 
ENDROOT
BRANCH   1   2
ATOM      2  C   UNL     1       4.330   1.776   1.369  0.00  0.00    +0.013 A 
ATOM      3  C   UNL     1       4.463   2.764   2.287  0.00  0.00    +0.014 A 
ATOM      4  C   UNL     1       5.021   2.467   3.517  0.00  0.00    +0.028 A 
ATOM      5  C   UNL     1       5.420   1.195   3.767  0.00  0.00    +0.078 A 
ATOM      6  S   UNL     1       4.999   0.369   2.241  0.00  0.00    -0.080 S 
ATOM      7 CL   UNL     1       6.144   0.539   5.202  0.00  0.00    -0.076 Cl
ENDBRANCH   1   2
BRANCH   1  10
ATOM      8  C   UNL     1      -0.016   1.351   0.009  0.00  0.00    +0.008 A 
ATOM      9  C   UNL     1       1.183   2.038   0.002  0.00  0.00    +0.013 A 
ATOM     10  C   UNL     1       2.343   1.336  -0.013  0.00  0.00    +0.012 A 
ATOM     11  S   UNL     1       1.754  -0.349  -0.017  0.00  0.00    -0.100 S 
ATOM     12  C   UNL     1       0.002  -0.004   0.002  0.00  0.00    +0.045 A 
ENDBRANCH   1  10
BRANCH   1  13
ATOM     13  N   UNL     1       4.572   1.017  -0.927  0.00  0.00    -0.305 NA
ATOM     14  H   UNL     1       5.536   0.996  -0.629  0.00  0.00    +0.123 HD
BRANCH  13  15
ATOM     15  C   UNL     1       4.459   1.485  -2.315  0.00  0.00    +0.082 C 
BRANCH  15  16
ATOM     16  C   UNL     1       5.315   0.600  -3.222  0.00  0.00    +0.013 C 
BRANCH  16  17
ATOM     17  C   UNL     1       5.198   1.088  -4.668  0.00  0.00    -0.018 C 
BRANCH  17  18
ATOM     18  C   UNL     1       6.054   0.203  -5.576  0.00  0.00    -0.086 C 
BRANCH  18  19
ATOM     19  N   UNL     1       5.942   0.671  -6.964  0.00  0.00    +0.378 N 
ATOM     20  H   UNL     1       4.978   0.622  -7.258  0.00  0.00    -0.090 HD
ATOM     21  H   UNL     1       6.264   1.625  -7.024  0.00  0.00    -0.090 HD
ATOM     22  H   UNL     1       6.507   0.087  -7.562  0.00  0.00    -0.090 HD
ENDBRANCH  18  19
ENDBRANCH  17  18
ENDBRANCH  16  17
ENDBRANCH  15  16
ENDBRANCH  13  15
ENDBRANCH   1  13
TORSDOF 8
