REMARK  Name = ZINC03276525
REMARK  8 active torsions:
REMARK  status: ('A' for Active; 'I' for Inactive)
REMARK    1  A    between atoms: C_1  and  C_2
REMARK    2  A    between atoms: C_2  and  C_4
REMARK    3  A    between atoms: C_2  and  O_16
REMARK    4  A    between atoms: N_6  and  C_7
REMARK    5  A    between atoms: O_16  and  C_17
REMARK    6  A    between atoms: C_17  and  C_19
REMARK    7  A    between atoms: C_24  and  C_25
REMARK    8  A    between atoms: C_25  and  C_27
REMARK                            x       y       z     vdW  Elec       q    Type
REMARK                         _______ _______ _______ _____ _____    ______ ____
ROOT
ATOM      1  O   UNL     1       0.940   2.245  -0.197  0.00  0.00    -0.449 OA
ENDROOT
BRANCH   1   3
ATOM      2  C   UNL     1       2.500   1.180  -1.734  0.00  0.00    +0.062 C 
ATOM      3  C   UNL     1       2.185   1.502  -0.272  0.00  0.00    +0.259 C 
BRANCH   3   4
ATOM      4  C   UNL     1       3.300   2.331   0.311  0.00  0.00    +0.258 C 
ATOM      5  O   UNL     1       3.069   3.439   0.747  0.00  0.00    -0.271 OA
ATOM      6  N   UNL     1       4.556   1.841   0.349  0.00  0.00    -0.281 N 
ATOM      7  H   UNL     1       4.753   0.982  -0.056  0.00  0.00    +0.155 HD
BRANCH   6   8
ATOM      8  C   UNL     1       5.574   2.572   0.972  0.00  0.00    +0.053 A 
ATOM      9  C   UNL     1       5.480   3.954   1.067  0.00  0.00    +0.046 A 
ATOM     10  C   UNL     1       6.487   4.673   1.683  0.00  0.00    +0.061 A 
ATOM     11  C   UNL     1       7.589   4.017   2.206  0.00  0.00    +0.061 A 
ATOM     12  C   UNL     1       7.685   2.640   2.112  0.00  0.00    +0.043 A 
ATOM     13  C   UNL     1       6.678   1.915   1.502  0.00  0.00    +0.064 A 
ATOM     14 CL   UNL     1       6.796   0.187   1.391  0.00  0.00    -0.082 Cl
ATOM     15 CL   UNL     1       8.851   4.923   2.979  0.00  0.00    -0.082 Cl
ATOM     16 CL   UNL     1       6.370   6.402   1.801  0.00  0.00    -0.082 Cl
ENDBRANCH   6   8
ENDBRANCH   3   4
ENDBRANCH   1   3
BRANCH   1  17
ATOM     17  C   UNL     1      -0.193   1.528  -0.070  0.00  0.00    +0.341 C 
ATOM     18  O   UNL     1      -0.143   0.316  -0.022  0.00  0.00    -0.245 OA
BRANCH  17  19
ATOM     19  C   UNL     1      -1.499   2.217   0.007  0.00  0.00    +0.070 A 
ATOM     20  C   UNL     1      -1.555   3.607   0.072  0.00  0.00    +0.016 A 
ATOM     21  C   UNL     1      -2.779   4.247   0.137  0.00  0.00    +0.001 A 
ATOM     22  C   UNL     1      -3.953   3.514   0.150  0.00  0.00    +0.001 A 
ATOM     23  C   UNL     1      -3.917   2.134   0.091  0.00  0.00    +0.012 A 
ATOM     24  C   UNL     1      -2.694   1.471   0.019  0.00  0.00    +0.036 A 
BRANCH  24  25
ATOM     25  C   UNL     1      -2.650  -0.005  -0.043  0.00  0.00    +0.194 C 
ATOM     26  O   UNL     1      -2.844  -0.662   0.961  0.00  0.00    -0.287 OA
BRANCH  25  27
ATOM     27  C   UNL     1      -2.370  -0.682  -1.326  0.00  0.00    +0.022 A 
ATOM     28  C   UNL     1      -2.055   0.068  -2.461  0.00  0.00    +0.012 A 
ATOM     29  C   UNL     1      -1.791  -0.571  -3.655  0.00  0.00    +0.001 A 
ATOM     30  C   UNL     1      -1.847  -1.952  -3.731  0.00  0.00    +0.000 A 
ATOM     31  C   UNL     1      -2.165  -2.701  -2.612  0.00  0.00    +0.001 A 
ATOM     32  C   UNL     1      -2.426  -2.076  -1.411  0.00  0.00    +0.012 A 
ENDBRANCH  25  27
ENDBRANCH  24  25
ENDBRANCH  17  19
ENDBRANCH   1  17
TORSDOF 7
