REMARK  Name = ZINC64801719
REMARK  8 active torsions:
REMARK  status: ('A' for Active; 'I' for Inactive)
REMARK    1  A    between atoms: C_1  and  C_2
REMARK    2  A    between atoms: C_2  and  N_3
REMARK    3  A    between atoms: C_6  and  C_28
REMARK    4  A    between atoms: C_8  and  N_10
REMARK    5  A    between atoms: N_10  and  C_11
REMARK    6  A    between atoms: C_14  and  N_17
REMARK    7  A    between atoms: N_17  and  S_18
REMARK    8  A    between atoms: S_18  and  C_21
REMARK                            x       y       z     vdW  Elec       q    Type
REMARK                         _______ _______ _______ _____ _____    ______ ____
ROOT
ATOM      1  C   UNL     1      -4.390  -5.592   0.315  0.00  0.00    +0.032 A 
ATOM      2  C   UNL     1      -3.462  -6.624   0.250  0.00  0.00    +0.025 A 
ATOM      3  C   UNL     1      -3.885  -7.919   0.024  0.00  0.00    +0.026 A 
ATOM      4  C   UNL     1      -5.237  -8.190  -0.138  0.00  0.00    +0.048 A 
ATOM      5  C   UNL     1      -6.165  -7.158  -0.073  0.00  0.00    +0.026 A 
ATOM      6  C   UNL     1      -5.743  -5.864   0.158  0.00  0.00    +0.025 A 
ENDROOT
BRANCH   1   7
ATOM      7  N   UNL     1      -3.962  -4.278   0.544  0.00  0.00    -0.299 N 
ATOM      8  H   UNL     1      -4.521  -3.667   1.047  0.00  0.00    +0.154 HD
BRANCH   7  14
ATOM      9  N   UNL     1      -0.121  -5.085  -2.028  0.00  0.00    -0.315 N 
ATOM     10  C   UNL     1      -0.847  -4.239  -1.209  0.00  0.00    +0.195 A 
ATOM     11  N   UNL     1      -0.355  -3.044  -0.917  0.00  0.00    -0.332 N 
ATOM     12  C   UNL     1      -1.021  -2.205  -0.136  0.00  0.00    +0.019 A 
ATOM     13  C   UNL     1      -2.245  -2.587   0.377  0.00  0.00    +0.064 A 
ATOM     14  C   UNL     1      -2.738  -3.853   0.052  0.00  0.00    +0.128 A 
ATOM     15  N   UNL     1      -2.019  -4.641  -0.742  0.00  0.00    -0.201 NA
ATOM     16  C   UNL     1      -0.449  -0.849   0.188  0.00  0.00    +0.063 C 
ATOM     17  H   UNL     1      -0.471  -5.962  -2.253  0.00  0.00    +0.149 HD
ATOM     18  H   UNL     1       0.505  -2.779  -1.279  0.00  0.00    +0.168 HD
BRANCH   9  20
ATOM     19  C   UNL     1       1.766  -5.772  -3.425  0.00  0.00    +0.024 C 
ATOM     20  C   UNL     1       1.178  -4.659  -2.555  0.00  0.00    +0.101 C 
ENDBRANCH   9  20
ENDBRANCH   7  14
ENDBRANCH   1   7
BRANCH   4  21
ATOM     21  N   UNL     1      -5.665  -9.502  -0.367  0.00  0.00    -0.216 N 
ATOM     22  H   UNL     1      -5.195 -10.061  -1.006  0.00  0.00    +0.174 HD
BRANCH  21  23
ATOM     23  S   UNL     1      -6.974 -10.101   0.451  0.00  0.00    +0.072 S 
ATOM     24  O   UNL     1      -8.032  -9.171   0.262  0.00  0.00    -0.150 OA
ATOM     25  O   UNL     1      -7.089 -11.470   0.087  0.00  0.00    -0.150 OA
BRANCH  23  26
ATOM     26  C   UNL     1      -6.575 -10.069   2.167  0.00  0.00    +0.109 A 
ATOM     27  C   UNL     1      -5.862 -11.111   2.730  0.00  0.00    +0.031 A 
ATOM     28  C   UNL     1      -5.548 -11.086   4.076  0.00  0.00    +0.040 A 
ATOM     29  C   UNL     1      -5.948 -10.017   4.860  0.00  0.00    +0.124 A 
ATOM     30  C   UNL     1      -6.662  -8.974   4.295  0.00  0.00    +0.040 A 
ATOM     31  C   UNL     1      -6.970  -8.999   2.948  0.00  0.00    +0.031 A 
ATOM     32  F   UNL     1      -5.642  -9.992   6.176  0.00  0.00    -0.205 F 
ENDBRANCH  23  26
ENDBRANCH  21  23
ENDBRANCH   4  21
TORSDOF 6
