REMARK  Name = ZINC66900009
REMARK  3 active torsions:
REMARK  status: ('A' for Active; 'I' for Inactive)
REMARK    1  A    between atoms: C_3  and  C_11
REMARK    2  A    between atoms: N_16  and  C_17
REMARK    3  A    between atoms: C_17  and  C_18
REMARK                            x       y       z     vdW  Elec       q    Type
REMARK                         _______ _______ _______ _____ _____    ______ ____
ROOT
ATOM      1  C   UNL     1       3.670   2.195  -0.023  0.00  0.00    -0.033 C 
ATOM      2  C   UNL     1       4.208   2.329  -1.470  0.00  0.00    -0.012 C 
ATOM      3  C   UNL     1       5.088   3.602  -1.360  0.00  0.00    -0.020 C 
ATOM      4  C   UNL     1       4.302   4.482  -0.365  0.00  0.00    -0.077 C 
ATOM      5  N   UNL     1       3.437   3.584   0.426  0.00  0.00    +0.390 N 
ATOM      6  H   UNL     1       2.470   3.831   0.280  0.00  0.00    -0.080 HD
ENDROOT
BRANCH   1   9
ATOM      7  C   UNL     1      -0.009   1.363  -0.203  0.00  0.00    +0.004 A 
ATOM      8  C   UNL     1       1.177   2.073  -0.210  0.00  0.00    +0.006 A 
ATOM      9  C   UNL     1       2.378   1.418  -0.014  0.00  0.00    -0.016 A 
ATOM     10  C   UNL     1       2.397   0.046   0.190  0.00  0.00    +0.164 A 
ATOM     11  C   UNL     1       1.204  -0.667   0.199  0.00  0.00    +0.162 A 
ATOM     12  C   UNL     1       0.002  -0.004   0.001  0.00  0.00    +0.049 A 
ATOM     13  O   UNL     1       1.199  -2.013   0.406  0.00  0.00    -0.485 OA
ATOM     14  C   UNL     1       2.445  -2.696   0.229  0.00  0.00    +0.270 C 
ATOM     15  C   UNL     1       3.538  -1.896   0.952  0.00  0.00    +0.270 C 
ATOM     16  O   UNL     1       3.588  -0.586   0.377  0.00  0.00    -0.485 OA
ENDBRANCH   1   9
BRANCH   5  17
ATOM     17  C   UNL     1       3.767   3.704   1.852  0.00  0.00    +0.020 C 
BRANCH  17  18
ATOM     18  C   UNL     1       3.414   5.088   2.334  0.00  0.00    +0.204 C 
ATOM     19  O   UNL     1       2.934   5.894   1.566  0.00  0.00    -0.277 OA
ATOM     20  N   UNL     1       3.631   5.429   3.620  0.00  0.00    -0.242 N 
ATOM     21  C   UNL     1       3.314   6.666   4.052  0.00  0.00    +0.303 C 
ATOM     22  O   UNL     1       2.833   7.474   3.281  0.00  0.00    -0.253 OA
ATOM     23  N   UNL     1       3.531   7.007   5.337  0.00  0.00    -0.313 N 
ATOM     24  H   UNL     1       4.014   4.784   4.235  0.00  0.00    +0.159 HD
ATOM     25  H   UNL     1       3.915   6.362   5.952  0.00  0.00    +0.146 HD
ATOM     26  H   UNL     1       3.303   7.897   5.648  0.00  0.00    +0.146 HD
ENDBRANCH  17  18
ENDBRANCH   5  17
TORSDOF 3
