REMARK  Name = ZINC00755160
REMARK  9 active torsions:
REMARK  status: ('A' for Active; 'I' for Inactive)
REMARK    1  A    between atoms: C_1  and  C_2
REMARK    2  A    between atoms: C_2  and  C_3
REMARK    3  A    between atoms: C_2  and  C_4
REMARK    4  A    between atoms: C_2  and  N_55
REMARK    5  A    between atoms: C_5  and  C_6
REMARK    6  A    between atoms: C_5  and  N_55
REMARK    7  A    between atoms: N_8  and  C_9
REMARK    8  A    between atoms: N_20  and  C_21
REMARK    9  A    between atoms: C_21  and  C_22
REMARK                            x       y       z     vdW  Elec       q    Type
REMARK                         _______ _______ _______ _____ _____    ______ ____
ROOT
ATOM      1  C   UNL     1       4.303   1.362  -4.173  0.00  0.00    +0.049 A 
ATOM      2  C   UNL     1       5.683   1.263  -3.866  0.00  0.00    +0.020 A 
ATOM      3  C   UNL     1       6.652   1.195  -4.875  0.00  0.00    +0.012 A 
ATOM      4  C   UNL     1       7.970   1.106  -4.538  0.00  0.00    +0.001 A 
ATOM      5  C   UNL     1       8.364   1.083  -3.203  0.00  0.00    +0.002 A 
ATOM      6  C   UNL     1       7.446   1.146  -2.199  0.00  0.00    +0.026 A 
ATOM      7  C   UNL     1       6.078   1.236  -2.508  0.00  0.00    +0.050 A 
ATOM      8  C   UNL     1       3.861   1.385  -1.810  0.00  0.00    +0.105 A 
ATOM      9  C   UNL     1       3.414   1.425  -3.136  0.00  0.00    +0.014 A 
ATOM     10  C   UNL     1       1.904   1.550  -3.116  0.00  0.00    +0.059 C 
ATOM     11  C   UNL     1       1.619   1.985  -1.660  0.00  0.00    +0.111 C 
ATOM     12  N   UNL     1       2.785   1.450  -0.926  0.00  0.00    -0.312 N 
ATOM     13  N   UNL     1       5.181   1.295  -1.463  0.00  0.00    -0.343 N 
ATOM     14  H   UNL     1       5.486   1.272  -0.483  0.00  0.00    +0.167 HD
ENDROOT
BRANCH   1  17
ATOM     15  C   UNL     1       3.544   0.247  -6.125  0.00  0.00    +0.200 C 
ATOM     16  O   UNL     1       3.550  -0.802  -5.517  0.00  0.00    -0.278 OA
ATOM     17  N   UNL     1       3.864   1.394  -5.494  0.00  0.00    -0.286 N 
ATOM     18  H   UNL     1       3.789   2.241  -5.959  0.00  0.00    +0.155 HD
BRANCH  15  19
ATOM     19  C   UNL     1       3.178   0.269  -7.587  0.00  0.00    +0.016 C 
BRANCH  19  20
ATOM     20  N   UNL     1       2.874  -1.105  -8.029  0.00  0.00    +0.388 N 
ATOM     21  H   UNL     1       3.699  -1.698  -7.885  0.00  0.00    -0.084 HD
ATOM     22  H   UNL     1       2.088  -1.472  -7.479  0.00  0.00    -0.084 HD
BRANCH  20  24
ATOM     23  C   UNL     1       3.678  -0.574 -10.289  0.00  0.00    -0.011 C 
ATOM     24  C   UNL     1       2.511  -1.114  -9.459  0.00  0.00    -0.076 C 
ATOM     25  C   UNL     1       2.201  -2.549  -9.889  0.00  0.00    -0.011 C 
ATOM     26  C   UNL     1       1.278  -0.237  -9.683  0.00  0.00    -0.011 C 
ENDBRANCH  20  24
ENDBRANCH  19  20
ENDBRANCH  15  19
ENDBRANCH   1  17
BRANCH  12  27
ATOM     27  C   UNL     1       3.107   2.290   0.235  0.00  0.00    +0.141 C 
BRANCH  27  28
ATOM     28  C   UNL     1       3.197   3.731  -0.197  0.00  0.00    -0.030 A 
ATOM     29  C   UNL     1       2.070   4.531  -0.172  0.00  0.00    +0.005 A 
ATOM     30  C   UNL     1       2.152   5.853  -0.569  0.00  0.00    +0.000 A 
ATOM     31  C   UNL     1       3.361   6.375  -0.990  0.00  0.00    +0.000 A 
ATOM     32  C   UNL     1       4.488   5.574  -1.014  0.00  0.00    +0.000 A 
ATOM     33  C   UNL     1       4.406   4.253  -0.618  0.00  0.00    +0.005 A 
ENDBRANCH  27  28
ENDBRANCH  12  27
TORSDOF 6
