REMARK  Name = ZINC39695640
REMARK  7 active torsions:
REMARK  status: ('A' for Active; 'I' for Inactive)
REMARK    1  A    between atoms: C_1  and  C_2
REMARK    2  A    between atoms: C_2  and  N_3
REMARK    3  A    between atoms: C_7  and  C_9
REMARK    4  A    between atoms: C_9  and  N_10
REMARK    5  A    between atoms: C_11  and  C_13
REMARK    6  A    between atoms: C_24  and  C_26
REMARK    7  A    between atoms: C_29  and  C_31
REMARK                            x       y       z     vdW  Elec       q    Type
REMARK                         _______ _______ _______ _____ _____    ______ ____
ROOT
ATOM      1  C   UNL     1      -3.506  -1.252  -3.864  0.00  0.00    +0.100 C 
ATOM      2  C   UNL     1      -4.472  -1.803  -2.792  0.00  0.00    +0.121 C 
ATOM      3  N   UNL     1      -5.790  -1.855  -3.466  0.00  0.00    -0.294 N 
ATOM      4  C   UNL     1      -5.483  -2.316  -4.841  0.00  0.00    +0.115 C 
ATOM      5  C   UNL     1      -4.173  -1.591  -5.208  0.00  0.00    -0.004 C 
ATOM      6  C   UNL     1      -4.476  -0.314  -5.984  0.00  0.00    -0.010 C 
ATOM      7  C   UNL     1      -5.087  -0.679  -7.340  0.00  0.00    -0.082 C 
ATOM      8  N   UNL     1      -4.148  -1.521  -8.091  0.00  0.00    +0.379 N 
ATOM      9  C   UNL     1      -3.933  -2.788  -7.382  0.00  0.00    -0.082 C 
ATOM     10  C   UNL     1      -3.274  -2.512  -6.028  0.00  0.00    -0.010 C 
ATOM     11  C   UNL     1      -6.996  -1.551  -2.946  0.00  0.00    +0.282 C 
ATOM     12  O   UNL     1      -7.996  -1.645  -3.634  0.00  0.00    -0.267 OA
ATOM     13  H   UNL     1      -4.526  -1.710  -9.008  0.00  0.00    -0.086 HD
ATOM     14  H   UNL     1      -3.267  -1.037  -8.187  0.00  0.00    -0.086 HD
ENDROOT
BRANCH  11  15
ATOM     15  C   UNL     1      -7.103  -1.108  -1.554  0.00  0.00    +0.190 A 
ATOM     16  C   UNL     1      -8.268  -0.773  -0.899  0.00  0.00    +0.055 A 
ATOM     17  C   UNL     1      -7.909  -0.410   0.403  0.00  0.00    +0.050 A 
ATOM     18  C   UNL     1      -6.553  -0.535   0.495  0.00  0.00    +0.136 A 
ATOM     19  O   UNL     1      -6.079  -0.962  -0.687  0.00  0.00    -0.450 OA
BRANCH  18  20
ATOM     20  C   UNL     1      -5.742  -0.255   1.697  0.00  0.00    +0.017 A 
ATOM     21  C   UNL     1      -6.358   0.174   2.875  0.00  0.00    +0.011 A 
ATOM     22  C   UNL     1      -5.594   0.434   3.994  0.00  0.00    +0.001 A 
ATOM     23  C   UNL     1      -4.221   0.271   3.951  0.00  0.00    +0.000 A 
ATOM     24  C   UNL     1      -3.604  -0.154   2.788  0.00  0.00    +0.001 A 
ATOM     25  C   UNL     1      -4.356  -0.423   1.663  0.00  0.00    +0.011 A 
ENDBRANCH  18  20
ENDBRANCH  11  15
BRANCH   1  27
ATOM     26  N   UNL     1      -1.048  -1.277  -4.141  0.00  0.00    -0.317 N 
ATOM     27  C   UNL     1      -2.164  -1.930  -3.759  0.00  0.00    +0.218 C 
ATOM     28  O   UNL     1      -2.088  -3.062  -3.331  0.00  0.00    -0.275 OA
ATOM     29  H   UNL     1      -1.109  -0.372  -4.484  0.00  0.00    +0.149 HD
BRANCH  26  30
ATOM     30  C   UNL     1       0.257  -1.936  -4.040  0.00  0.00    +0.089 C 
BRANCH  30  35
ATOM     31  N   UNL     1       1.032  -0.525  -5.899  0.00  0.00    +0.382 N 
ATOM     32  C   UNL     1       2.112  -0.970  -6.807  0.00  0.00    -0.078 C 
ATOM     33  C   UNL     1       3.348  -1.155  -5.891  0.00  0.00    -0.020 C 
ATOM     34  C   UNL     1       2.700  -1.726  -4.602  0.00  0.00    -0.016 C 
ATOM     35  C   UNL     1       1.348  -0.985  -4.534  0.00  0.00    -0.051 C 
ATOM     36  H   UNL     1       0.155  -0.925  -6.197  0.00  0.00    -0.081 HD
BRANCH  31  38
ATOM     37  C   UNL     1       0.492   1.405  -7.306  0.00  0.00    -0.017 C 
ATOM     38  C   UNL     1       0.942   0.941  -5.919  0.00  0.00    -0.082 C 
ENDBRANCH  31  38
ENDBRANCH  30  35
ENDBRANCH  26  30
ENDBRANCH   1  27
TORSDOF 6
