REMARK  Name = ZINC33813818
REMARK  10 active torsions:
REMARK  status: ('A' for Active; 'I' for Inactive)
REMARK    1  A    between atoms: C_1  and  C_2
REMARK    2  A    between atoms: C_3  and  C_11
REMARK    3  A    between atoms: C_11  and  C_13
REMARK    4  A    between atoms: C_18  and  C_20
REMARK    5  A    between atoms: C_24  and  O_26
REMARK    6  A    between atoms: O_26  and  C_27
REMARK    7  A    between atoms: C_30  and  C_37
REMARK    8  A    between atoms: C_31  and  C_33
REMARK    9  A    between atoms: C_33  and  O_35
REMARK   10  A    between atoms: O_35  and  C_36
REMARK                            x       y       z     vdW  Elec       q    Type
REMARK                         _______ _______ _______ _____ _____    ______ ____
ROOT
ATOM      1  C   UNL     1       0.015   1.028  -2.931  0.00  0.00    +0.078 C 
ATOM      2  C   UNL     1      -0.246   1.662  -4.097  0.00  0.00    +0.250 C 
ATOM      3  C   UNL     1      -0.186   3.119  -3.882  0.00  0.00    +0.293 C 
ATOM      4  O   UNL     1      -0.374   3.959  -4.741  0.00  0.00    -0.266 OA
ATOM      5  N   UNL     1       0.109   3.384  -2.597  0.00  0.00    -0.232 N 
ATOM      6  C   UNL     1       0.253   2.102  -1.895  0.00  0.00    +0.152 C 
ATOM      7  C   UNL     1       0.247   4.639  -2.035  0.00  0.00    +0.169 A 
ATOM      8  N   UNL     1       0.117   5.815  -2.621  0.00  0.00    -0.229 NA
ATOM      9  C   UNL     1       0.277   6.932  -1.958  0.00  0.00    +0.062 A 
ATOM     10  C   UNL     1       0.590   6.808  -0.610  0.00  0.00    +0.120 A 
ATOM     11  S   UNL     1       0.614   5.031  -0.440  0.00  0.00    -0.045 S 
ATOM     12  C   UNL     1       0.131   8.277  -2.620  0.00  0.00    +0.067 C 
ATOM     13  O   UNL     1      -0.519   1.054  -5.276  0.00  0.00    -0.282 OA
ENDROOT
BRANCH   6  14
ATOM     14  C   UNL     1       1.644   1.978  -1.329  0.00  0.00    -0.019 A 
ATOM     15  C   UNL     1       2.734   2.375  -2.081  0.00  0.00    +0.006 A 
ATOM     16  C   UNL     1       4.011   2.262  -1.565  0.00  0.00    +0.004 A 
ATOM     17  C   UNL     1       4.202   1.750  -0.295  0.00  0.00    +0.045 A 
ATOM     18  C   UNL     1       3.110   1.351   0.461  0.00  0.00    +0.120 A 
ATOM     19  C   UNL     1       1.829   1.471  -0.057  0.00  0.00    +0.051 A 
BRANCH  18  20
ATOM     20  O   UNL     1       3.295   0.848   1.710  0.00  0.00    -0.495 OA
ATOM     21  C   UNL     1       4.641   0.758   2.181  0.00  0.00    +0.277 C 
ENDBRANCH  18  20
ENDBRANCH   6  14
BRANCH   1  22
ATOM     22  C   UNL     1       0.053  -0.423  -2.712  0.00  0.00    +0.213 C 
ATOM     23  O   UNL     1       1.096  -1.036  -2.865  0.00  0.00    -0.285 OA
BRANCH  22  26
ATOM     24  C   UNL     1      -2.749   0.890  -2.293  0.00  0.00    +0.068 C 
ATOM     25  C   UNL     1      -2.384  -0.562  -2.128  0.00  0.00    +0.068 A 
ATOM     26  C   UNL     1      -1.123  -1.112  -2.323  0.00  0.00    +0.116 A 
ATOM     27  N   UNL     1      -1.243  -2.465  -2.063  0.00  0.00    -0.296 N 
ATOM     28  C   UNL     1      -0.347  -3.487  -2.093  0.00  0.00    +0.093 A 
ATOM     29  C   UNL     1      -0.729  -4.749  -1.788  0.00  0.00    +0.018 A 
ATOM     30  C   UNL     1      -2.059  -5.014  -1.437  0.00  0.00    +0.005 A 
ATOM     31  C   UNL     1      -2.965  -3.994  -1.405  0.00  0.00    +0.047 A 
ATOM     32  C   UNL     1      -2.547  -2.691  -1.725  0.00  0.00    +0.138 A 
ATOM     33  N   UNL     1      -3.205  -1.532  -1.767  0.00  0.00    -0.232 NA
ENDBRANCH  22  26
ENDBRANCH   1  22
BRANCH  10  34
ATOM     34  C   UNL     1       0.829   7.845   0.392  0.00  0.00    +0.347 C 
ATOM     35  O   UNL     1       0.763   9.019   0.080  0.00  0.00    -0.244 OA
BRANCH  34  36
ATOM     36  O   UNL     1       1.123   7.501   1.663  0.00  0.00    -0.464 OA
ATOM     37  C   UNL     1       1.345   8.566   2.589  0.00  0.00    +0.280 C 
ENDBRANCH  34  36
ENDBRANCH  10  34
TORSDOF 6
