REMARK  Name = ZINC09720877
REMARK  9 active torsions:
REMARK  status: ('A' for Active; 'I' for Inactive)
REMARK    1  A    between atoms: C_1  and  C_2
REMARK    2  A    between atoms: C_5  and  C_30
REMARK    3  A    between atoms: C_6  and  N_8
REMARK    4  A    between atoms: C_9  and  C_11
REMARK    5  A    between atoms: C_11  and  N_12
REMARK    6  A    between atoms: N_12  and  C_13
REMARK    7  A    between atoms: N_12  and  S_20
REMARK    8  A    between atoms: C_13  and  C_14
REMARK    9  A    between atoms: S_20  and  C_23
REMARK                            x       y       z     vdW  Elec       q    Type
REMARK                         _______ _______ _______ _____ _____    ______ ____
ROOT
ATOM      1  N   UNL     1       1.193   4.154   1.188  0.00  0.00    -0.163 NA
ENDROOT
BRANCH   1   2
ATOM      2  S   UNL     1       1.316   3.576  -0.359  0.00  0.00    +0.062 S 
ATOM      3  O   UNL     1       2.567   4.025  -0.862  0.00  0.00    -0.153 OA
ATOM      4  O   UNL     1       0.085   3.875  -1.003  0.00  0.00    -0.153 OA
BRANCH   2   5
ATOM      5  C   UNL     1       1.416   1.820  -0.253  0.00  0.00    +0.106 A 
ATOM      6  C   UNL     1       0.260   1.066  -0.181  0.00  0.00    +0.029 A 
ATOM      7  C   UNL     1       0.337  -0.312  -0.098  0.00  0.00    +0.017 A 
ATOM      8  C   UNL     1       1.572  -0.935  -0.088  0.00  0.00    +0.018 A 
ATOM      9  C   UNL     1       2.729  -0.180  -0.160  0.00  0.00    +0.017 A 
ATOM     10  C   UNL     1       2.650   1.198  -0.243  0.00  0.00    +0.029 A 
ATOM     11 BR   UNL     1       1.679  -2.820   0.026  0.00  0.00    -0.050 Br
ENDBRANCH   2   5
ENDBRANCH   1   2
BRANCH   1  12
ATOM     12  C   UNL     1       2.398   4.555   1.918  0.00  0.00    +0.205 C 
BRANCH  12  14
ATOM     13  N   UNL     1       3.663   6.635   2.355  0.00  0.00    -0.284 N 
ATOM     14  C   UNL     1       2.608   6.039   1.764  0.00  0.00    +0.233 C 
ATOM     15  O   UNL     1       1.827   6.697   1.110  0.00  0.00    -0.274 OA
ATOM     16  H   UNL     1       4.242   6.125   2.943  0.00  0.00    +0.155 HD
BRANCH  13  22
ATOM     17  C   UNL     1       3.046  10.642  -0.427  0.00  0.00    +0.044 C 
ATOM     18  C   UNL     1       3.636   9.957   0.779  0.00  0.00    -0.049 A 
ATOM     19  C   UNL     1       4.437  10.669   1.654  0.00  0.00    +0.004 A 
ATOM     20  C   UNL     1       4.981  10.044   2.761  0.00  0.00    +0.005 A 
ATOM     21  C   UNL     1       4.727   8.707   2.996  0.00  0.00    -0.029 A 
ATOM     22  C   UNL     1       3.923   7.990   2.119  0.00  0.00    +0.037 A 
ATOM     23  C   UNL     1       3.381   8.619   1.006  0.00  0.00    +0.027 A 
ATOM     24  C   UNL     1       5.320   8.027   4.202  0.00  0.00    +0.045 C 
ENDBRANCH  13  22
ENDBRANCH  12  14
ENDBRANCH   1  12
BRANCH   1  25
ATOM     25  C   UNL     1      -0.121   4.263   1.827  0.00  0.00    +0.145 C 
BRANCH  25  26
ATOM     26  C   UNL     1      -0.655   5.660   1.640  0.00  0.00    -0.032 A 
ATOM     27  C   UNL     1      -0.475   6.608   2.630  0.00  0.00    +0.005 A 
ATOM     28  C   UNL     1      -0.961   7.890   2.456  0.00  0.00    +0.000 A 
ATOM     29  C   UNL     1      -1.636   8.222   1.297  0.00  0.00    +0.000 A 
ATOM     30  C   UNL     1      -1.822   7.273   0.309  0.00  0.00    +0.000 A 
ATOM     31  C   UNL     1      -1.331   5.992   0.481  0.00  0.00    +0.005 A 
ENDBRANCH  25  26
ENDBRANCH   1  25
TORSDOF 7
