REMARK  Name = ZINC22635802
REMARK  8 active torsions:
REMARK  status: ('A' for Active; 'I' for Inactive)
REMARK    1  A    between atoms: C_1  and  C_2
REMARK    2  A    between atoms: C_2  and  N_3
REMARK    3  A    between atoms: C_11  and  O_26
REMARK    4  A    between atoms: C_13  and  C_16
REMARK    5  A    between atoms: C_19  and  O_25
REMARK    6  A    between atoms: C_20  and  O_22
REMARK    7  A    between atoms: O_22  and  C_23
REMARK    8  A    between atoms: C_23  and  C_24
REMARK                            x       y       z     vdW  Elec       q    Type
REMARK                         _______ _______ _______ _____ _____    ______ ____
ROOT
ATOM      1  N   UNL     1       8.558  -2.737   0.277  0.00  0.00    +0.383 N 
ATOM      2  C   UNL     1       9.148  -1.922  -0.794  0.00  0.00    -0.074 C 
ATOM      3  C   UNL     1       8.133  -0.887  -1.287  0.00  0.00    +0.018 C 
ATOM      4  C   UNL     1       7.596  -0.132  -0.076  0.00  0.00    -0.027 A 
ATOM      5  C   UNL     1       7.748  -0.651   1.166  0.00  0.00    -0.021 A 
ATOM      6  S   UNL     1       6.995   0.532   2.249  0.00  0.00    -0.080 S 
ATOM      7  C   UNL     1       6.498   1.681   1.082  0.00  0.00    +0.080 A 
ATOM      8  C   UNL     1       6.910   1.144  -0.145  0.00  0.00    +0.067 A 
ATOM      9  C   UNL     1       6.599   1.926  -1.369  0.00  0.00    +0.220 C 
ATOM     10  N   UNL     1       5.798   2.949  -1.250  0.00  0.00    -0.223 NA
ATOM     11  C   UNL     1       5.106   3.325  -0.024  0.00  0.00    +0.224 C 
ATOM     12  N   UNL     1       5.844   2.886   1.175  0.00  0.00    -0.313 N 
ATOM     13  C   UNL     1       8.411  -1.946   1.514  0.00  0.00    -0.035 C 
ATOM     14  H   UNL     1       5.849   3.514   2.078  0.00  0.00    +0.149 HD
ATOM     15  H   UNL     1       7.558  -3.056  -0.050  0.00  0.00    -0.081 HD
ENDROOT
BRANCH  11  16
ATOM     16  C   UNL     1       3.738   2.693  -0.018  0.00  0.00    -0.002 A 
ATOM     17  C   UNL     1       3.121   2.396   1.183  0.00  0.00    +0.011 A 
ATOM     18  C   UNL     1       1.863   1.823   1.193  0.00  0.00    +0.049 A 
ATOM     19  C   UNL     1       1.224   1.533  -0.001  0.00  0.00    +0.158 A 
ATOM     20  C   UNL     1       1.845   1.831  -1.210  0.00  0.00    +0.162 A 
ATOM     21  C   UNL     1       3.103   2.412  -1.214  0.00  0.00    +0.056 A 
BRANCH  19  22
ATOM     22  O   UNL     1      -0.011   0.963   0.007  0.00  0.00    -0.503 OA
ATOM     23  H   UNL     1      -0.517   0.733  -0.942  0.00  0.00    +0.292 HD
ENDBRANCH  19  22
BRANCH  20  24
ATOM     24  O   UNL     1       1.219   1.555  -2.385  0.00  0.00    -0.489 OA
BRANCH  24  25
ATOM     25  C   UNL     1       1.917   1.889  -3.587  0.00  0.00    +0.226 C 
ATOM     26  C   UNL     1       1.062   1.506  -4.796  0.00  0.00    +0.048 C 
ENDBRANCH  24  25
ENDBRANCH  20  24
ENDBRANCH  11  16
BRANCH   1  28
ATOM     27  C   UNL     1      10.791  -3.550   0.869  0.00  0.00    -0.017 C 
ATOM     28  C   UNL     1       9.356  -3.947   0.518  0.00  0.00    -0.082 C 
ENDBRANCH   1  28
BRANCH   9  29
ATOM     29  O   UNL     1       7.128   1.587  -2.568  0.00  0.00    -0.492 OA
ATOM     30  H   UNL     1       6.885   2.179  -3.463  0.00  0.00    +0.294 HD
ENDBRANCH   9  29
TORSDOF 6
