REMARK  Name = ZINC06301093
REMARK  7 active torsions:
REMARK  status: ('A' for Active; 'I' for Inactive)
REMARK    1  A    between atoms: C_1  and  C_2
REMARK    2  A    between atoms: C_4  and  C_38
REMARK    3  A    between atoms: C_9  and  C_14
REMARK    4  A    between atoms: C_14  and  C_16
REMARK    5  A    between atoms: C_14  and  N_74
REMARK    6  A    between atoms: N_20  and  C_21
REMARK    7  A    between atoms: C_21  and  C_22
REMARK                            x       y       z     vdW  Elec       q    Type
REMARK                         _______ _______ _______ _____ _____    ______ ____
ROOT
ATOM      1  C   UNL     1       0.002  -0.004   0.002  0.00  0.00    +0.039 C 
ENDROOT
BRANCH   1  10
ATOM      2  C   UNL     1      -5.315  -3.683   3.719  0.00  0.00    +0.044 C 
ATOM      3  C   UNL     1      -4.855  -2.897   2.518  0.00  0.00    -0.050 A 
ATOM      4  C   UNL     1      -5.744  -2.635   1.484  0.00  0.00    +0.008 A 
ATOM      5  C   UNL     1      -5.345  -1.919   0.377  0.00  0.00    -0.026 A 
ATOM      6  C   UNL     1      -4.037  -1.453   0.291  0.00  0.00    +0.052 A 
ATOM      7  C   UNL     1      -3.138  -1.720   1.341  0.00  0.00    -0.001 A 
ATOM      8  C   UNL     1      -3.566  -2.449   2.456  0.00  0.00    +0.013 A 
ATOM      9  C   UNL     1      -1.762  -1.231   1.239  0.00  0.00    +0.017 A 
ATOM     10  C   UNL     1      -1.405  -0.526   0.137  0.00  0.00    +0.011 A 
ATOM     11  C   UNL     1      -2.345  -0.285  -0.888  0.00  0.00    +0.251 A 
ATOM     12  O   UNL     1      -2.003   0.347  -1.872  0.00  0.00    -0.268 OA
ATOM     13  N   UNL     1      -3.610  -0.735  -0.805  0.00  0.00    -0.322 N 
ATOM     14  H   UNL     1      -4.231  -0.551  -1.527  0.00  0.00    +0.169 HD
ATOM     15  C   UNL     1      -6.321  -1.641  -0.737  0.00  0.00    +0.046 C 
ENDBRANCH   1  10
BRANCH   1  26
ATOM     16  C   UNL     1      -0.797   2.070   0.962  0.00  0.00    -0.077 C 
ATOM     17  C   UNL     1      -0.931   3.574   0.714  0.00  0.00    -0.018 C 
ATOM     18  C   UNL     1       0.464   4.199   0.634  0.00  0.00    +0.003 C 
ATOM     19  C   UNL     1       1.260   3.512  -0.479  0.00  0.00    -0.044 C 
ATOM     20  C   UNL     1       1.331   2.010  -0.197  0.00  0.00    -0.071 C 
ATOM     21  C   UNL     1       0.565   3.748  -1.821  0.00  0.00    +0.005 C 
ATOM     22  C   UNL     1       1.359   3.064  -2.935  0.00  0.00    +0.000 C 
ATOM     23  C   UNL     1       2.774   3.645  -2.983  0.00  0.00    +0.000 C 
ATOM     24  C   UNL     1       3.469   3.407  -1.641  0.00  0.00    +0.000 C 
ATOM     25  C   UNL     1       2.674   4.091  -0.527  0.00  0.00    +0.005 C 
ATOM     26  N   UNL     1      -0.043   1.464  -0.156  0.00  0.00    +0.390 N 
ATOM     27  H   UNL     1      -0.517   1.690  -1.038  0.00  0.00    -0.080 HD
ENDBRANCH   1  26
BRANCH   1  28
ATOM     28  C   UNL     1       0.797  -0.381   1.226  0.00  0.00    +0.143 A 
ATOM     29  N   UNL     1       0.716   0.171   2.412  0.00  0.00    -0.115 NA
ATOM     30  N   UNL     1       1.552  -0.429   3.188  0.00  0.00    -0.023 NA
ATOM     31  N   UNL     1       2.169  -1.344   2.525  0.00  0.00    -0.044 NA
ATOM     32  N   UNL     1       1.732  -1.345   1.311  0.00  0.00    -0.228 N 
BRANCH  32  33
ATOM     33  C   UNL     1       2.170  -2.231   0.229  0.00  0.00    +0.178 C 
BRANCH  33  34
ATOM     34  C   UNL     1       3.340  -1.585  -0.516  0.00  0.00    +0.140 C 
ATOM     35  C   UNL     1       3.734  -2.456  -1.728  0.00  0.00    +0.035 C 
ATOM     36  C   UNL     1       5.284  -2.359  -1.714  0.00  0.00    +0.031 C 
ATOM     37  C   UNL     1       5.560  -2.283  -0.191  0.00  0.00    +0.160 C 
ATOM     38  O   UNL     1       4.480  -1.504   0.347  0.00  0.00    -0.375 OA
ENDBRANCH  33  34
ENDBRANCH  32  33
ENDBRANCH   1  28
TORSDOF 5
