REMARK  Name = ZINC16954273
REMARK  8 active torsions:
REMARK  status: ('A' for Active; 'I' for Inactive)
REMARK    1  A    between atoms: C_1  and  C_2
REMARK    2  A    between atoms: C_2  and  C_28
REMARK    3  A    between atoms: N_7  and  C_8
REMARK    4  A    between atoms: C_11  and  O_14
REMARK    5  A    between atoms: O_14  and  C_15
REMARK    6  A    between atoms: C_15  and  C_16
REMARK    7  A    between atoms: N_18  and  C_19
REMARK    8  A    between atoms: N_18  and  C_20
REMARK                            x       y       z     vdW  Elec       q    Type
REMARK                         _______ _______ _______ _____ _____    ______ ____
ROOT
ATOM      1  C   UNL     1      -2.499  -0.185  -0.892  0.00  0.00    +0.039 A 
ATOM      2  C   UNL     1      -3.625  -0.988  -0.768  0.00  0.00    +0.027 A 
ATOM      3  C   UNL     1      -3.591  -2.297  -1.205  0.00  0.00    +0.047 A 
ATOM      4  C   UNL     1      -2.429  -2.814  -1.759  0.00  0.00    +0.121 A 
ATOM      5  C   UNL     1      -1.301  -2.014  -1.878  0.00  0.00    +0.047 A 
ATOM      6  C   UNL     1      -1.336  -0.703  -1.446  0.00  0.00    +0.027 A 
ENDROOT
BRANCH   1  13
ATOM      7  C   UNL     1      -3.587   1.690  -2.603  0.00  0.00    +0.056 C 
ATOM      8  C   UNL     1      -3.314   2.164  -1.174  0.00  0.00    +0.109 C 
ATOM      9  N   UNL     1      -2.533   3.406  -1.205  0.00  0.00    -0.337 N 
ATOM     10  C   UNL     1      -1.660   3.660  -0.268  0.00  0.00    +0.191 C 
ATOM     11  N   UNL     1      -1.413   2.793   0.729  0.00  0.00    -0.187 NA
ATOM     12  C   UNL     1      -1.842   1.546   0.664  0.00  0.00    +0.189 C 
ATOM     13  N   UNL     1      -2.534   1.145  -0.454  0.00  0.00    -0.250 N 
ATOM     14  N   UNL     1      -1.607   0.672   1.690  0.00  0.00    -0.331 N 
ATOM     15  N   UNL     1      -0.974   4.857  -0.299  0.00  0.00    -0.329 N 
ATOM     16  C   UNL     1      -4.640   2.405  -0.449  0.00  0.00    +0.056 C 
ATOM     17  H   UNL     1      -1.969  -0.364   1.624  0.00  0.00    +0.145 HD
ATOM     18  H   UNL     1      -1.055   1.007   2.581  0.00  0.00    +0.145 HD
ATOM     19  H   UNL     1      -0.234   5.088   0.482  0.00  0.00    +0.145 HD
ATOM     20  H   UNL     1      -1.166   5.580  -1.106  0.00  0.00    +0.145 HD
ATOM     21  H   UNL     1      -2.686   4.124  -2.024  0.00  0.00    +0.164 HD
ENDBRANCH   1  13
BRANCH   4  22
ATOM     22  O   UNL     1      -2.394  -4.105  -2.184  0.00  0.00    -0.483 OA
BRANCH  22  23
ATOM     23  C   UNL     1      -3.591  -4.870  -2.031  0.00  0.00    +0.325 C 
BRANCH  23  24
ATOM     24  C   UNL     1      -3.365  -6.266  -2.553  0.00  0.00    +0.257 C 
ATOM     25  O   UNL     1      -2.285  -6.574  -3.011  0.00  0.00    -0.272 OA
ATOM     26  N   UNL     1      -4.362  -7.171  -2.511  0.00  0.00    -0.272 N 
ATOM     27  C   UNL     1      -5.698  -6.769  -2.064  0.00  0.00    +0.138 C 
BRANCH  26  28
ATOM     28  C   UNL     1      -4.122  -8.495  -2.894  0.00  0.00    +0.036 A 
ATOM     29  C   UNL     1      -4.733  -9.012  -4.029  0.00  0.00    +0.023 A 
ATOM     30  C   UNL     1      -4.489 -10.318  -4.408  0.00  0.00    +0.002 A 
ATOM     31  C   UNL     1      -3.647 -11.113  -3.653  0.00  0.00    +0.000 A 
ATOM     32  C   UNL     1      -3.043 -10.603  -2.519  0.00  0.00    +0.002 A 
ATOM     33  C   UNL     1      -3.278  -9.296  -2.138  0.00  0.00    +0.023 A 
ENDBRANCH  26  28
ENDBRANCH  23  24
ENDBRANCH  22  23
ENDBRANCH   4  22
TORSDOF 5
