REMARK  Name = ZINC35424312
REMARK  11 active torsions:
REMARK  status: ('A' for Active; 'I' for Inactive)
REMARK    1  A    between atoms: C_1  and  C_2
REMARK    2  A    between atoms: C_2  and  C_3
REMARK    3  A    between atoms: C_2  and  C_4
REMARK    4  A    between atoms: C_7  and  C_10
REMARK    5  A    between atoms: C_13  and  N_36
REMARK    6  A    between atoms: C_19  and  C_32
REMARK    7  A    between atoms: C_32  and  O_34
REMARK    8  A    between atoms: O_34  and  C_35
REMARK    9  A    between atoms: N_36  and  C_37
REMARK   10  A    between atoms: C_37  and  C_38
REMARK   11  A    between atoms: C_38  and  O_39
REMARK                            x       y       z     vdW  Elec       q    Type
REMARK                         _______ _______ _______ _____ _____    ______ ____
ROOT
ATOM      1  C   UNL     1      -5.913  -2.369  -0.228  0.00  0.00    +0.087 C 
ATOM      2  C   UNL     1      -6.144  -3.871  -0.041  0.00  0.00    +0.008 C 
ATOM      3  C   UNL     1      -7.593  -4.213  -0.393  0.00  0.00    -0.068 C 
ATOM      4  C   UNL     1      -7.887  -3.766  -1.828  0.00  0.00    +0.009 C 
ATOM      5  C   UNL     1      -7.612  -2.266  -1.949  0.00  0.00    +0.103 C 
ATOM      6  N   UNL     1      -6.203  -2.003  -1.620  0.00  0.00    -0.274 NA
ATOM      7  C   UNL     1      -5.827  -0.615  -1.907  0.00  0.00    +0.172 C 
ATOM      8  C   UNL     1      -5.776  -0.403  -3.427  0.00  0.00    +0.068 C 
ATOM      9  C   UNL     1      -7.042  -0.966  -4.024  0.00  0.00    -0.016 A 
ATOM     10  C   UNL     1      -7.879  -1.806  -3.360  0.00  0.00    +0.038 A 
ATOM     11  N   UNL     1      -8.939  -2.141  -4.157  0.00  0.00    -0.356 N 
ATOM     12  H   UNL     1      -9.664  -2.734  -3.902  0.00  0.00    +0.166 HD
ATOM     13  C   UNL     1      -8.824  -1.516  -5.366  0.00  0.00    +0.047 A 
ATOM     14  C   UNL     1      -7.611  -0.749  -5.335  0.00  0.00    +0.003 A 
ATOM     15  C   UNL     1      -7.205   0.015  -6.433  0.00  0.00    +0.010 A 
ATOM     16  C   UNL     1      -8.013  -0.016  -7.544  0.00  0.00    +0.001 A 
ATOM     17  C   UNL     1      -9.177  -0.764  -7.587  0.00  0.00    +0.002 A 
ATOM     18  C   UNL     1      -9.630  -1.526  -6.502  0.00  0.00    +0.026 A 
ENDROOT
BRANCH   1  22
ATOM     19  C   UNL     1      -1.845  -1.429   0.675  0.00  0.00    -0.045 A 
ATOM     20  C   UNL     1      -2.834  -1.193   1.612  0.00  0.00    +0.004 A 
ATOM     21  C   UNL     1      -4.150  -1.497   1.320  0.00  0.00    +0.005 A 
ATOM     22  C   UNL     1      -4.478  -2.037   0.090  0.00  0.00    -0.030 A 
ATOM     23  C   UNL     1      -3.490  -2.272  -0.847  0.00  0.00    +0.005 A 
ATOM     24  C   UNL     1      -2.174  -1.964  -0.556  0.00  0.00    +0.004 A 
BRANCH  19  26
ATOM     25  C   UNL     1      -0.287   0.397   1.300  0.00  0.00    +0.012 C 
ATOM     26  C   UNL     1      -0.410  -1.098   0.995  0.00  0.00    +0.013 C 
ATOM     27  C   UNL     1       0.042  -1.906   2.212  0.00  0.00    +0.012 C 
ENDBRANCH  19  26
ENDBRANCH   1  22
BRANCH   3  28
ATOM     28  N   UNL     1      -7.796  -5.663  -0.279  0.00  0.00    +0.382 N 
ATOM     29  H   UNL     1      -8.727  -5.898  -0.590  0.00  0.00    -0.085 HD
ATOM     30  H   UNL     1      -7.119  -6.144  -0.853  0.00  0.00    -0.085 HD
BRANCH  28  31
ATOM     31  C   UNL     1      -7.629  -6.074   1.121  0.00  0.00    -0.054 C 
BRANCH  31  32
ATOM     32  C   UNL     1      -7.841  -7.584   1.239  0.00  0.00    +0.137 C 
BRANCH  32  33
ATOM     33  O   UNL     1      -6.811  -8.267   0.520  0.00  0.00    -0.397 OA
ATOM     34  H   UNL     1      -6.882  -9.230   0.552  0.00  0.00    +0.209 HD
ENDBRANCH  32  33
ENDBRANCH  31  32
ENDBRANCH  28  31
ENDBRANCH   3  28
BRANCH   7  35
ATOM     35  C   UNL     1      -6.847   0.317  -1.304  0.00  0.00    +0.325 C 
ATOM     36  O   UNL     1      -7.674  -0.110  -0.533  0.00  0.00    -0.249 OA
BRANCH  35  37
ATOM     37  O   UNL     1      -6.836   1.621  -1.623  0.00  0.00    -0.467 OA
ATOM     38  C   UNL     1      -7.832   2.446  -1.014  0.00  0.00    +0.280 C 
ENDBRANCH  35  37
ENDBRANCH   7  35
TORSDOF 8
