REMARK  Name = ZINC62486030
REMARK  10 active torsions:
REMARK  status: ('A' for Active; 'I' for Inactive)
REMARK    1  A    between atoms: C_1  and  N_2
REMARK    2  A    between atoms: N_2  and  C_3
REMARK    3  A    between atoms: N_2  and  C_4
REMARK    4  A    between atoms: C_4  and  C_5
REMARK    5  A    between atoms: C_5  and  N_6
REMARK    6  A    between atoms: N_6  and  C_7
REMARK    7  A    between atoms: C_7  and  C_8
REMARK    8  A    between atoms: N_18  and  C_19
REMARK    9  A    between atoms: C_19  and  C_20
REMARK   10  A    between atoms: C_24  and  C_26
REMARK                            x       y       z     vdW  Elec       q    Type
REMARK                         _______ _______ _______ _____ _____    ______ ____
ROOT
ATOM      1  N   UNL     1       2.845  -0.526  -2.362  0.00  0.00    -0.283 N 
ATOM      2  C   UNL     1       3.429  -1.740  -2.373  0.00  0.00    +0.303 C 
ATOM      3  O   UNL     1       3.999  -2.132  -3.373  0.00  0.00    -0.253 OA
ATOM      4  N   UNL     1       3.384  -2.519  -1.274  0.00  0.00    -0.295 N 
ATOM      5  H   UNL     1       2.930  -2.207  -0.476  0.00  0.00    +0.151 HD
ENDROOT
BRANCH   1   6
ATOM      6  C   UNL     1       2.159  -0.053  -1.157  0.00  0.00    +0.091 C 
BRANCH   6   7
ATOM      7  C   UNL     1       0.690  -0.478  -1.207  0.00  0.00    -0.060 C 
BRANCH   7   9
ATOM      8  C   UNL     1      -0.018   1.465   0.010  0.00  0.00    -0.097 C 
ATOM      9  N   UNL     1       0.002  -0.004   0.002  0.00  0.00    +0.377 N 
ATOM     10  C   UNL     1      -1.376  -0.512   0.012  0.00  0.00    -0.097 C 
ATOM     11  H   UNL     1       0.490  -0.338   0.820  0.00  0.00    -0.083 HD
ENDBRANCH   7   9
ENDBRANCH   6   7
ENDBRANCH   1   6
BRANCH   1  12
ATOM     12  C   UNL     1       2.894   0.321  -3.557  0.00  0.00    +0.144 C 
BRANCH  12  13
ATOM     13  C   UNL     1       4.123   1.192  -3.504  0.00  0.00    -0.027 A 
ATOM     14  C   UNL     1       4.064   2.435  -2.900  0.00  0.00    +0.008 A 
ATOM     15  C   UNL     1       5.190   3.235  -2.851  0.00  0.00    +0.041 A 
ATOM     16  C   UNL     1       6.378   2.792  -3.405  0.00  0.00    +0.158 A 
ATOM     17  C   UNL     1       6.438   1.546  -4.010  0.00  0.00    +0.159 A 
ATOM     18  C   UNL     1       5.310   0.745  -4.054  0.00  0.00    +0.046 A 
ATOM     19  F   UNL     1       7.597   1.112  -4.552  0.00  0.00    -0.202 F 
ATOM     20  F   UNL     1       7.479   3.574  -3.358  0.00  0.00    -0.202 F 
ENDBRANCH  12  13
ENDBRANCH   1  12
BRANCH   4  21
ATOM     21  C   UNL     1       4.020  -3.839  -1.285  0.00  0.00    +0.141 C 
BRANCH  21  22
ATOM     22  C   UNL     1       3.826  -4.502   0.054  0.00  0.00    -0.030 A 
ATOM     23  C   UNL     1       4.757  -4.311   1.060  0.00  0.00    +0.005 A 
ATOM     24  C   UNL     1       4.587  -4.915   2.293  0.00  0.00    +0.001 A 
ATOM     25  C   UNL     1       3.486  -5.713   2.527  0.00  0.00    +0.013 A 
ATOM     26  C   UNL     1       2.543  -5.909   1.517  0.00  0.00    +0.037 A 
ATOM     27  C   UNL     1       2.718  -5.292   0.277  0.00  0.00    +0.018 A 
BRANCH  26  28
ATOM     28  C   UNL     1       1.361  -6.763   1.761  0.00  0.00    +0.242 C 
ATOM     29  O   UNL     1       0.541  -6.932   0.880  0.00  0.00    -0.270 OA
ATOM     30  N   UNL     1       1.192  -7.354   2.961  0.00  0.00    -0.325 N 
ATOM     31  H   UNL     1       1.846  -7.218   3.664  0.00  0.00    +0.145 HD
ATOM     32  H   UNL     1       0.416  -7.914   3.121  0.00  0.00    +0.145 HD
ENDBRANCH  26  28
ENDBRANCH  21  22
ENDBRANCH   4  21
TORSDOF 8
