REMARK  Name = ZINC59042228
REMARK  8 active torsions:
REMARK  status: ('A' for Active; 'I' for Inactive)
REMARK    1  A    between atoms: C_1  and  C_2
REMARK    2  A    between atoms: C_2  and  N_3
REMARK    3  A    between atoms: N_3  and  C_4
REMARK    4  A    between atoms: C_4  and  C_5
REMARK    5  A    between atoms: C_9  and  N_12
REMARK    6  A    between atoms: N_18  and  S_21
REMARK    7  A    between atoms: S_21  and  C_24
REMARK    8  A    between atoms: C_27  and  C_29
REMARK                            x       y       z     vdW  Elec       q    Type
REMARK                         _______ _______ _______ _____ _____    ______ ____
ROOT
ATOM      1  N   UNL     1       6.154  -1.423   1.069  0.00  0.00    -0.268 N 
ATOM      2  C   UNL     1       6.777  -1.717   2.228  0.00  0.00    +0.307 C 
ATOM      3  O   UNL     1       6.128  -1.869   3.245  0.00  0.00    -0.252 OA
ATOM      4  N   UNL     1       8.118  -1.843   2.258  0.00  0.00    -0.283 N 
ATOM      5  C   UNL     1       8.930  -1.484   1.087  0.00  0.00    +0.126 C 
ATOM      6  C   UNL     1       9.983  -0.455   1.516  0.00  0.00    +0.128 C 
ATOM      7  N   UNL     1      10.660  -0.952   2.722  0.00  0.00    -0.171 NA
ATOM      8  C   UNL     1       9.849  -1.310   3.894  0.00  0.00    +0.128 C 
ATOM      9  C   UNL     1       8.796  -2.334   3.466  0.00  0.00    +0.126 C 
ATOM     10  H   UNL     1       6.652  -1.425   0.237  0.00  0.00    +0.156 HD
ENDROOT
BRANCH   1  15
ATOM     11  N   UNL     1       0.754  -0.289   1.179  0.00  0.00    -0.317 N 
ATOM     12  C   UNL     1       2.118  -0.562   1.132  0.00  0.00    +0.099 A 
ATOM     13  C   UNL     1       2.887  -0.049   0.092  0.00  0.00    +0.043 A 
ATOM     14  C   UNL     1       4.241  -0.327   0.055  0.00  0.00    +0.028 A 
ATOM     15  C   UNL     1       4.785  -1.116   1.067  0.00  0.00    +0.051 A 
ATOM     16  C   UNL     1       3.958  -1.593   2.071  0.00  0.00    +0.107 A 
ATOM     17  N   UNL     1       2.670  -1.304   2.079  0.00  0.00    -0.348 N 
ATOM     18  H   UNL     1       2.113  -1.646   2.796  0.00  0.00    +0.167 HD
BRANCH  11  20
ATOM     19  C   UNL     1       0.184   2.004   0.546  0.00  0.00    +0.024 C 
ATOM     20  C   UNL     1       0.135   0.531   0.135  0.00  0.00    +0.103 C 
ENDBRANCH  11  20
BRANCH  11  21
ATOM     21  C   UNL     1      -0.062  -0.820   2.273  0.00  0.00    +0.103 C 
ATOM     22  C   UNL     1      -0.612  -2.193   1.880  0.00  0.00    +0.024 C 
ENDBRANCH  11  21
ENDBRANCH   1  15
BRANCH   7  23
ATOM     23  S   UNL     1      12.309  -1.106   2.760  0.00  0.00    +0.094 S 
ATOM     24  O   UNL     1      12.603  -2.081   3.751  0.00  0.00    -0.150 OA
ATOM     25  O   UNL     1      12.735  -1.239   1.411  0.00  0.00    -0.150 OA
BRANCH  23  26
ATOM     26  C   UNL     1      12.961   0.422   3.346  0.00  0.00    +0.259 A 
ATOM     27  C   UNL     1      13.200   0.731   4.639  0.00  0.00    +0.072 A 
ATOM     28  C   UNL     1      13.715   2.037   4.664  0.00  0.00    +0.057 A 
ATOM     29  C   UNL     1      13.766   2.463   3.368  0.00  0.00    +0.191 A 
ATOM     30  O   UNL     1      13.309   1.466   2.582  0.00  0.00    -0.432 OA
BRANCH  29  31
ATOM     31  C   UNL     1      14.239   3.773   2.909  0.00  0.00    +0.277 C 
ATOM     32  O   UNL     1      14.634   4.594   3.716  0.00  0.00    -0.267 OA
ATOM     33  N   UNL     1      14.237   4.068   1.594  0.00  0.00    -0.323 N 
ATOM     34  H   UNL     1      13.922   3.414   0.951  0.00  0.00    +0.145 HD
ATOM     35  H   UNL     1      14.550   4.935   1.291  0.00  0.00    +0.145 HD
ENDBRANCH  29  31
ENDBRANCH  23  26
ENDBRANCH   7  23
TORSDOF 6
