REMARK  Name = ZINC36524365
REMARK  9 active torsions:
REMARK  status: ('A' for Active; 'I' for Inactive)
REMARK    1  A    between atoms: C_1  and  C_2
REMARK    2  A    between atoms: C_5  and  S_8
REMARK    3  A    between atoms: S_8  and  C_11
REMARK    4  A    between atoms: C_11  and  N_12
REMARK    5  A    between atoms: C_13  and  C_15
REMARK    6  A    between atoms: C_15  and  C_17
REMARK    7  A    between atoms: C_15  and  N_25
REMARK    8  A    between atoms: N_25  and  C_26
REMARK    9  A    between atoms: C_27  and  C_29
REMARK                            x       y       z     vdW  Elec       q    Type
REMARK                         _______ _______ _______ _____ _____    ______ ____
ROOT
ATOM      1  C   UNL     1       3.878  -4.430   4.008  0.00  0.00    +0.195 C 
ENDROOT
BRANCH   1   2
ATOM      2  C   UNL     1       5.038  -3.501   4.263  0.00  0.00    +0.018 A 
ATOM      3  C   UNL     1       5.443  -3.240   5.560  0.00  0.00    +0.048 A 
ATOM      4  C   UNL     1       6.507  -2.388   5.793  0.00  0.00    +0.020 A 
ATOM      5  C   UNL     1       7.165  -1.796   4.731  0.00  0.00    +0.003 A 
ATOM      6  C   UNL     1       6.761  -2.057   3.435  0.00  0.00    +0.020 A 
ATOM      7  C   UNL     1       5.700  -2.914   3.200  0.00  0.00    +0.048 A 
ATOM      8 CL   UNL     1       5.198  -3.247   1.572  0.00  0.00    -0.083 Cl
ATOM      9 CL   UNL     1       4.616  -3.982   6.894  0.00  0.00    -0.083 Cl
ENDBRANCH   1   2
BRANCH   1  11
ATOM     10  N   UNL     1       3.193  -4.336   1.633  0.00  0.00    -0.294 N 
ATOM     11  C   UNL     1       3.937  -4.929   2.587  0.00  0.00    +0.239 C 
ATOM     12  O   UNL     1       4.655  -5.864   2.303  0.00  0.00    -0.273 OA
ATOM     13  H   UNL     1       2.552  -3.649   1.875  0.00  0.00    +0.150 HD
BRANCH  10  14
ATOM     14  C   UNL     1       3.351  -4.729   0.231  0.00  0.00    +0.278 C 
BRANCH  14  15
ATOM     15  S   UNL     1       2.110  -5.984  -0.189  0.00  0.00    +0.013 S 
ATOM     16  O   UNL     1       2.075  -6.992   0.811  0.00  0.00    -0.168 OA
ATOM     17  O   UNL     1       2.209  -6.330  -1.564  0.00  0.00    -0.168 OA
BRANCH  15  22
ATOM     18  C   UNL     1      -3.193  -3.148   0.304  0.00  0.00    +0.044 C 
ATOM     19  C   UNL     1      -1.869  -3.856   0.181  0.00  0.00    -0.050 A 
ATOM     20  C   UNL     1      -1.196  -3.859  -1.027  0.00  0.00    +0.005 A 
ATOM     21  C   UNL     1       0.019  -4.508  -1.140  0.00  0.00    +0.027 A 
ATOM     22  C   UNL     1       0.561  -5.155  -0.045  0.00  0.00    +0.090 A 
ATOM     23  C   UNL     1      -0.111  -5.151   1.163  0.00  0.00    +0.027 A 
ATOM     24  C   UNL     1      -1.324  -4.498   1.277  0.00  0.00    +0.005 A 
ENDBRANCH  15  22
ENDBRANCH  14  15
ENDBRANCH  10  14
ENDBRANCH   1  11
BRANCH   1  25
ATOM     25  N   UNL     1       3.952  -5.567   4.929  0.00  0.00    -0.289 N 
ATOM     26  C   UNL     1       5.173  -6.372   5.002  0.00  0.00    +0.133 C 
ATOM     27  C   UNL     1       2.896  -5.872   5.708  0.00  0.00    +0.219 C 
ATOM     28  O   UNL     1       1.842  -5.290   5.557  0.00  0.00    -0.275 OA
BRANCH  27  29
ATOM     29  C   UNL     1       3.024  -6.936   6.768  0.00  0.00    +0.075 C 
ATOM     30  C   UNL     1       2.570  -8.281   6.197  0.00  0.00    +0.013 C 
ATOM     31  C   UNL     1       2.700  -9.361   7.273  0.00  0.00    +0.001 C 
ATOM     32  C   UNL     1       1.824  -8.995   8.472  0.00  0.00    +0.000 C 
ATOM     33  C   UNL     1       2.277  -7.650   9.043  0.00  0.00    +0.001 C 
ATOM     34  C   UNL     1       2.147  -6.569   7.967  0.00  0.00    +0.013 C 
ENDBRANCH  27  29
ENDBRANCH   1  25
TORSDOF 7
