REMARK  Name = ZINC39674716
REMARK  11 active torsions:
REMARK  status: ('A' for Active; 'I' for Inactive)
REMARK    1  A    between atoms: C_1  and  C_2
REMARK    2  A    between atoms: C_2  and  C_3
REMARK    3  A    between atoms: C_3  and  C_4
REMARK    4  A    between atoms: C_3  and  C_6
REMARK    5  A    between atoms: C_4  and  C_5
REMARK    6  A    between atoms: C_10  and  C_19
REMARK    7  A    between atoms: N_21  and  C_22
REMARK    8  A    between atoms: C_22  and  C_23
REMARK    9  A    between atoms: C_23  and  C_24
REMARK   10  A    between atoms: C_27  and  C_35
REMARK   11  A    between atoms: C_32  and  C_34
REMARK                            x       y       z     vdW  Elec       q    Type
REMARK                         _______ _______ _______ _____ _____    ______ ____
ROOT
ATOM      1  C   UNL     1      -1.264  -1.990   0.128  0.00  0.00    +0.219 C 
ATOM      2  O   UNL     1      -0.194  -2.515   0.349  0.00  0.00    -0.275 OA
ATOM      3  N   UNL     1      -2.383  -2.739   0.070  0.00  0.00    -0.300 N 
ATOM      4  C   UNL     1      -3.780  -2.273  -0.094  0.00  0.00    +0.121 C 
ATOM      5  C   UNL     1      -4.428  -3.307  -1.041  0.00  0.00    +0.100 C 
ATOM      6  C   UNL     1      -3.581  -4.580  -0.872  0.00  0.00    -0.004 C 
ATOM      7  C   UNL     1      -2.494  -4.215   0.150  0.00  0.00    +0.115 C 
ATOM      8  C   UNL     1      -4.443  -5.722  -0.342  0.00  0.00    -0.010 C 
ATOM      9  C   UNL     1      -3.592  -6.991  -0.237  0.00  0.00    -0.082 C 
ATOM     10  N   UNL     1      -3.052  -7.331  -1.559  0.00  0.00    +0.379 N 
ATOM     11  C   UNL     1      -2.150  -6.268  -2.020  0.00  0.00    -0.082 C 
ATOM     12  C   UNL     1      -2.940  -4.969  -2.200  0.00  0.00    -0.010 C 
ATOM     13  H   UNL     1      -2.543  -8.200  -1.499  0.00  0.00    -0.086 HD
ATOM     14  H   UNL     1      -3.812  -7.434  -2.215  0.00  0.00    -0.086 HD
ENDROOT
BRANCH   5  15
ATOM     15  C   UNL     1      -5.856  -3.567  -0.637  0.00  0.00    +0.218 C 
ATOM     16  O   UNL     1      -6.203  -3.391   0.512  0.00  0.00    -0.275 OA
ATOM     17  N   UNL     1      -6.748  -3.996  -1.552  0.00  0.00    -0.315 N 
ATOM     18  H   UNL     1      -6.471  -4.137  -2.470  0.00  0.00    +0.149 HD
BRANCH  17  19
ATOM     19  C   UNL     1      -8.137  -4.249  -1.159  0.00  0.00    +0.108 C 
BRANCH  19  20
ATOM     20  C   UNL     1      -8.933  -4.723  -2.376  0.00  0.00    +0.052 C 
BRANCH  20  21
ATOM     21  C   UNL     1     -10.362  -4.983  -1.972  0.00  0.00    -0.037 C 
ATOM     22  C   UNL     1     -10.901  -4.828  -0.736  0.00  0.00    +0.000 A 
ATOM     23  C   UNL     1     -10.340  -4.401   0.496  0.00  0.00    +0.028 A 
ATOM     24  C   UNL     1     -11.123  -4.332   1.625  0.00  0.00    +0.052 A 
ATOM     25  C   UNL     1     -12.536  -4.692   1.589  0.00  0.00    +0.021 A 
ATOM     26  C   UNL     1     -13.124  -5.104   0.447  0.00  0.00    +0.027 A 
ATOM     27  C   UNL     1     -12.334  -5.195  -0.786  0.00  0.00    +0.043 A 
ATOM     28  N   UNL     1     -12.668  -5.562  -1.999  0.00  0.00    -0.378 N 
ATOM     29  C   UNL     1     -11.486  -5.463  -2.861  0.00  0.00    +0.103 C 
ATOM     30  C   UNL     1     -11.146  -6.836  -3.445  0.00  0.00    +0.035 C 
ATOM     31  H   UNL     1     -13.551  -5.847  -2.281  0.00  0.00    +0.160 HD
BRANCH  24  32
ATOM     32  C   UNL     1     -10.540  -3.900   2.859  0.00  0.00    +0.099 C 
ATOM     33  N   UNL     1     -10.077  -3.557   3.838  0.00  0.00    -0.191 NA
ENDBRANCH  24  32
ENDBRANCH  20  21
ENDBRANCH  19  20
ENDBRANCH  17  19
ENDBRANCH   5  15
BRANCH   1  34
ATOM     34  C   UNL     1      -1.343  -0.500  -0.083  0.00  0.00    +0.075 C 
BRANCH  34  36
ATOM     35  C   UNL     1      -1.653   1.702   1.056  0.00  0.00    +0.004 C 
ATOM     36  C   UNL     1      -1.448   0.202   1.273  0.00  0.00    +0.009 C 
ENDBRANCH  34  36
BRANCH  34  37
ATOM     37  C   UNL     1      -0.085  -0.020  -0.810  0.00  0.00    +0.009 C 
ATOM     38  C   UNL     1      -0.053  -0.615  -2.219  0.00  0.00    +0.004 C 
ENDBRANCH  34  37
ENDBRANCH   1  34
TORSDOF 8
