REMARK  Name = ZINC53070517
REMARK  11 active torsions:
REMARK  status: ('A' for Active; 'I' for Inactive)
REMARK    1  A    between atoms: C_1  and  C_2
REMARK    2  A    between atoms: C_2  and  C_3
REMARK    3  A    between atoms: C_3  and  C_4
REMARK    4  A    between atoms: C_3  and  C_6
REMARK    5  A    between atoms: C_3  and  N_8
REMARK    6  A    between atoms: C_4  and  C_5
REMARK    7  A    between atoms: C_6  and  O_7
REMARK    8  A    between atoms: N_8  and  C_9
REMARK    9  A    between atoms: C_9  and  C_10
REMARK   10  A    between atoms: C_10  and  C_12
REMARK   11  A    between atoms: C_10  and  O_19
REMARK                            x       y       z     vdW  Elec       q    Type
REMARK                         _______ _______ _______ _____ _____    ______ ____
ROOT
ATOM      1  N   UNL     1       0.738  -1.966  -1.265  0.00  0.00    +0.386 N 
ATOM      2  H   UNL     1       1.226  -2.301  -0.447  0.00  0.00    -0.085 HD
ATOM      3  H   UNL     1      -0.208  -2.316  -1.258  0.00  0.00    -0.085 HD
ENDROOT
BRANCH   1   4
ATOM      4  C   UNL     1       0.718  -0.497  -1.257  0.00  0.00    -0.045 C 
BRANCH   4   6
ATOM      5  C   UNL     1      -0.019   1.526   0.010  0.00  0.00    +0.002 C 
ATOM      6  C   UNL     1       0.002  -0.004   0.002  0.00  0.00    -0.014 C 
ENDBRANCH   4   6
BRANCH   4   7
ATOM      7  C   UNL     1      -0.022   0.009  -2.496  0.00  0.00    -0.014 C 
ATOM      8  C   UNL     1      -1.457  -0.520  -2.486  0.00  0.00    +0.002 C 
ENDBRANCH   4   7
BRANCH   4   9
ATOM      9  C   UNL     1       2.154   0.032  -1.268  0.00  0.00    +0.143 C 
BRANCH   9  10
ATOM     10  O   UNL     1       2.878  -0.534  -0.174  0.00  0.00    -0.396 OA
ATOM     11  H   UNL     1       3.799  -0.242  -0.119  0.00  0.00    +0.209 HD
ENDBRANCH   9  10
ENDBRANCH   4   9
ENDBRANCH   1   4
BRANCH   1  12
ATOM     12  C   UNL     1       1.426  -2.440  -2.474  0.00  0.00    -0.045 C 
BRANCH  12  13
ATOM     13  C   UNL     1       1.446  -3.970  -2.482  0.00  0.00    +0.128 C 
BRANCH  13  14
ATOM     14  C   UNL     1       2.257  -4.455  -3.656  0.00  0.00    -0.020 A 
ATOM     15  C   UNL     1       1.695  -4.484  -4.919  0.00  0.00    +0.006 A 
ATOM     16  C   UNL     1       2.438  -4.929  -5.996  0.00  0.00    +0.001 A 
ATOM     17  C   UNL     1       3.743  -5.345  -5.812  0.00  0.00    +0.015 A 
ATOM     18  C   UNL     1       4.306  -5.315  -4.549  0.00  0.00    +0.018 A 
ATOM     19  C   UNL     1       3.564  -4.864  -3.472  0.00  0.00    +0.021 A 
ATOM     20 BR   UNL     1       6.092  -5.883  -4.295  0.00  0.00    -0.050 Br
ENDBRANCH  13  14
BRANCH  13  21
ATOM     21  O   UNL     1       0.110  -4.464  -2.589  0.00  0.00    -0.389 OA
ATOM     22  H   UNL     1      -0.351  -4.180  -3.391  0.00  0.00    +0.210 HD
ENDBRANCH  13  21
ENDBRANCH  12  13
ENDBRANCH   1  12
TORSDOF 9
