REMARK  Name = ZINC13792824
REMARK  11 active torsions:
REMARK  status: ('A' for Active; 'I' for Inactive)
REMARK    1  A    between atoms: C_1  and  C_2
REMARK    2  A    between atoms: C_2  and  O_3
REMARK    3  A    between atoms: O_3  and  C_4
REMARK    4  A    between atoms: C_4  and  C_6
REMARK    5  A    between atoms: C_10  and  N_11
REMARK    6  A    between atoms: C_12  and  C_14
REMARK    7  A    between atoms: N_20  and  S_21
REMARK    8  A    between atoms: S_21  and  C_24
REMARK    9  A    between atoms: C_29  and  O_31
REMARK   10  A    between atoms: O_31  and  C_32
REMARK   11  A    between atoms: C_32  and  C_33
REMARK                            x       y       z     vdW  Elec       q    Type
REMARK                         _______ _______ _______ _____ _____    ______ ____
ROOT
ATOM      1  C   UNL     1       4.466   2.265  -1.707  0.00  0.00    +0.091 A 
ATOM      2  C   UNL     1       5.671   3.024  -1.415  0.00  0.00    -0.018 A 
ATOM      3  C   UNL     1       5.635   3.735  -0.267  0.00  0.00    +0.013 A 
ATOM      4  S   UNL     1       4.036   3.414   0.420  0.00  0.00    -0.076 S 
ATOM      5  C   UNL     1       3.417   2.351  -0.800  0.00  0.00    +0.086 A 
ATOM      6  C   UNL     1       6.724   4.605   0.285  0.00  0.00    +0.153 C 
ATOM      7  N   UNL     1       7.931   4.361  -0.528  0.00  0.00    -0.262 N 
ATOM      8  C   UNL     1       7.759   4.254  -1.985  0.00  0.00    +0.116 C 
ATOM      9  C   UNL     1       6.903   3.028  -2.310  0.00  0.00    +0.056 C 
ATOM     10  C   UNL     1       9.146   4.241   0.043  0.00  0.00    +0.403 C 
ATOM     11  O   UNL     1      10.125   4.041  -0.649  0.00  0.00    -0.226 OA
ENDROOT
BRANCH   5  12
ATOM     12  N   UNL     1       2.178   1.732  -0.856  0.00  0.00    -0.278 N 
ATOM     13  C   UNL     1       1.280   1.932   0.130  0.00  0.00    +0.236 C 
ATOM     14  O   UNL     1       1.557   2.654   1.064  0.00  0.00    -0.274 OA
ATOM     15  H   UNL     1       1.957   1.155  -1.603  0.00  0.00    +0.155 HD
BRANCH  13  16
ATOM     16  C   UNL     1      -0.067   1.259   0.070  0.00  0.00    +0.165 C 
ATOM     17  C   UNL     1      -1.161   2.316  -0.113  0.00  0.00    +0.030 C 
ATOM     18  C   UNL     1      -2.534   1.637  -0.033  0.00  0.00    +0.003 C 
ATOM     19  C   UNL     1      -2.708   0.991   1.343  0.00  0.00    +0.017 C 
ATOM     20  C   UNL     1      -1.629  -0.079   1.540  0.00  0.00    +0.110 C 
ATOM     21  N   UNL     1      -0.311   0.534   1.324  0.00  0.00    -0.170 NA
BRANCH  21  22
ATOM     22  S   UNL     1       0.876   0.409   2.471  0.00  0.00    +0.030 S 
ATOM     23  O   UNL     1       0.528  -0.741   3.230  0.00  0.00    -0.158 OA
ATOM     24  O   UNL     1       2.094   0.452   1.739  0.00  0.00    -0.158 OA
ATOM     25  C   UNL     1       0.704   1.903   3.485  0.00  0.00    +0.215 C 
ENDBRANCH  21  22
ENDBRANCH  13  16
ENDBRANCH   5  12
BRANCH   1  26
ATOM     26  C   UNL     1       4.360   1.443  -2.914  0.00  0.00    +0.342 C 
ATOM     27  O   UNL     1       3.929   1.926  -3.943  0.00  0.00    -0.245 OA
BRANCH  26  28
ATOM     28  O   UNL     1       4.742   0.149  -2.884  0.00  0.00    -0.461 OA
BRANCH  28  30
ATOM     29  C   UNL     1       5.088  -2.041  -3.891  0.00  0.00    +0.048 C 
ATOM     30  C   UNL     1       4.609  -0.605  -4.118  0.00  0.00    +0.229 C 
ENDBRANCH  28  30
ENDBRANCH  26  28
ENDBRANCH   1  26
BRANCH  10  31
ATOM     31  O   UNL     1       9.276   4.344   1.379  0.00  0.00    -0.451 OA
BRANCH  31  32
ATOM     32  C   UNL     1      10.614   4.205   1.924  0.00  0.00    +0.230 C 
ATOM     33  C   UNL     1      10.562   4.350   3.446  0.00  0.00    +0.048 C 
ENDBRANCH  31  32
ENDBRANCH  10  31
TORSDOF 8
