REMARK  Name = ZINC36027435
REMARK  8 active torsions:
REMARK  status: ('A' for Active; 'I' for Inactive)
REMARK    1  A    between atoms: C_1  and  C_2
REMARK    2  A    between atoms: C_2  and  C_3
REMARK    3  A    between atoms: C_3  and  C_5
REMARK    4  A    between atoms: C_3  and  C_6
REMARK    5  A    between atoms: N_10  and  C_29
REMARK    6  A    between atoms: N_15  and  S_18
REMARK    7  A    between atoms: S_18  and  C_21
REMARK    8  A    between atoms: C_29  and  C_30
REMARK                            x       y       z     vdW  Elec       q    Type
REMARK                         _______ _______ _______ _____ _____    ______ ____
ROOT
ATOM      1  C   UNL     1      -0.353  -3.482  -1.220  0.00  0.00    +0.022 C 
ATOM      2  C   UNL     1       0.936  -4.258  -1.379  0.00  0.00    +0.201 C 
ATOM      3  O   UNL     1       1.206  -5.003  -2.297  0.00  0.00    -0.277 OA
ATOM      4  N   UNL     1       1.735  -3.981  -0.327  0.00  0.00    -0.309 N 
ATOM      5  C   UNL     1       1.054  -3.044   0.571  0.00  0.00    +0.006 C 
ATOM      6  N   UNL     1      -0.048  -2.439  -0.210  0.00  0.00    +0.401 N 
ATOM      7  C   UNL     1       0.482  -3.788   1.776  0.00  0.00    +0.023 C 
ATOM      8  C   UNL     1       1.626  -4.444   2.557  0.00  0.00    +0.109 C 
ATOM      9  N   UNL     1       2.623  -3.417   2.888  0.00  0.00    -0.177 NA
ATOM     10  C   UNL     1       3.178  -2.595   1.804  0.00  0.00    +0.109 C 
ATOM     11  C   UNL     1       2.022  -1.954   1.029  0.00  0.00    +0.023 C 
ATOM     12  H   UNL     1       0.258  -1.589  -0.658  0.00  0.00    -0.082 HD
ATOM     13  H   UNL     1      -0.850  -2.267   0.377  0.00  0.00    -0.082 HD
ENDROOT
BRANCH   9  14
ATOM     14  S   UNL     1       3.111  -3.189   4.453  0.00  0.00    +0.062 S 
ATOM     15  O   UNL     1       3.592  -1.854   4.539  0.00  0.00    -0.153 OA
ATOM     16  O   UNL     1       2.063  -3.675   5.280  0.00  0.00    -0.153 OA
BRANCH  14  17
ATOM     17  C   UNL     1       4.497  -4.242   4.725  0.00  0.00    +0.125 A 
ATOM     18  C   UNL     1       5.739  -3.696   4.991  0.00  0.00    +0.030 A 
ATOM     19  C   UNL     1       6.827  -4.521   5.204  0.00  0.00    +0.003 A 
ATOM     20  C   UNL     1       6.675  -5.894   5.152  0.00  0.00    +0.021 A 
ATOM     21  C   UNL     1       5.433  -6.442   4.886  0.00  0.00    +0.061 A 
ATOM     22  C   UNL     1       4.342  -5.615   4.678  0.00  0.00    +0.086 A 
ATOM     23 CL   UNL     1       2.781  -6.302   4.353  0.00  0.00    -0.080 Cl
ATOM     24 CL   UNL     1       5.241  -8.167   4.820  0.00  0.00    -0.082 Cl
ENDBRANCH  14  17
ENDBRANCH   9  14
BRANCH   1  25
ATOM     25  C   UNL     1      -0.754  -2.837  -2.548  0.00  0.00    -0.020 C 
ATOM     26  C   UNL     1       0.427  -2.037  -3.103  0.00  0.00    +0.006 C 
BRANCH  25  28
ATOM     27  C   UNL     1      -1.665  -3.279  -4.832  0.00  0.00    +0.004 C 
ATOM     28  C   UNL     1      -1.146  -3.927  -3.547  0.00  0.00    -0.001 C 
ENDBRANCH  25  28
ENDBRANCH   1  25
BRANCH   4  29
ATOM     29  C   UNL     1       3.075  -4.533  -0.115  0.00  0.00    +0.141 C 
BRANCH  29  30
ATOM     30  C   UNL     1       4.090  -3.671  -0.821  0.00  0.00    -0.030 A 
ATOM     31  C   UNL     1       3.783  -3.100  -2.042  0.00  0.00    +0.005 A 
ATOM     32  C   UNL     1       4.714  -2.311  -2.690  0.00  0.00    +0.000 A 
ATOM     33  C   UNL     1       5.953  -2.091  -2.117  0.00  0.00    +0.000 A 
ATOM     34  C   UNL     1       6.260  -2.661  -0.895  0.00  0.00    +0.000 A 
ATOM     35  C   UNL     1       5.327  -3.448  -0.245  0.00  0.00    +0.005 A 
ENDBRANCH  29  30
ENDBRANCH   4  29
TORSDOF 6
