REMARK  Name = ZINC39655571
REMARK  6 active torsions:
REMARK  status: ('A' for Active; 'I' for Inactive)
REMARK    1  A    between atoms: C_4  and  N_7
REMARK    2  A    between atoms: N_7  and  C_8
REMARK    3  A    between atoms: C_8  and  C_9
REMARK    4  A    between atoms: C_9  and  N_10
REMARK    5  A    between atoms: C_11  and  C_13
REMARK    6  A    between atoms: C_24  and  C_26
REMARK                            x       y       z     vdW  Elec       q    Type
REMARK                         _______ _______ _______ _____ _____    ______ ____
ROOT
ATOM      1  C   UNL     1       6.312  -6.230  -0.093  0.00  0.00    +0.100 C 
ATOM      2  C   UNL     1       5.540  -6.773  -1.316  0.00  0.00    +0.121 C 
ATOM      3  N   UNL     1       6.581  -7.001  -2.345  0.00  0.00    -0.297 N 
ATOM      4  C   UNL     1       7.734  -7.548  -1.590  0.00  0.00    +0.115 C 
ATOM      5  C   UNL     1       7.751  -6.744  -0.274  0.00  0.00    -0.004 C 
ATOM      6  C   UNL     1       8.720  -5.571  -0.387  0.00  0.00    -0.010 C 
ATOM      7  C   UNL     1      10.149  -6.106  -0.510  0.00  0.00    -0.082 C 
ATOM      8  N   UNL     1      10.471  -6.922   0.667  0.00  0.00    +0.379 N 
ATOM      9  C   UNL     1       9.594  -8.098   0.717  0.00  0.00    -0.082 C 
ATOM     10  C   UNL     1       8.141  -7.647   0.891  0.00  0.00    -0.010 C 
ATOM     11  C   UNL     1       6.499  -6.764  -3.670  0.00  0.00    +0.260 C 
ATOM     12  O   UNL     1       7.446  -7.006  -4.389  0.00  0.00    -0.271 OA
ATOM     13  H   UNL     1      11.433  -7.223   0.614  0.00  0.00    -0.086 HD
ATOM     14  H   UNL     1      10.340  -6.371   1.503  0.00  0.00    -0.086 HD
ENDROOT
BRANCH  11  15
ATOM     15  C   UNL     1       5.231  -6.200  -4.257  0.00  0.00    +0.296 C 
ATOM     16  C   UNL     1       4.093  -7.218  -4.105  0.00  0.00    +0.283 C 
ATOM     17  O   UNL     1       2.910  -6.657  -4.685  0.00  0.00    -0.484 OA
ATOM     18  C   UNL     1       3.045  -6.076  -5.908  0.00  0.00    +0.162 A 
ATOM     19  C   UNL     1       1.916  -5.843  -6.679  0.00  0.00    +0.049 A 
ATOM     20  C   UNL     1       2.036  -5.250  -7.922  0.00  0.00    +0.004 A 
ATOM     21  C   UNL     1       3.282  -4.888  -8.399  0.00  0.00    +0.004 A 
ATOM     22  C   UNL     1       4.411  -5.118  -7.637  0.00  0.00    +0.049 A 
ATOM     23  C   UNL     1       4.297  -5.714  -6.389  0.00  0.00    +0.163 A 
ATOM     24  O   UNL     1       5.419  -5.941  -5.653  0.00  0.00    -0.473 OA
ENDBRANCH  11  15
BRANCH   1  26
ATOM     25  N   UNL     1       6.370  -4.055   1.083  0.00  0.00    -0.314 N 
ATOM     26  C   UNL     1       6.290  -4.724  -0.085  0.00  0.00    +0.218 C 
ATOM     27  O   UNL     1       6.200  -4.113  -1.128  0.00  0.00    -0.275 OA
ATOM     28  H   UNL     1       6.442  -4.543   1.918  0.00  0.00    +0.149 HD
BRANCH  25  29
ATOM     29  C   UNL     1       6.348  -2.590   1.091  0.00  0.00    +0.123 C 
BRANCH  29  30
ATOM     30  C   UNL     1       6.452  -2.086   2.532  0.00  0.00    +0.120 C 
BRANCH  30  31
ATOM     31  N   UNL     1       6.430  -0.622   2.540  0.00  0.00    -0.342 N 
ATOM     32  H   UNL     1       6.358  -0.133   1.705  0.00  0.00    +0.146 HD
BRANCH  31  36
ATOM     33  C   UNL     1       6.675   1.445   6.147  0.00  0.00    +0.000 A 
ATOM     34  C   UNL     1       6.573   2.143   4.957  0.00  0.00    +0.002 A 
ATOM     35  C   UNL     1       6.492   1.460   3.759  0.00  0.00    +0.023 A 
ATOM     36  C   UNL     1       6.512   0.072   3.750  0.00  0.00    +0.027 A 
ATOM     37  C   UNL     1       6.615  -0.626   4.946  0.00  0.00    +0.023 A 
ATOM     38  C   UNL     1       6.696   0.062   6.141  0.00  0.00    +0.002 A 
ENDBRANCH  31  36
ENDBRANCH  30  31
ENDBRANCH  29  30
ENDBRANCH  25  29
ENDBRANCH   1  26
TORSDOF 6
