REMARK  Name = ZINC01638477
REMARK  6 active torsions:
REMARK  status: ('A' for Active; 'I' for Inactive)
REMARK    1  A    between atoms: C_1  and  C_2
REMARK    2  A    between atoms: C_2  and  C_13
REMARK    3  A    between atoms: C_3  and  C_9
REMARK    4  A    between atoms: C_3  and  C_11
REMARK    5  A    between atoms: C_4  and  C_5
REMARK    6  A    between atoms: C_4  and  C_7
REMARK                            x       y       z     vdW  Elec       q    Type
REMARK                         _______ _______ _______ _____ _____    ______ ____
ROOT
ATOM      1  C   UNL     1       0.002  -0.004   0.002  0.00  0.00    +0.065 C 
ATOM      2  C   UNL     1      -0.531  -0.647  -1.280  0.00  0.00    +0.185 C 
ATOM      3  C   UNL     1      -1.313  -0.785   0.028  0.00  0.00    +0.185 C 
ENDROOT
BRANCH   1   4
ATOM      4  C   UNL     1      -0.079   1.520   0.115  0.00  0.00    +0.122 C 
ATOM      5 CL   UNL     1       1.567   2.225  -0.092  0.00  0.00    -0.125 Cl
ENDBRANCH   1   4
BRANCH   3   6
ATOM      6  C   UNL     1      -1.310  -2.102   0.686  0.00  0.00    +0.088 C 
ATOM      7  N   UNL     1      -1.307  -3.118   1.194  0.00  0.00    -0.195 NA
ENDBRANCH   3   6
BRANCH   3   8
ATOM      8  C   UNL     1      -2.560  -0.013   0.159  0.00  0.00    +0.088 C 
ATOM      9  N   UNL     1      -3.522   0.583   0.261  0.00  0.00    -0.195 NA
ENDBRANCH   3   8
BRANCH   2  10
ATOM     10  C   UNL     1       0.168  -1.841  -1.783  0.00  0.00    +0.088 C 
ATOM     11  N   UNL     1       0.707  -2.762  -2.172  0.00  0.00    -0.195 NA
ENDBRANCH   2  10
BRANCH   2  12
ATOM     12  C   UNL     1      -1.083   0.248  -2.310  0.00  0.00    +0.088 C 
ATOM     13  N   UNL     1      -1.508   0.939  -3.106  0.00  0.00    -0.195 NA
ENDBRANCH   2  12
BRANCH   1  14
ATOM     14  C   UNL     1       1.221  -0.651   0.663  0.00  0.00    +0.122 C 
ATOM     15 CL   UNL     1       1.220  -0.272   2.426  0.00  0.00    -0.125 Cl
ENDBRANCH   1  14
TORSDOF 6
