REMARK  Name = ZINC05954726
REMARK  5 active torsions:
REMARK  status: ('A' for Active; 'I' for Inactive)
REMARK    1  A    between atoms: C_1  and  C_2
REMARK    2  A    between atoms: C_8  and  N_10
REMARK    3  A    between atoms: N_14  and  CA_15
REMARK    4  A    between atoms: CA_15  and  CB_17
REMARK    5  A    between atoms: CA_15  and  C_18
REMARK                            x       y       z     vdW  Elec       q    Type
REMARK                         _______ _______ _______ _____ _____    ______ ____
ROOT
ATOM      1  N   UNK A   0       0.625   3.616   1.265  0.00  0.00    -0.296 N 
ATOM      2  H   UNK A   0       1.347   3.068   1.610  0.00  0.00    +0.151 HD
ATOM      3  C   UNK A   0       0.886   4.845   0.776  0.00  0.00    +0.300 C 
ATOM      4  O   UNK A   0      -0.019   5.532   0.343  0.00  0.00    -0.253 OA
ATOM      5  N   ALA A   1       2.151   5.311   0.766  0.00  0.00    -0.286 N 
ATOM      6  H   ALA A   1       2.873   4.763   1.111  0.00  0.00    +0.151 HD
ENDROOT
BRANCH   1  13
ATOM      7  C   UNK A   0      -0.013   1.086   0.008  0.00  0.00    +0.009 C 
ATOM      8  C   UNK A   0      -0.729   1.579   1.267  0.00  0.00    +0.006 C 
ATOM      9  C   UNK A   0       0.011   1.072   2.506  0.00  0.00    +0.005 C 
ATOM     10  C   UNK A   0      -0.705   1.566   3.765  0.00  0.00    +0.000 C 
ATOM     11  C   UNK A   0      -0.726   3.096   3.774  0.00  0.00    +0.002 C 
ATOM     12  C   UNK A   0      -1.466   3.603   2.534  0.00  0.00    +0.022 C 
ATOM     13  C   UNK A   0      -0.750   3.109   1.275  0.00  0.00    +0.077 C 
ENDBRANCH   1  13
BRANCH   5  14
ATOM     14  CA  ALA A   1       2.435   6.646   0.234  0.00  0.00    +0.184 C 
ATOM     15  CB  ALA A   1       2.609   6.564  -1.284  0.00  0.00    +0.040 C 
BRANCH  14  16
ATOM     16  C   ALA A   1       3.700   7.176   0.858  0.00  0.00    +0.376 C 
ATOM     17  O   ALA A   1       4.303   6.507   1.663  0.00  0.00    -0.244 OA
ATOM     18  OXT ALA A   1       4.158   8.392   0.518  0.00  0.00    -0.244 OA
ENDBRANCH  14  16
ENDBRANCH   5  14
TORSDOF 3
