REMARK  Name = ZINC31809635
REMARK  5 active torsions:
REMARK  status: ('A' for Active; 'I' for Inactive)
REMARK    1  A    between atoms: C_1  and  O_2
REMARK    2  A    between atoms: O_2  and  C_3
REMARK    3  A    between atoms: C_3  and  C_5
REMARK    4  A    between atoms: C_8  and  N_11
REMARK    5  A    between atoms: C_23  and  C_25
REMARK                            x       y       z     vdW  Elec       q    Type
REMARK                         _______ _______ _______ _____ _____    ______ ____
ROOT
ATOM      1  N   UNL     1      -1.297  -6.388  -0.091  0.00  0.00    -0.269 N 
ATOM      2  C   UNL     1      -2.505  -6.959   0.089  0.00  0.00    +0.307 C 
ATOM      3  O   UNL     1      -3.498  -6.264   0.177  0.00  0.00    -0.252 OA
ATOM      4  N   UNL     1      -2.610  -8.300   0.171  0.00  0.00    -0.272 N 
ATOM      5  C   UNL     1      -1.411  -9.147   0.251  0.00  0.00    +0.116 C 
ATOM      6  C   UNL     1      -1.334 -10.032  -0.999  0.00  0.00    +0.076 C 
ATOM      7  C   UNL     1      -2.697 -10.621  -1.263  0.00  0.00    +0.066 A 
ATOM      8  C   UNL     1      -3.848 -10.143  -0.744  0.00  0.00    +0.064 A 
ATOM      9  N   UNL     1      -4.857 -10.927  -1.210  0.00  0.00    -0.346 N 
ATOM     10  H   UNL     1      -5.802 -10.830  -1.013  0.00  0.00    +0.167 HD
ATOM     11  C   UNL     1      -4.293 -11.868  -2.001  0.00  0.00    +0.197 A 
ATOM     12  N   UNL     1      -3.000 -11.677  -2.026  0.00  0.00    -0.240 NA
ATOM     13  C   UNL     1      -3.931  -8.955   0.188  0.00  0.00    +0.156 C 
ATOM     14  H   UNL     1      -0.525  -6.939  -0.293  0.00  0.00    +0.156 HD
ENDROOT
BRANCH  13  15
ATOM     15  C   UNL     1      -4.256  -9.416   1.585  0.00  0.00    -0.021 A 
ATOM     16  C   UNL     1      -3.454 -10.353   2.209  0.00  0.00    +0.007 A 
ATOM     17  C   UNL     1      -3.752 -10.775   3.491  0.00  0.00    +0.015 A 
ATOM     18  C   UNL     1      -4.853 -10.261   4.150  0.00  0.00    +0.018 A 
ATOM     19  C   UNL     1      -5.656  -9.323   3.526  0.00  0.00    +0.015 A 
ATOM     20  C   UNL     1      -5.355  -8.897   2.246  0.00  0.00    +0.007 A 
ATOM     21 BR   UNL     1      -5.262 -10.839   5.903  0.00  0.00    -0.050 Br
ENDBRANCH  13  15
BRANCH   1  25
ATOM     22  C   UNL     1      -0.881  -2.255   0.221  0.00  0.00    +0.059 A 
ATOM     23  C   UNL     1       0.225  -3.087   0.415  0.00  0.00    +0.017 A 
ATOM     24  C   UNL     1       0.084  -4.452   0.311  0.00  0.00    +0.024 A 
ATOM     25  C   UNL     1      -1.158  -5.004   0.013  0.00  0.00    +0.035 A 
ATOM     26  C   UNL     1      -2.261  -4.179  -0.180  0.00  0.00    +0.024 A 
ATOM     27  C   UNL     1      -2.129  -2.813  -0.072  0.00  0.00    +0.017 A 
BRANCH  22  28
ATOM     28  C   UNL     1      -0.734  -0.792   0.333  0.00  0.00    +0.339 C 
ATOM     29  O   UNL     1      -1.698  -0.070   0.169  0.00  0.00    -0.245 OA
BRANCH  28  31
ATOM     30  C   UNL     1       0.539   1.169   0.708  0.00  0.00    +0.280 C 
ATOM     31  O   UNL     1       0.469  -0.255   0.616  0.00  0.00    -0.464 OA
ENDBRANCH  28  31
ENDBRANCH  22  28
ENDBRANCH   1  25
TORSDOF 4
