REMARK  Name = ZINC09383391
REMARK  11 active torsions:
REMARK  status: ('A' for Active; 'I' for Inactive)
REMARK    1  A    between atoms: C_1  and  C_2
REMARK    2  A    between atoms: C_2  and  N_3
REMARK    3  A    between atoms: N_3  and  C_4
REMARK    4  A    between atoms: N_3  and  S_10
REMARK    5  A    between atoms: S_10  and  C_13
REMARK    6  A    between atoms: C_16  and  C_19
REMARK    7  A    between atoms: N_21  and  C_22
REMARK    8  A    between atoms: C_23  and  C_33
REMARK    9  A    between atoms: C_30  and  C_31
REMARK   10  A    between atoms: C_30  and  C_32
REMARK   11  A    between atoms: C_30  and  N_66
REMARK                            x       y       z     vdW  Elec       q    Type
REMARK                         _______ _______ _______ _____ _____    ______ ____
ROOT
ATOM      1  C   UNL     1       8.073   2.840   3.531  0.00  0.00    +0.249 C 
ATOM      2  O   UNL     1       9.001   2.273   4.075  0.00  0.00    -0.270 OA
ATOM      3  N   UNL     1       7.747   4.097   3.891  0.00  0.00    -0.275 N 
ATOM      4  H   UNL     1       7.007   4.550   3.457  0.00  0.00    +0.156 HD
ENDROOT
BRANCH   3   5
ATOM      5  C   UNL     1       8.469   4.744   4.881  0.00  0.00    +0.085 A 
ATOM      6  C   UNL     1       8.287   6.025   5.385  0.00  0.00    +0.068 A 
ATOM      7  C   UNL     1       9.189   6.467   6.432  0.00  0.00    -0.027 A 
ATOM      8  C   UNL     1      10.124   5.565   6.807  0.00  0.00    -0.021 A 
ATOM      9  S   UNL     1       9.813   4.146   5.798  0.00  0.00    -0.079 S 
ATOM     10  C   UNL     1      11.175   5.758   7.856  0.00  0.00    -0.035 C 
ATOM     11  C   UNL     1       9.924   7.757   8.411  0.00  0.00    -0.073 C 
ATOM     12  C   UNL     1       9.135   7.835   7.101  0.00  0.00    +0.018 C 
ATOM     13  N   UNL     1      11.270   7.210   8.140  0.00  0.00    +0.384 N 
ATOM     14  H   UNL     1      11.665   7.686   7.321  0.00  0.00    -0.081 HD
BRANCH   6  15
ATOM     15  C   UNL     1       7.224   6.898   4.878  0.00  0.00    +0.244 C 
ATOM     16  O   UNL     1       6.123   6.881   5.396  0.00  0.00    -0.270 OA
ATOM     17  N   UNL     1       7.466   7.721   3.838  0.00  0.00    -0.325 N 
ATOM     18  H   UNL     1       8.344   7.735   3.425  0.00  0.00    +0.145 HD
ATOM     19  H   UNL     1       6.763   8.299   3.502  0.00  0.00    +0.145 HD
ENDBRANCH   6  15
BRANCH  13  20
ATOM     20  C   UNL     1      12.153   7.441   9.304  0.00  0.00    -0.074 C 
ATOM     21  C   UNL     1      13.491   6.739   9.063  0.00  0.00    -0.014 C 
ATOM     22  C   UNL     1      12.386   8.945   9.458  0.00  0.00    -0.014 C 
ENDBRANCH  13  20
ENDBRANCH   3   5
BRANCH   1  26
ATOM     23  C   UNL     1       5.859   0.859   0.496  0.00  0.00    +0.109 A 
ATOM     24  C   UNL     1       5.525   2.151   0.860  0.00  0.00    +0.029 A 
ATOM     25  C   UNL     1       6.237   2.799   1.848  0.00  0.00    +0.015 A 
ATOM     26  C   UNL     1       7.303   2.151   2.475  0.00  0.00    +0.037 A 
ATOM     27  C   UNL     1       7.638   0.849   2.099  0.00  0.00    +0.015 A 
ATOM     28  C   UNL     1       6.915   0.211   1.113  0.00  0.00    +0.029 A 
BRANCH  23  29
ATOM     29  S   UNL     1       4.941   0.036  -0.763  0.00  0.00    +0.075 S 
ATOM     30  O   UNL     1       5.840  -0.857  -1.404  0.00  0.00    -0.150 OA
ATOM     31  O   UNL     1       4.232   1.044  -1.472  0.00  0.00    -0.150 OA
BRANCH  29  32
ATOM     32  N   UNL     1       3.803  -0.899  -0.007  0.00  0.00    -0.203 N 
BRANCH  32  33
ATOM     33  C   UNL     1       2.534  -0.378   0.259  0.00  0.00    +0.051 A 
ATOM     34  C   UNL     1       1.443  -1.229   0.381  0.00  0.00    +0.025 A 
ATOM     35  C   UNL     1       0.191  -0.710   0.643  0.00  0.00    +0.002 A 
ATOM     36  C   UNL     1       0.022   0.655   0.784  0.00  0.00    +0.000 A 
ATOM     37  C   UNL     1       1.106   1.505   0.664  0.00  0.00    +0.002 A 
ATOM     38  C   UNL     1       2.361   0.993   0.402  0.00  0.00    +0.025 A 
ENDBRANCH  32  33
BRANCH  32  40
ATOM     39  C   UNL     1       3.661  -3.237  -0.711  0.00  0.00    +0.026 C 
ATOM     40  C   UNL     1       4.126  -2.274   0.383  0.00  0.00    +0.128 C 
ENDBRANCH  32  40
ENDBRANCH  29  32
ENDBRANCH  23  29
ENDBRANCH   1  26
TORSDOF 8
