REMARK  Name = ZINC36369754
REMARK  13 active torsions:
REMARK  status: ('A' for Active; 'I' for Inactive)
REMARK    1  A    between atoms: C_4  and  C_7
REMARK    2  A    between atoms: C_8  and  O_38
REMARK    3  A    between atoms: C_9  and  C_32
REMARK    4  A    between atoms: C_13  and  C_18
REMARK    5  A    between atoms: C_18  and  O_20
REMARK    6  A    between atoms: C_18  and  C_21
REMARK    7  A    between atoms: C_21  and  O_23
REMARK    8  A    between atoms: C_21  and  C_24
REMARK    9  A    between atoms: C_24  and  O_26
REMARK   10  A    between atoms: C_24  and  C_27
REMARK   11  A    between atoms: C_27  and  O_29
REMARK   12  A    between atoms: C_27  and  C_30
REMARK   13  A    between atoms: C_30  and  O_31
REMARK                            x       y       z     vdW  Elec       q    Type
REMARK                         _______ _______ _______ _____ _____    ______ ____
ROOT
ATOM      1  C   UNL     1       3.542   0.013  -0.290  0.00  0.00    +0.021 C 
ATOM      2  C   UNL     1       3.277  -1.485  -0.491  0.00  0.00    +0.134 C 
ATOM      3  C   UNL     1       4.611  -2.232  -0.372  0.00  0.00    +0.021 C 
ATOM      4  C   UNL     1       5.576  -1.688  -1.430  0.00  0.00    -0.061 C 
ATOM      5  N   UNL     1       5.800  -0.257  -1.204  0.00  0.00    +0.393 N 
ATOM      6  C   UNL     1       4.528   0.486  -1.363  0.00  0.00    -0.061 C 
ATOM      7  C   UNL     1       6.364  -0.036   0.131  0.00  0.00    +0.034 C 
ATOM      8  N   UNL     1       5.434  -0.517   1.161  0.00  0.00    -0.311 NA
ATOM      9  C   UNL     1       5.204  -1.963   1.017  0.00  0.00    +0.095 C 
ATOM     10  C   UNL     1       4.171   0.234   1.091  0.00  0.00    +0.095 C 
ATOM     11  H   UNL     1       6.460   0.083  -1.887  0.00  0.00    -0.079 HD
ENDROOT
BRANCH   1  15
ATOM     12  C   UNL     1      -0.115   2.199  -0.601  0.00  0.00    +0.000 A 
ATOM     13  C   UNL     1       1.071   2.866  -0.355  0.00  0.00    +0.000 A 
ATOM     14  C   UNL     1       2.254   2.159  -0.255  0.00  0.00    +0.004 A 
ATOM     15  C   UNL     1       2.252   0.784  -0.399  0.00  0.00    -0.039 A 
ATOM     16  C   UNL     1       1.066   0.117  -0.643  0.00  0.00    +0.004 A 
ATOM     17  C   UNL     1      -0.117   0.824  -0.745  0.00  0.00    +0.000 A 
ENDBRANCH   1  15
BRANCH   3  18
ATOM     18  C   UNL     1       4.394  -3.712  -0.562  0.00  0.00    -0.039 A 
ATOM     19  C   UNL     1       5.003  -4.370  -1.614  0.00  0.00    +0.004 A 
ATOM     20  C   UNL     1       4.804  -5.727  -1.788  0.00  0.00    +0.000 A 
ATOM     21  C   UNL     1       3.995  -6.425  -0.911  0.00  0.00    +0.000 A 
ATOM     22  C   UNL     1       3.387  -5.767   0.141  0.00  0.00    +0.000 A 
ATOM     23  C   UNL     1       3.590  -4.411   0.319  0.00  0.00    +0.004 A 
ENDBRANCH   3  18
BRANCH   2  24
ATOM     24  O   UNL     1       2.716  -1.706  -1.787  0.00  0.00    -0.390 OA
ATOM     25  H   UNL     1       2.443  -2.619  -1.947  0.00  0.00    +0.210 HD
ENDBRANCH   2  24
BRANCH   7  26
ATOM     26  C   UNL     1       7.688  -0.793   0.253  0.00  0.00    +0.146 C 
BRANCH  26  27
ATOM     27  O   UNL     1       8.230  -0.598   1.561  0.00  0.00    -0.390 OA
ATOM     28  H   UNL     1       8.333   0.331   1.809  0.00  0.00    +0.210 HD
ENDBRANCH  26  27
BRANCH  26  29
ATOM     29  C   UNL     1       8.675  -0.268  -0.792  0.00  0.00    +0.173 C 
BRANCH  29  30
ATOM     30  O   UNL     1       8.813   1.147  -0.647  0.00  0.00    -0.387 OA
ATOM     31  H   UNL     1       9.140   1.424   0.219  0.00  0.00    +0.210 HD
ENDBRANCH  29  30
BRANCH  29  32
ATOM     32  C   UNL     1      10.036  -0.936  -0.589  0.00  0.00    +0.176 C 
BRANCH  32  33
ATOM     33  O   UNL     1      10.470  -0.734   0.757  0.00  0.00    -0.387 OA
ATOM     34  H   UNL     1      10.570   0.196   1.003  0.00  0.00    +0.210 HD
ENDBRANCH  32  33
BRANCH  32  35
ATOM     35  C   UNL     1      11.055  -0.322  -1.551  0.00  0.00    +0.171 C 
BRANCH  35  36
ATOM     36  O   UNL     1      10.621  -0.524  -2.897  0.00  0.00    -0.387 OA
ATOM     37  H   UNL     1      10.521  -1.454  -3.143  0.00  0.00    +0.210 HD
ENDBRANCH  35  36
BRANCH  35  38
ATOM     38  C   UNL     1      12.416  -0.990  -1.348  0.00  0.00    +0.189 C 
BRANCH  38  39
ATOM     39  O   UNL     1      13.393  -0.338  -2.162  0.00  0.00    -0.392 OA
ATOM     40  H   UNL     1      14.282  -0.711  -2.084  0.00  0.00    +0.210 HD
ENDBRANCH  38  39
ENDBRANCH  35  38
ENDBRANCH  32  35
ENDBRANCH  29  32
ENDBRANCH  26  29
ENDBRANCH   7  26
TORSDOF 13
