REMARK  Name = ZINC19516310
REMARK  7 active torsions:
REMARK  status: ('A' for Active; 'I' for Inactive)
REMARK    1  A    between atoms: C_1  and  C_2
REMARK    2  A    between atoms: C_7  and  C_21
REMARK    3  A    between atoms: C_9  and  C_10
REMARK    4  A    between atoms: C_9  and  N_13
REMARK    5  A    between atoms: N_16  and  C_17
REMARK    6  A    between atoms: C_17  and  C_18
REMARK    7  A    between atoms: C_18  and  C_19
REMARK                            x       y       z     vdW  Elec       q    Type
REMARK                         _______ _______ _______ _____ _____    ______ ____
ROOT
ATOM      1  C   UNL     1      -2.194   3.049   1.986  0.00  0.00    +0.010 C 
ATOM      2  C   UNL     1      -3.549   2.387   1.724  0.00  0.00    +0.021 C 
ATOM      3  C   UNL     1      -3.852   1.385   2.840  0.00  0.00    +0.006 C 
ATOM      4  C   UNL     1      -5.206   0.724   2.577  0.00  0.00    +0.001 C 
ATOM      5  C   UNL     1      -5.165  -0.006   1.233  0.00  0.00    +0.006 C 
ATOM      6  C   UNL     1      -4.862   0.995   0.117  0.00  0.00    +0.021 C 
ATOM      7  C   UNL     1      -3.508   1.657   0.380  0.00  0.00    +0.142 C 
ATOM      8  C   UNL     1      -5.955   2.066   0.083  0.00  0.00    +0.010 C 
ENDROOT
BRANCH   7   9
ATOM      9  N   UNL     1      -2.462   0.631   0.413  0.00  0.00    -0.283 N 
ATOM     10  C   UNL     1      -2.171  -0.071  -0.700  0.00  0.00    +0.301 C 
ATOM     11  O   UNL     1      -2.837   0.080  -1.706  0.00  0.00    -0.253 OA
ATOM     12  N   UNL     1      -1.142  -0.942  -0.698  0.00  0.00    -0.298 N 
ATOM     13  H   UNL     1      -1.914   0.435   1.346  0.00  0.00    +0.151 HD
ATOM     14  H   UNL     1      -0.537  -1.075   0.211  0.00  0.00    +0.150 HD
BRANCH  12  15
ATOM     15  C   UNL     1      -0.830  -1.710  -1.906  0.00  0.00    +0.118 C 
BRANCH  15  16
ATOM     16  C   UNL     1       0.369  -2.621  -1.635  0.00  0.00    +0.107 C 
BRANCH  16  17
ATOM     17  C   UNL     1       0.682  -3.393  -2.849  0.00  0.00    -0.104 C 
ATOM     18  C   UNL     1       0.932  -4.008  -3.817  0.00  0.00    +0.004 C 
ENDBRANCH  16  17
ENDBRANCH  15  16
ENDBRANCH  12  15
ENDBRANCH   7   9
BRANCH   7  19
ATOM     19  C   UNL     1      -3.209   2.643  -0.719  0.00  0.00    +0.379 C 
ATOM     20  O   UNL     1      -4.107   3.077  -1.402  0.00  0.00    -0.244 OA
ATOM     21  O   UNL     1      -1.946   3.041  -0.940  0.00  0.00    -0.244 OA
ENDBRANCH   7  19
TORSDOF 5
