REMARK  Name = ZINC25680395
REMARK  7 active torsions:
REMARK  status: ('A' for Active; 'I' for Inactive)
REMARK    1  A    between atoms: C_1  and  C_2
REMARK    2  A    between atoms: C_2  and  C_4
REMARK    3  A    between atoms: C_2  and  N_15
REMARK    4  A    between atoms: N_6  and  C_7
REMARK    5  A    between atoms: C_8  and  C_12
REMARK    6  A    between atoms: C_18  and  C_21
REMARK    7  A    between atoms: C_24  and  O_27
REMARK                            x       y       z     vdW  Elec       q    Type
REMARK                         _______ _______ _______ _____ _____    ______ ____
ROOT
ATOM      1  C   UNL     1       1.678   8.307   1.578  0.00  0.00    -0.004 C 
ATOM      2  C   UNL     1       1.347   7.766   0.185  0.00  0.00    +0.017 C 
ENDROOT
BRANCH   2   3
ATOM      3  N   UNL     1       1.497   6.305   0.180  0.00  0.00    +0.390 N 
ATOM      4  C   UNL     1       1.231   5.752  -1.159  0.00  0.00    -0.073 C 
ATOM      5  C   UNL     1       1.712   4.297  -1.185  0.00  0.00    +0.017 C 
ATOM      6  C   UNL     1       1.168   3.564   0.010  0.00  0.00    -0.048 C 
ATOM      7  C   UNL     1       0.683   4.185   1.063  0.00  0.00    -0.041 C 
ATOM      8  C   UNL     1       0.614   5.681   1.173  0.00  0.00    -0.050 C 
ATOM      9  H   UNL     1       2.539   6.077   0.452  0.00  0.00    -0.080 HD
BRANCH   6  10
ATOM     10  C   UNL     1       1.184   2.087   0.002  0.00  0.00    -0.022 A 
ATOM     11  C   UNL     1      -0.017   1.374   0.010  0.00  0.00    +0.012 A 
ATOM     12  C   UNL     1       0.002  -0.004   0.002  0.00  0.00    +0.046 A 
ATOM     13  C   UNL     1       1.213  -0.684  -0.013  0.00  0.00    +0.117 A 
ATOM     14  C   UNL     1       2.409   0.021  -0.021  0.00  0.00    +0.046 A 
ATOM     15  C   UNL     1       2.399   1.400  -0.013  0.00  0.00    +0.012 A 
BRANCH  13  16
ATOM     16  O   UNL     1       1.227  -2.042  -0.020  0.00  0.00    -0.507 OA
ATOM     17  H   UNL     1       2.186  -2.582  -0.032  0.00  0.00    +0.292 HD
ENDBRANCH  13  16
ENDBRANCH   6  10
ENDBRANCH   2   3
BRANCH   2  18
ATOM     18  C   UNL     1      -0.073   8.126  -0.169  0.00  0.00    +0.204 C 
ATOM     19  O   UNL     1      -0.880   7.252  -0.403  0.00  0.00    -0.277 OA
ATOM     20  N   UNL     1      -0.446   9.420  -0.225  0.00  0.00    -0.281 N 
ATOM     21  H   UNL     1       0.286  10.213  -0.013  0.00  0.00    +0.155 HD
BRANCH  20  22
ATOM     22  C   UNL     1      -1.753   9.751  -0.551  0.00  0.00    +0.084 A 
ATOM     23  C   UNL     1      -2.323  11.014  -0.653  0.00  0.00    +0.065 A 
ATOM     24  C   UNL     1      -3.720  11.069  -1.016  0.00  0.00    +0.022 A 
ATOM     25  C   UNL     1      -4.349   9.896  -1.213  0.00  0.00    +0.048 A 
ATOM     26  S   UNL     1      -3.071   8.691  -0.921  0.00  0.00    -0.081 S 
BRANCH  23  27
ATOM     27  C   UNL     1      -1.544  12.232  -0.408  0.00  0.00    +0.244 C 
ATOM     28  O   UNL     1      -0.368  12.152  -0.107  0.00  0.00    -0.270 OA
ATOM     29  N   UNL     1      -2.131  13.441  -0.517  0.00  0.00    -0.325 N 
ATOM     30  H   UNL     1      -1.547  14.354  -0.333  0.00  0.00    +0.145 HD
ATOM     31  H   UNL     1      -3.194  13.513  -0.789  0.00  0.00    +0.145 HD
ENDBRANCH  23  27
ENDBRANCH  20  22
ENDBRANCH   2  18
TORSDOF 6
