REMARK  Name = ZINC07191917
REMARK  5 active torsions:
REMARK  status: ('A' for Active; 'I' for Inactive)
REMARK    1  A    between atoms: C_8  and  C_10
REMARK    2  A    between atoms: C_15  and  C_16
REMARK    3  A    between atoms: C_15  and  N_44
REMARK    4  A    between atoms: N_18  and  C_19
REMARK    5  A    between atoms: C_20  and  C_24
REMARK                            x       y       z     vdW  Elec       q    Type
REMARK                         _______ _______ _______ _____ _____    ______ ____
ROOT
ATOM      1  C   UNL     1       1.278   2.115   0.001  0.00  0.00    +0.020 C 
ENDROOT
BRANCH   1   6
ATOM      2  C   UNL     1       2.214   4.342  -0.252  0.00  0.00    -0.011 C 
ATOM      3  C   UNL     1       2.042   5.633   0.586  0.00  0.00    -0.010 C 
ATOM      4  C   UNL     1       1.349   5.089   1.862  0.00  0.00    -0.020 C 
ATOM      5  C   UNL     1       0.435   3.974   1.312  0.00  0.00    -0.077 C 
ATOM      6  N   UNL     1       0.982   3.571   0.006  0.00  0.00    +0.391 N 
ATOM      7  H   UNL     1       0.293   3.775  -0.728  0.00  0.00    -0.080 HD
BRANCH   2  15
ATOM      8  C   UNL     1       4.117   5.275  -6.049  0.00  0.00    +0.002 A 
ATOM      9  C   UNL     1       2.864   5.704  -6.465  0.00  0.00    +0.001 A 
ATOM     10  C   UNL     1       1.825   5.751  -5.554  0.00  0.00    +0.017 A 
ATOM     11  C   UNL     1       2.052   5.372  -4.254  0.00  0.00    +0.039 A 
ATOM     12  C   UNL     1       3.316   4.930  -3.802  0.00  0.00    +0.078 A 
ATOM     13  C   UNL     1       4.351   4.897  -4.764  0.00  0.00    +0.029 A 
ATOM     14  N   UNL     1       3.359   4.597  -2.495  0.00  0.00    -0.246 NA
ATOM     15  C   UNL     1       2.316   4.678  -1.718  0.00  0.00    +0.066 A 
ATOM     16  S   UNL     1       1.070   5.257  -2.779  0.00  0.00    -0.074 S 
ENDBRANCH   2  15
ENDBRANCH   1   6
BRANCH   1  17
ATOM     17  C   UNL     1      -0.016   1.344   0.009  0.00  0.00    +0.201 C 
ATOM     18  O   UNL     1      -1.075   1.936   0.018  0.00  0.00    -0.278 OA
ATOM     19  N   UNL     1       0.002  -0.004   0.002  0.00  0.00    -0.281 N 
ATOM     20  H   UNL     1       0.849  -0.478  -0.009  0.00  0.00    +0.155 HD
BRANCH  19  21
ATOM     21  C   UNL     1      -1.189  -0.714   0.010  0.00  0.00    +0.084 A 
ATOM     22  C   UNL     1      -1.374  -2.091   0.004  0.00  0.00    +0.065 A 
ATOM     23  C   UNL     1      -2.738  -2.564   0.015  0.00  0.00    +0.022 A 
ATOM     24  C   UNL     1      -3.709  -1.634   0.030  0.00  0.00    +0.048 A 
ATOM     25  S   UNL     1      -2.808  -0.098   0.036  0.00  0.00    -0.081 S 
BRANCH  22  26
ATOM     26  C   UNL     1      -0.238  -3.019  -0.013  0.00  0.00    +0.244 C 
ATOM     27  O   UNL     1       0.900  -2.588  -0.022  0.00  0.00    -0.270 OA
ATOM     28  N   UNL     1      -0.455  -4.349  -0.018  0.00  0.00    -0.325 N 
ATOM     29  H   UNL     1      -1.363  -4.693  -0.010  0.00  0.00    +0.145 HD
ATOM     30  H   UNL     1       0.296  -4.963  -0.029  0.00  0.00    +0.145 HD
ENDBRANCH  22  26
ENDBRANCH  19  21
ENDBRANCH   1  17
TORSDOF 5
