REMARK  Name = ZINC41380258
REMARK  3 active torsions:
REMARK  status: ('A' for Active; 'I' for Inactive)
REMARK    1  A    between atoms: C_3  and  S_8
REMARK    2  A    between atoms: S_8  and  N_11
REMARK    3  A    between atoms: N_14  and  C_17
REMARK                            x       y       z     vdW  Elec       q    Type
REMARK                         _______ _______ _______ _____ _____    ______ ____
ROOT
ATOM      1  N   UNL     1       4.317   2.571   1.557  0.00  0.00    -0.174 NA
ATOM      2  C   UNL     1       3.847   3.755   2.289  0.00  0.00    +0.128 C 
ATOM      3  C   UNL     1       3.135   3.291   3.566  0.00  0.00    +0.122 C 
ATOM      4  N   UNL     1       3.999   2.325   4.260  0.00  0.00    -0.327 N 
ATOM      5  C   UNL     1       4.470   1.141   3.528  0.00  0.00    +0.122 C 
ATOM      6  C   UNL     1       5.177   1.603   2.253  0.00  0.00    +0.128 C 
ENDROOT
BRANCH   4   7
ATOM      7  C   UNL     1       4.367   2.530   5.595  0.00  0.00    +0.033 A 
ATOM      8  C   UNL     1       5.087   1.556   6.274  0.00  0.00    +0.027 A 
ATOM      9  C   UNL     1       5.449   1.757   7.592  0.00  0.00    +0.051 A 
ATOM     10  C   UNL     1       5.097   2.932   8.240  0.00  0.00    +0.162 A 
ATOM     11  C   UNL     1       4.379   3.909   7.562  0.00  0.00    +0.164 A 
ATOM     12  C   UNL     1       4.018   3.709   6.238  0.00  0.00    +0.072 A 
ATOM     13  O   UNL     1       4.030   5.072   8.179  0.00  0.00    -0.485 OA
ATOM     14  C   UNL     1       4.088   5.084   9.610  0.00  0.00    +0.270 C 
ATOM     15  C   UNL     1       5.418   4.451  10.042  0.00  0.00    +0.270 C 
ATOM     16  O   UNL     1       5.460   3.111   9.541  0.00  0.00    -0.485 OA
ENDBRANCH   4   7
BRANCH   1  17
ATOM     17  S   UNL     1       3.882   2.329  -0.022  0.00  0.00    +0.061 S 
ATOM     18  O   UNL     1       4.873   1.486  -0.593  0.00  0.00    -0.153 OA
ATOM     19  O   UNL     1       3.569   3.607  -0.558  0.00  0.00    -0.153 OA
BRANCH  17  22
ATOM     20  C   UNL     1      -0.013   1.342   0.014  0.00  0.00    +0.040 A 
ATOM     21  C   UNL     1       1.165   2.064   0.007  0.00  0.00    +0.031 A 
ATOM     22  C   UNL     1       2.381   1.406  -0.013  0.00  0.00    +0.106 A 
ATOM     23  C   UNL     1       2.420   0.024  -0.026  0.00  0.00    +0.031 A 
ATOM     24  C   UNL     1       1.243  -0.701  -0.019  0.00  0.00    +0.040 A 
ATOM     25  C   UNL     1       0.025  -0.042   0.002  0.00  0.00    +0.124 A 
ATOM     26  F   UNL     1      -1.126  -0.750   0.009  0.00  0.00    -0.205 F 
ENDBRANCH  17  22
ENDBRANCH   1  17
TORSDOF 3
