REMARK  Name = ZINC67444318
REMARK  13 active torsions:
REMARK  status: ('A' for Active; 'I' for Inactive)
REMARK    1  A    between atoms: C_1  and  C_2
REMARK    2  A    between atoms: C_2  and  C_4
REMARK    3  A    between atoms: C_2  and  N_14
REMARK    4  A    between atoms: C_7  and  S_10
REMARK    5  A    between atoms: S_10  and  N_13
REMARK    6  A    between atoms: N_14  and  C_15
REMARK    7  A    between atoms: N_14  and  C_16
REMARK    8  A    between atoms: C_16  and  C_17
REMARK    9  A    between atoms: N_19  and  C_20
REMARK   10  A    between atoms: C_20  and  C_21
REMARK   11  A    between atoms: C_21  and  C_22
REMARK   12  A    between atoms: C_22  and  O_24
REMARK   13  A    between atoms: O_24  and  C_25
REMARK                            x       y       z     vdW  Elec       q    Type
REMARK                         _______ _______ _______ _____ _____    ______ ____
ROOT
ATOM      1  C   UNL     1      -0.019   1.526   0.010  0.00  0.00    -0.008 C 
ATOM      2  C   UNL     1       0.002  -0.004   0.002  0.00  0.00    -0.041 C 
ENDROOT
BRANCH   2   3
ATOM      3  C   UNL     1       0.731  -0.503   1.223  0.00  0.00    -0.061 A 
ATOM      4  C   UNL     1       0.081  -0.558   2.442  0.00  0.00    +0.004 A 
ATOM      5  C   UNL     1       0.749  -1.016   3.562  0.00  0.00    +0.029 A 
ATOM      6  C   UNL     1       2.068  -1.420   3.463  0.00  0.00    +0.105 A 
ATOM      7  C   UNL     1       2.718  -1.365   2.244  0.00  0.00    +0.029 A 
ATOM      8  C   UNL     1       2.048  -0.911   1.123  0.00  0.00    +0.004 A 
BRANCH   6   9
ATOM      9  S   UNL     1       2.921  -2.002   4.890  0.00  0.00    +0.056 S 
ATOM     10  O   UNL     1       4.306  -1.804   4.645  0.00  0.00    -0.153 OA
ATOM     11  O   UNL     1       2.259  -1.441   6.016  0.00  0.00    -0.153 OA
BRANCH   9  12
ATOM     12  N   UNL     1       2.683  -3.639   4.969  0.00  0.00    -0.204 NA
ATOM     13  H   UNL     1       2.150  -4.085   4.292  0.00  0.00    +0.144 HD
ATOM     14  H   UNL     1       3.076  -4.152   5.692  0.00  0.00    +0.144 HD
ENDBRANCH   9  12
ENDBRANCH   6   9
ENDBRANCH   2   3
BRANCH   2  15
ATOM     15  N   UNL     1      -1.376  -0.512   0.012  0.00  0.00    +0.388 N 
ATOM     16  C   UNL     1      -2.087  -0.026  -1.178  0.00  0.00    -0.095 C 
ATOM     17  H   UNL     1      -1.848  -0.187   0.843  0.00  0.00    -0.081 HD
BRANCH  15  18
ATOM     18  C   UNL     1      -1.356  -1.981   0.004  0.00  0.00    +0.019 C 
BRANCH  18  19
ATOM     19  C   UNL     1      -2.763  -2.504   0.139  0.00  0.00    +0.196 C 
ATOM     20  O   UNL     1      -3.692  -1.728   0.232  0.00  0.00    -0.278 OA
ATOM     21  N   UNL     1      -2.990  -3.832   0.155  0.00  0.00    -0.316 N 
ATOM     22  H   UNL     1      -2.248  -4.452   0.081  0.00  0.00    +0.149 HD
BRANCH  21  23
ATOM     23  C   UNL     1      -4.359  -4.340   0.286  0.00  0.00    +0.115 C 
BRANCH  23  24
ATOM     24  C   UNL     1      -4.338  -5.870   0.278  0.00  0.00    +0.139 C 
BRANCH  24  25
ATOM     25  C   UNL     1      -5.745  -6.392   0.412  0.00  0.00    +0.308 C 
ATOM     26  O   UNL     1      -6.670  -5.620   0.505  0.00  0.00    -0.251 OA
BRANCH  25  27
ATOM     27  O   UNL     1      -5.971  -7.715   0.429  0.00  0.00    -0.468 OA
ATOM     28  C   UNL     1      -7.330  -8.139   0.559  0.00  0.00    +0.280 C 
ENDBRANCH  25  27
ENDBRANCH  24  25
ENDBRANCH  23  24
ENDBRANCH  21  23
ENDBRANCH  18  19
ENDBRANCH  15  18
ENDBRANCH   2  15
TORSDOF 10
