REMARK  Name = ZINC08236352
REMARK  5 active torsions:
REMARK  status: ('A' for Active; 'I' for Inactive)
REMARK    1  A    between atoms: C_1  and  C_2
REMARK    2  A    between atoms: C_2  and  C_28
REMARK    3  A    between atoms: C_6  and  C_17
REMARK    4  A    between atoms: C_22  and  O_23
REMARK    5  A    between atoms: O_23  and  C_24
REMARK                            x       y       z     vdW  Elec       q    Type
REMARK                         _______ _______ _______ _____ _____    ______ ____
ROOT
ATOM      1  C   UNL     1      -0.019   1.526   0.010  0.00  0.00    +0.011 C 
ATOM      2  C   UNL     1       0.002  -0.004   0.002  0.00  0.00    -0.023 C 
ATOM      3  C   UNL     1      -1.432  -0.538   0.039  0.00  0.00    +0.058 C 
ATOM      4  C   UNL     1      -1.409  -2.047   0.079  0.00  0.00    +0.017 C 
ATOM      5  C   UNL     1      -0.394  -2.711   0.671  0.00  0.00    +0.024 C 
ATOM      6  C   UNL     1      -0.371  -4.218   0.711  0.00  0.00    +0.094 C 
ATOM      7  C   UNL     1      -1.728  -4.791   0.426  0.00  0.00    +0.042 A 
ATOM      8  C   UNL     1      -2.018  -6.122   0.764  0.00  0.00    +0.126 A 
ATOM      9  N   UNL     1      -3.223  -6.619   0.504  0.00  0.00    -0.208 NA
ATOM     10  C   UNL     1      -4.161  -5.873  -0.073  0.00  0.00    +0.180 A 
ATOM     11  S   UNL     1      -5.699  -6.555  -0.391  0.00  0.00    -0.011 S 
ATOM     12  N   UNL     1      -3.923  -4.592  -0.412  0.00  0.00    -0.322 N 
ATOM     13  C   UNL     1      -2.698  -4.035  -0.163  0.00  0.00    +0.110 A 
ATOM     14  N   UNL     1      -2.446  -2.727  -0.498  0.00  0.00    -0.304 N 
ATOM     15  N   UNL     1      -1.058  -6.910   1.362  0.00  0.00    -0.343 N 
ATOM     16  C   UNL     1       0.676  -2.018   1.266  0.00  0.00    +0.162 C 
ATOM     17  O   UNL     1       1.563  -2.646   1.809  0.00  0.00    -0.292 OA
ATOM     18  C   UNL     1       0.743  -0.516   1.242  0.00  0.00    +0.086 C 
ATOM     19  C   UNL     1       0.708  -0.502  -1.261  0.00  0.00    +0.011 C 
ATOM     20  H   UNL     1      -3.009  -2.281  -1.151  0.00  0.00    +0.153 HD
ATOM     21  H   UNL     1      -1.261  -7.830   1.594  0.00  0.00    +0.144 HD
ATOM     22  H   UNL     1      -0.179  -6.545   1.550  0.00  0.00    +0.144 HD
ATOM     23  H   UNL     1      -4.619  -4.064  -0.832  0.00  0.00    +0.169 HD
ENDROOT
BRANCH   6  24
ATOM     24  C   UNL     1       0.604  -4.724  -0.321  0.00  0.00    +0.006 A 
ATOM     25  C   UNL     1       0.418  -4.418  -1.656  0.00  0.00    +0.008 A 
ATOM     26  C   UNL     1       1.311  -4.882  -2.603  0.00  0.00    +0.001 A 
ATOM     27  C   UNL     1       2.393  -5.653  -2.218  0.00  0.00    +0.004 A 
ATOM     28  C   UNL     1       2.583  -5.961  -0.885  0.00  0.00    +0.046 A 
ATOM     29  C   UNL     1       1.691  -5.492   0.069  0.00  0.00    +0.124 A 
BRANCH  29  30
ATOM     30  O   UNL     1       1.879  -5.789   1.381  0.00  0.00    -0.495 OA
ATOM     31  C   UNL     1       3.020  -6.584   1.709  0.00  0.00    +0.277 C 
ENDBRANCH  29  30
ENDBRANCH   6  24
TORSDOF 2
