REMARK  Name = ZINC30960626
REMARK  14 active torsions:
REMARK  status: ('A' for Active; 'I' for Inactive)
REMARK    1  A    between atoms: C_1  and  C_2
REMARK    2  A    between atoms: C_2  and  N_3
REMARK    3  A    between atoms: N_3  and  C_4
REMARK    4  A    between atoms: N_3  and  C_16
REMARK    5  A    between atoms: C_4  and  C_5
REMARK    6  A    between atoms: N_7  and  C_8
REMARK    7  A    between atoms: C_13  and  O_14
REMARK    8  A    between atoms: O_14  and  C_15
REMARK    9  A    between atoms: C_16  and  C_17
REMARK   10  A    between atoms: N_19  and  C_20
REMARK   11  A    between atoms: C_21  and  C_34
REMARK   12  A    between atoms: C_22  and  C_33
REMARK   13  A    between atoms: C_23  and  C_32
REMARK   14  A    between atoms: N_24  and  C_25
REMARK                            x       y       z     vdW  Elec       q    Type
REMARK                         _______ _______ _______ _____ _____    ______ ____
ROOT
ATOM      1  C   UNL     1      -3.432   3.378   4.169  0.00  0.00    +0.202 C 
ATOM      2  O   UNL     1      -2.429   3.470   4.845  0.00  0.00    -0.278 OA
ATOM      3  N   UNL     1      -3.344   2.995   2.880  0.00  0.00    -0.272 N 
ATOM      4  H   UNL     1      -4.238   3.008   2.239  0.00  0.00    +0.156 HD
ENDROOT
BRANCH   3   5
ATOM      5  C   UNL     1      -2.125   2.583   2.361  0.00  0.00    +0.128 A 
ATOM      6  C   UNL     1      -1.893   1.417   1.645  0.00  0.00    +0.095 A 
ATOM      7  C   UNL     1      -0.462   1.421   1.315  0.00  0.00    -0.010 A 
ATOM      8  C   UNL     1       0.049   2.552   1.829  0.00  0.00    +0.027 A 
ATOM      9  N   UNL     1      -0.945   3.254   2.458  0.00  0.00    -0.300 N 
ATOM     10  C   UNL     1       1.491   2.981   1.729  0.00  0.00    +0.064 C 
ATOM     11  C   UNL     1       0.286   0.364   0.544  0.00  0.00    +0.047 C 
BRANCH   9  12
ATOM     12  C   UNL     1      -0.772   4.485   3.108  0.00  0.00    +0.048 A 
ATOM     13  C   UNL     1       0.000   4.560   4.259  0.00  0.00    +0.029 A 
ATOM     14  C   UNL     1       0.174   5.774   4.895  0.00  0.00    +0.040 A 
ATOM     15  C   UNL     1      -0.431   6.913   4.391  0.00  0.00    +0.124 A 
ATOM     16  C   UNL     1      -1.207   6.839   3.246  0.00  0.00    +0.040 A 
ATOM     17  C   UNL     1      -1.378   5.628   2.605  0.00  0.00    +0.029 A 
ATOM     18  F   UNL     1      -0.264   8.099   5.017  0.00  0.00    -0.205 F 
ENDBRANCH   9  12
BRANCH   6  19
ATOM     19  C   UNL     1      -2.854   0.412   1.301  0.00  0.00    +0.103 C 
ATOM     20  N   UNL     1      -3.616  -0.385   1.028  0.00  0.00    -0.191 NA
ENDBRANCH   6  19
ENDBRANCH   3   5
BRANCH   1  21
ATOM     21  C   UNL     1      -4.778   3.694   4.770  0.00  0.00    +0.020 C 
BRANCH  21  22
ATOM     22  N   UNL     1      -4.619   3.980   6.202  0.00  0.00    +0.391 N 
ATOM     23  H   UNL     1      -3.911   3.247   6.617  0.00  0.00    -0.080 HD
BRANCH  22  25
ATOM     24  C   UNL     1      -6.200   2.340   7.101  0.00  0.00    -0.017 C 
ATOM     25  C   UNL     1      -5.895   3.827   6.914  0.00  0.00    -0.081 C 
ENDBRANCH  22  25
BRANCH  22  26
ATOM     26  C   UNL     1      -4.056   5.321   6.412  0.00  0.00    +0.020 C 
BRANCH  26  27
ATOM     27  C   UNL     1      -3.680   5.486   7.862  0.00  0.00    +0.201 C 
ATOM     28  O   UNL     1      -3.862   4.577   8.643  0.00  0.00    -0.278 OA
ATOM     29  N   UNL     1      -3.140   6.645   8.290  0.00  0.00    -0.284 N 
ATOM     30  H   UNL     1      -3.064   7.502   7.605  0.00  0.00    +0.155 HD
BRANCH  29  31
ATOM     31  C   UNL     1      -2.677   6.757   9.607  0.00  0.00    +0.076 A 
ATOM     32  C   UNL     1      -2.165   5.646  10.262  0.00  0.00    +0.027 A 
ATOM     33  C   UNL     1      -1.705   5.761  11.560  0.00  0.00    +0.002 A 
ATOM     34  C   UNL     1      -1.762   6.979  12.212  0.00  0.00    +0.004 A 
ATOM     35  C   UNL     1      -2.275   8.089  11.568  0.00  0.00    +0.047 A 
ATOM     36  C   UNL     1      -2.735   7.984  10.266  0.00  0.00    +0.141 A 
BRANCH  36  37
ATOM     37  O   UNL     1      -3.241   9.075   9.631  0.00  0.00    -0.493 OA
ATOM     38  C   UNL     1      -3.269  10.299  10.368  0.00  0.00    +0.277 C 
ENDBRANCH  36  37
ENDBRANCH  29  31
ENDBRANCH  26  27
ENDBRANCH  22  26
ENDBRANCH  21  22
ENDBRANCH   1  21
TORSDOF 10
