REMARK  Name = ZINC43526684
REMARK  13 active torsions:
REMARK  status: ('A' for Active; 'I' for Inactive)
REMARK    1  A    between atoms: C_1  and  N_2
REMARK    2  A    between atoms: C_3  and  C_17
REMARK    3  A    between atoms: C_5  and  C_7
REMARK    4  A    between atoms: C_10  and  O_15
REMARK    5  A    between atoms: C_11  and  O_13
REMARK    6  A    between atoms: O_13  and  C_14
REMARK    7  A    between atoms: O_15  and  C_16
REMARK    8  A    between atoms: C_26  and  C_28
REMARK    9  A    between atoms: C_28  and  N_29
REMARK   10  A    between atoms: N_29  and  C_30
REMARK   11  A    between atoms: C_30  and  N_32
REMARK   12  A    between atoms: N_32  and  C_33
REMARK   13  A    between atoms: C_36  and  C_39
REMARK                            x       y       z     vdW  Elec       q    Type
REMARK                         _______ _______ _______ _____ _____    ______ ____
ROOT
ATOM      1  C   UNL     1      -0.325   0.446  -3.100  0.00  0.00    +0.024 C 
ATOM      2  C   UNL     1       1.166   0.178  -3.317  0.00  0.00    -0.068 C 
ATOM      3  N   UNL     1       1.363  -0.605  -4.539  0.00  0.00    +0.383 N 
ATOM      4  C   UNL     1       0.695  -1.904  -4.433  0.00  0.00    -0.078 C 
ATOM      5  C   UNL     1      -0.812  -1.705  -4.254  0.00  0.00    -0.015 C 
ATOM      6  C   UNL     1      -1.118  -0.199  -4.245  0.00  0.00    -0.007 C 
ATOM      7  C   UNL     1      -0.628   0.401  -5.570  0.00  0.00    -0.010 C 
ATOM      8  C   UNL     1       0.875   0.133  -5.707  0.00  0.00    -0.051 C 
ATOM      9  H   UNL     1       2.351  -0.771  -4.656  0.00  0.00    -0.081 HD
ENDROOT
BRANCH   1  12
ATOM     10  C   UNL     1      -2.940   1.069  -1.565  0.00  0.00    +0.172 C 
ATOM     11  N   UNL     1      -1.904   0.130  -1.127  0.00  0.00    -0.271 N 
ATOM     12  C   UNL     1      -0.760  -0.151  -1.787  0.00  0.00    +0.041 A 
ATOM     13  C   UNL     1      -0.074  -1.061  -1.062  0.00  0.00    +0.053 A 
ATOM     14  C   UNL     1      -0.828  -1.352   0.092  0.00  0.00    +0.093 A 
ATOM     15  N   UNL     1      -1.927  -0.627   0.051  0.00  0.00    -0.171 NA
BRANCH  14  16
ATOM     16  C   UNL     1      -0.449  -2.302   1.166  0.00  0.00    +0.006 A 
ATOM     17  C   UNL     1       0.755  -2.999   1.088  0.00  0.00    +0.014 A 
ATOM     18  C   UNL     1       1.108  -3.883   2.088  0.00  0.00    +0.050 A 
ATOM     19  C   UNL     1       0.266  -4.080   3.172  0.00  0.00    +0.162 A 
ATOM     20  C   UNL     1      -0.939  -3.386   3.255  0.00  0.00    +0.162 A 
ATOM     21  C   UNL     1      -1.294  -2.495   2.258  0.00  0.00    +0.059 A 
BRANCH  20  22
ATOM     22  O   UNL     1      -1.764  -3.581   4.318  0.00  0.00    -0.491 OA
ATOM     23  C   UNL     1      -2.983  -2.836   4.338  0.00  0.00    +0.277 C 
ENDBRANCH  20  22
BRANCH  19  24
ATOM     24  O   UNL     1       0.616  -4.952   4.155  0.00  0.00    -0.491 OA
ATOM     25  C   UNL     1       1.865  -5.630   4.005  0.00  0.00    +0.277 C 
ENDBRANCH  19  24
ENDBRANCH  14  16
ENDBRANCH   1  12
BRANCH   8  26
ATOM     26  C   UNL     1       1.132  -0.691  -6.971  0.00  0.00    +0.088 C 
BRANCH  26  27
ATOM     27  N   UNL     1       2.553  -1.037  -7.048  0.00  0.00    -0.328 N 
ATOM     28  H   UNL     1       3.163  -0.742  -6.354  0.00  0.00    +0.148 HD
BRANCH  27  29
ATOM     29  C   UNL     1       3.014  -1.765  -8.084  0.00  0.00    +0.134 C 
ATOM     30  S   UNL     1       1.938  -2.286  -9.310  0.00  0.00    -0.019 S 
BRANCH  29  31
ATOM     31  N   UNL     1       4.322  -2.083  -8.156  0.00  0.00    -0.297 N 
ATOM     32  H   UNL     1       4.917  -1.858  -7.423  0.00  0.00    +0.154 HD
BRANCH  31  33
ATOM     33  C   UNL     1       4.820  -2.736  -9.283  0.00  0.00    +0.033 A 
ATOM     34  C   UNL     1       4.398  -2.352 -10.551  0.00  0.00    +0.024 A 
ATOM     35  C   UNL     1       4.888  -2.995 -11.666  0.00  0.00    +0.020 A 
ATOM     36  C   UNL     1       5.811  -4.035 -11.522  0.00  0.00    +0.052 A 
ATOM     37  C   UNL     1       6.233  -4.418 -10.246  0.00  0.00    +0.020 A 
ATOM     38  C   UNL     1       5.743  -3.767  -9.136  0.00  0.00    +0.024 A 
BRANCH  36  39
ATOM     39  C   UNL     1       6.322  -4.706 -12.679  0.00  0.00    +0.099 C 
ATOM     40  N   UNL     1       6.728  -5.238 -13.597  0.00  0.00    -0.191 NA
ENDBRANCH  36  39
ENDBRANCH  31  33
ENDBRANCH  29  31
ENDBRANCH  27  29
ENDBRANCH  26  27
ENDBRANCH   8  26
TORSDOF 10
