REMARK  Name = ZINC04554478
REMARK  6 active torsions:
REMARK  status: ('A' for Active; 'I' for Inactive)
REMARK    1  A    between atoms: C_1  and  C_2
REMARK    2  A    between atoms: C_6  and  N_8
REMARK    3  A    between atoms: C_9  and  C_11
REMARK    4  A    between atoms: C_15  and  N_16
REMARK    5  A    between atoms: C_17  and  C_19
REMARK    6  A    between atoms: C_19  and  N_55
REMARK                            x       y       z     vdW  Elec       q    Type
REMARK                         _______ _______ _______ _____ _____    ______ ____
ROOT
ATOM      1  C   UNL     1       1.059   7.391   0.242  0.00  0.00    +0.069 A 
ATOM      2  C   UNL     1       0.999   8.045   1.549  0.00  0.00    -0.023 A 
ATOM      3  C   UNL     1       0.987   9.389   1.515  0.00  0.00    -0.004 A 
ATOM      4  S   UNL     1       1.039   9.798  -0.212  0.00  0.00    -0.077 S 
ATOM      5  C   UNL     1       1.085   8.202  -0.879  0.00  0.00    +0.084 A 
ATOM      6  C   UNL     1       0.935   9.988   2.895  0.00  0.00    +0.043 C 
ATOM      7  C   UNL     1       1.356   8.837   3.835  0.00  0.00    +0.010 C 
ATOM      8  C   UNL     1       0.957   7.597   3.011  0.00  0.00    +0.037 C 
ENDROOT
BRANCH   1  10
ATOM      9  N   UNL     1      -0.069   5.241   0.030  0.00  0.00    -0.281 N 
ATOM     10  C   UNL     1       1.085   5.930   0.124  0.00  0.00    +0.251 C 
ATOM     11  O   UNL     1       2.150   5.339   0.111  0.00  0.00    -0.270 OA
ATOM     12  H   UNL     1      -0.913   5.715  -0.036  0.00  0.00    +0.155 HD
BRANCH   9  18
ATOM     13  C   UNL     1       1.953   1.034   1.574  0.00  0.00    +0.044 C 
ATOM     14  C   UNL     1       0.919   1.777   0.768  0.00  0.00    -0.049 A 
ATOM     15  C   UNL     1      -0.015   1.076   0.027  0.00  0.00    +0.003 A 
ATOM     16  C   UNL     1      -0.969   1.754  -0.709  0.00  0.00    +0.002 A 
ATOM     17  C   UNL     1      -0.990   3.135  -0.710  0.00  0.00    +0.023 A 
ATOM     18  C   UNL     1      -0.051   3.842   0.029  0.00  0.00    +0.034 A 
ATOM     19  C   UNL     1       0.907   3.158   0.767  0.00  0.00    +0.026 A 
ENDBRANCH   9  18
ENDBRANCH   1  10
BRANCH   5  20
ATOM     20  N   UNL     1       1.135   7.827  -2.213  0.00  0.00    -0.281 N 
ATOM     21  C   UNL     1       1.153   8.767  -3.178  0.00  0.00    +0.201 C 
ATOM     22  O   UNL     1       1.126   9.943  -2.880  0.00  0.00    -0.278 OA
ATOM     23  H   UNL     1       1.157   6.887  -2.452  0.00  0.00    +0.155 HD
BRANCH  21  24
ATOM     24  C   UNL     1       1.208   8.359  -4.628  0.00  0.00    +0.019 C 
BRANCH  24  30
ATOM     25  C   UNL     1      -0.048  10.295  -5.360  0.00  0.00    -0.078 C 
ATOM     26  C   UNL     1       0.053  11.609  -6.138  0.00  0.00    -0.019 C 
ATOM     27  C   UNL     1       0.358  11.305  -7.607  0.00  0.00    -0.004 C 
ATOM     28  C   UNL     1       1.655  10.498  -7.695  0.00  0.00    -0.019 C 
ATOM     29  C   UNL     1       1.509   9.215  -6.872  0.00  0.00    -0.078 C 
ATOM     30  N   UNL     1       1.241   9.577  -5.464  0.00  0.00    +0.385 N 
ATOM     31  H   UNL     1       1.992  10.191  -5.129  0.00  0.00    -0.081 HD
ENDBRANCH  24  30
ENDBRANCH  21  24
ENDBRANCH   5  20
TORSDOF 5
