REMARK  Name = ZINC02916376
REMARK  4 active torsions:
REMARK  status: ('A' for Active; 'I' for Inactive)
REMARK    1  A    between atoms: C_1  and  O_2
REMARK    2  A    between atoms: O_2  and  C_3
REMARK    3  A    between atoms: C_8  and  C_9
REMARK    4  A    between atoms: C_12  and  C_19
REMARK                            x       y       z     vdW  Elec       q    Type
REMARK                         _______ _______ _______ _____ _____    ______ ____
ROOT
ATOM      1  C   UNL     1       0.051  -2.828  -0.033  0.00  0.00    +0.152 C 
ATOM      2  C   UNL     1      -1.033  -3.740  -0.621  0.00  0.00    +0.088 C 
ATOM      3  C   UNL     1      -1.354  -4.873   0.313  0.00  0.00    +0.055 C 
ATOM      4  N   UNL     1      -0.456  -5.427   1.083  0.00  0.00    -0.214 NA
ATOM      5  C   UNL     1       0.801  -4.912   1.096  0.00  0.00    +0.270 A 
ATOM      6  N   UNL     1       1.076  -3.675   0.570  0.00  0.00    -0.202 N 
ATOM      7  N   UNL     1       2.441  -3.482   0.755  0.00  0.00    -0.042 NA
ATOM      8  N   UNL     1       2.884  -4.537   1.362  0.00  0.00    -0.021 NA
ATOM      9  N   UNL     1       1.927  -5.378   1.569  0.00  0.00    -0.088 NA
ENDROOT
BRANCH   3  10
ATOM     10  C   UNL     1      -2.735  -5.377   0.363  0.00  0.00    -0.004 A 
ATOM     11  C   UNL     1      -3.720  -4.810  -0.452  0.00  0.00    +0.011 A 
ATOM     12  C   UNL     1      -5.012  -5.288  -0.401  0.00  0.00    +0.015 A 
ATOM     13  C   UNL     1      -5.335  -6.327   0.455  0.00  0.00    +0.013 A 
ATOM     14  C   UNL     1      -4.366  -6.894   1.265  0.00  0.00    +0.015 A 
ATOM     15  C   UNL     1      -3.068  -6.430   1.221  0.00  0.00    +0.011 A 
ATOM     16  I   UNL     1      -7.302  -7.046   0.525  0.00  0.00    -0.044 I 
ENDBRANCH   3  10
BRANCH   1  22
ATOM     17  C   UNL     1       0.606  -0.607  -1.056  0.00  0.00    +0.125 A 
ATOM     18  C   UNL     1       1.173   0.161  -2.063  0.00  0.00    +0.046 A 
ATOM     19  C   UNL     1       1.786  -0.455  -3.136  0.00  0.00    +0.004 A 
ATOM     20  C   UNL     1       1.836  -1.835  -3.208  0.00  0.00    +0.001 A 
ATOM     21  C   UNL     1       1.271  -2.602  -2.207  0.00  0.00    +0.009 A 
ATOM     22  C   UNL     1       0.661  -1.991  -1.128  0.00  0.00    +0.019 A 
BRANCH  17  24
ATOM     23  C   UNL     1      -0.017   1.425   0.010  0.00  0.00    +0.277 C 
ATOM     24  O   UNL     1       0.002  -0.004   0.002  0.00  0.00    -0.495 OA
ENDBRANCH  17  24
ENDBRANCH   1  22
TORSDOF 3
