REMARK  Name = ZINC48353961
REMARK  8 active torsions:
REMARK  status: ('A' for Active; 'I' for Inactive)
REMARK    1  A    between atoms: C_1  and  C_2
REMARK    2  A    between atoms: N_7  and  C_9
REMARK    3  A    between atoms: C_9  and  C_10
REMARK    4  A    between atoms: C_9  and  C_11
REMARK    5  A    between atoms: C_9  and  C_12
REMARK    6  A    between atoms: C_12  and  N_13
REMARK    7  A    between atoms: N_13  and  S_14
REMARK    8  A    between atoms: S_14  and  C_17
REMARK                            x       y       z     vdW  Elec       q    Type
REMARK                         _______ _______ _______ _____ _____    ______ ____
ROOT
ATOM      1  S   UNL     1       2.690  -6.033   1.013  0.00  0.00    +0.058 S 
ATOM      2  O   UNL     1       3.219  -6.183  -0.297  0.00  0.00    -0.153 OA
ATOM      3  O   UNL     1       3.452  -6.312   2.180  0.00  0.00    -0.153 OA
ENDROOT
BRANCH   1   4
ATOM      4  C   UNL     1       1.253  -7.049   1.096  0.00  0.00    +0.106 A 
ATOM      5  C   UNL     1       0.796  -7.506   2.318  0.00  0.00    +0.030 A 
ATOM      6  C   UNL     1      -0.328  -8.302   2.386  0.00  0.00    +0.026 A 
ATOM      7  C   UNL     1      -1.013  -8.652   1.221  0.00  0.00    +0.041 A 
ATOM      8  C   UNL     1      -0.548  -8.189   0.001  0.00  0.00    -0.023 A 
ATOM      9  C   UNL     1       0.576  -7.387  -0.061  0.00  0.00    +0.034 A 
ATOM     10  C   UNL     1      -1.459  -8.706  -1.089  0.00  0.00    +0.056 C 
ATOM     11  C   UNL     1      -2.521  -9.534  -0.347  0.00  0.00    +0.120 C 
ATOM     12  N   UNL     1      -2.159  -9.439   1.070  0.00  0.00    -0.255 N 
ATOM     13  C   UNL     1      -2.833 -10.025   2.080  0.00  0.00    +0.304 C 
ATOM     14  O   UNL     1      -2.452  -9.886   3.226  0.00  0.00    -0.253 OA
ATOM     15  N   UNL     1      -3.929 -10.764   1.819  0.00  0.00    -0.313 N 
ATOM     16  H   UNL     1      -4.233 -10.875   0.905  0.00  0.00    +0.146 HD
ATOM     17  H   UNL     1      -4.414 -11.185   2.546  0.00  0.00    +0.146 HD
ENDBRANCH   1   4
BRANCH   1  18
ATOM     18  N   UNL     1       2.186  -4.461   1.142  0.00  0.00    -0.191 NA
ATOM     19  H   UNL     1       2.304  -3.851   0.397  0.00  0.00    +0.148 HD
BRANCH  18  20
ATOM     20  C   UNL     1       1.562  -3.991   2.382  0.00  0.00    +0.093 C 
BRANCH  20  21
ATOM     21  C   UNL     1       1.534  -2.461   2.390  0.00  0.00    -0.057 C 
ATOM     22  C   UNL     1       2.963  -1.924   2.303  0.00  0.00    -0.009 C 
ATOM     23  C   UNL     1       0.882  -1.970   3.685  0.00  0.00    -0.009 C 
BRANCH  21  29
ATOM     24  C   UNL     1      -0.019   1.526   0.010  0.00  0.00    +0.005 C 
ATOM     25  C   UNL     1       0.002  -0.004   0.002  0.00  0.00    -0.031 C 
ATOM     26  C   UNL     1      -1.434  -0.535   0.015  0.00  0.00    -0.001 C 
ATOM     27  C   UNL     1      -1.402  -2.064   0.086  0.00  0.00    -0.018 C 
ATOM     28  C   UNL     1      -0.613  -2.496   1.324  0.00  0.00    -0.078 C 
ATOM     29  N   UNL     1       0.758  -1.980   1.239  0.00  0.00    +0.384 N 
ATOM     30  C   UNL     1       0.740  -0.512   1.242  0.00  0.00    -0.075 C 
ATOM     31  H   UNL     1       1.188  -2.307   0.386  0.00  0.00    -0.081 HD
ENDBRANCH  21  29
ENDBRANCH  20  21
ENDBRANCH  18  20
ENDBRANCH   1  18
TORSDOF 5
