REMARK  Name = ZINC41333845
REMARK  4 active torsions:
REMARK  status: ('A' for Active; 'I' for Inactive)
REMARK    1  A    between atoms: C_1  and  N_2
REMARK    2  A    between atoms: C_11  and  N_25
REMARK    3  A    between atoms: C_12  and  N_14
REMARK    4  A    between atoms: N_14  and  C_15
REMARK                            x       y       z     vdW  Elec       q    Type
REMARK                         _______ _______ _______ _____ _____    ______ ____
ROOT
ATOM      1  C   UNL     1      -2.591  -0.902   0.364  0.00  0.00    -0.096 C 
ATOM      2  N   UNL     1      -1.966  -2.231   0.330  0.00  0.00    +0.380 N 
ATOM      3  C   UNL     1      -1.225  -2.389  -0.928  0.00  0.00    -0.060 C 
ATOM      4  C   UNL     1      -0.669  -3.814  -1.016  0.00  0.00    +0.089 C 
ATOM      5  N   UNL     1       0.125  -4.081   0.194  0.00  0.00    -0.303 N 
ATOM      6  C   UNL     1      -0.487  -3.793   1.501  0.00  0.00    +0.089 C 
ATOM      7  C   UNL     1      -1.052  -2.369   1.470  0.00  0.00    -0.060 C 
ATOM      8  C   UNL     1       1.409  -4.588   0.105  0.00  0.00    +0.221 A 
ATOM      9  N   UNL     1       1.884  -4.936  -1.081  0.00  0.00    -0.197 NA
ATOM     10  C   UNL     1       3.115  -5.428  -1.205  0.00  0.00    +0.154 A 
ATOM     11  C   UNL     1       3.904  -5.573  -0.067  0.00  0.00    +0.205 A 
ATOM     12  C   UNL     1       3.370  -5.196   1.161  0.00  0.00    +0.160 A 
ATOM     13  N   UNL     1       2.133  -4.707   1.208  0.00  0.00    -0.197 NA
ATOM     14  N   UNL     1       3.605  -5.790  -2.450  0.00  0.00    -0.341 N 
ATOM     15  H   UNL     1       3.049  -5.687  -3.239  0.00  0.00    +0.144 HD
ATOM     16  H   UNL     1       4.503  -6.148  -2.533  0.00  0.00    +0.144 HD
ATOM     17  H   UNL     1      -2.682  -2.940   0.387  0.00  0.00    -0.082 HD
ENDROOT
BRANCH  11  18
ATOM     18  N   UNL     1       5.278  -6.116  -0.162  0.00  0.00    +0.063 N 
ATOM     19  O   UNL     1       6.213  -5.369  -0.336  0.00  0.00    -0.126 OA
ATOM     20  O   UNL     1       5.465  -7.306  -0.066  0.00  0.00    -0.126 OA
ENDBRANCH  11  18
BRANCH  12  21
ATOM     21  N   UNL     1       4.120  -5.323   2.322  0.00  0.00    -0.296 N 
ATOM     22  H   UNL     1       4.984  -5.763   2.295  0.00  0.00    +0.154 HD
BRANCH  21  23
ATOM     23  C   UNL     1       3.631  -4.817   3.527  0.00  0.00    +0.059 A 
ATOM     24  C   UNL     1       2.530  -3.988   3.536  0.00  0.00    +0.025 A 
ATOM     25  C   UNL     1       2.033  -3.476   4.731  0.00  0.00    +0.003 A 
ATOM     26  C   UNL     1       2.620  -3.780   5.921  0.00  0.00    +0.010 A 
ATOM     27  C   UNL     1       3.743  -4.622   5.954  0.00  0.00    +0.002 A 
ATOM     28  C   UNL     1       4.257  -5.155   4.746  0.00  0.00    +0.092 A 
ATOM     29  N   UNL     1       5.322  -5.960   4.774  0.00  0.00    -0.253 NA
ATOM     30  C   UNL     1       5.908  -6.277   5.903  0.00  0.00    +0.111 A 
ATOM     31  C   UNL     1       5.450  -5.793   7.127  0.00  0.00    +0.020 A 
ATOM     32  C   UNL     1       4.373  -4.954   7.168  0.00  0.00    +0.011 A 
ENDBRANCH  21  23
ENDBRANCH  12  21
TORSDOF 3
