REMARK  Name = ZINC64600382
REMARK  9 active torsions:
REMARK  status: ('A' for Active; 'I' for Inactive)
REMARK    1  A    between atoms: C_1  and  C_2
REMARK    2  A    between atoms: C_2  and  C_3
REMARK    3  A    between atoms: C_16  and  C_19
REMARK    4  A    between atoms: C_21  and  O_38
REMARK    5  A    between atoms: C_23  and  O_37
REMARK    6  A    between atoms: N_25  and  C_28
REMARK    7  A    between atoms: C_28  and  C_29
REMARK    8  A    between atoms: C_32  and  O_35
REMARK    9  A    between atoms: O_35  and  C_36
REMARK                            x       y       z     vdW  Elec       q    Type
REMARK                         _______ _______ _______ _____ _____    ______ ____
ROOT
ATOM      1  C   UNL     1       1.829   0.130  -3.590  0.00  0.00    +0.179 C 
ATOM      2  C   UNL     1       2.745  -0.514  -2.591  0.00  0.00    +0.200 C 
ATOM      3  N   UNL     1       3.012   0.009  -1.457  0.00  0.00    -0.204 NA
ATOM      4  C   UNL     1       2.468   1.274  -0.993  0.00  0.00    +0.334 C 
ATOM      5  N   UNL     1       1.985   2.099  -2.090  0.00  0.00    -0.252 N 
ATOM      6  C   UNL     1       1.676   1.593  -3.287  0.00  0.00    +0.233 C 
ATOM      7  O   UNL     1       1.262   2.337  -4.151  0.00  0.00    -0.275 OA
ENDROOT
BRANCH   1  19
ATOM      8  C   UNL     1       1.417  -2.453  -4.739  0.00  0.00    +0.058 C 
ATOM      9  C   UNL     1       0.691  -2.119  -6.055  0.00  0.00    +0.052 C 
ATOM     10  C   UNL     1       0.301  -0.664  -5.962  0.00  0.00    -0.036 C 
ATOM     11  C   UNL     1       0.456   0.355  -6.794  0.00  0.00    -0.001 A 
ATOM     12  C   UNL     1       0.943   0.427  -8.181  0.00  0.00    +0.010 A 
ATOM     13  C   UNL     1       0.996   1.667  -8.735  0.00  0.00    +0.001 A 
ATOM     14  C   UNL     1       0.617   2.830  -8.057  0.00  0.00    +0.002 A 
ATOM     15  C   UNL     1       0.146   2.856  -6.785  0.00  0.00    +0.026 A 
ATOM     16  C   UNL     1       0.035   1.611  -6.100  0.00  0.00    +0.043 A 
ATOM     17  N   UNL     1      -0.405   1.345  -4.905  0.00  0.00    -0.376 N 
ATOM     18  C   UNL     1      -0.390  -0.104  -4.722  0.00  0.00    +0.124 C 
ATOM     19  C   UNL     1       0.458  -0.546  -3.527  0.00  0.00    +0.101 C 
ATOM     20  N   UNL     1       0.617  -2.008  -3.595  0.00  0.00    -0.307 NA
ATOM     21  H   UNL     1      -0.279  -2.473  -3.577  0.00  0.00    +0.123 HD
ATOM     22  H   UNL     1      -0.694   1.998  -4.247  0.00  0.00    +0.160 HD
BRANCH   8  24
ATOM     23  C   UNL     1       2.479  -4.286  -3.415  0.00  0.00    +0.005 C 
ATOM     24  C   UNL     1       1.633  -3.965  -4.649  0.00  0.00    +0.015 C 
ENDBRANCH   8  24
ENDBRANCH   1  19
BRANCH   4  25
ATOM     25  O   UNL     1       1.385   1.014  -0.098  0.00  0.00    -0.356 OA
ATOM     26  H   UNL     1       1.617   0.439   0.644  0.00  0.00    +0.214 HD
ENDBRANCH   4  25
BRANCH   2  27
ATOM     27  O   UNL     1       3.312  -1.698  -2.904  0.00  0.00    -0.495 OA
ATOM     28  H   UNL     1       3.889  -2.052  -2.214  0.00  0.00    +0.293 HD
ENDBRANCH   2  27
BRANCH   5  29
ATOM     29  C   UNL     1       1.830   3.540  -1.873  0.00  0.00    +0.147 C 
BRANCH  29  30
ATOM     30  C   UNL     1       3.114   4.243  -2.230  0.00  0.00    -0.030 A 
ATOM     31  C   UNL     1       4.089   4.430  -1.268  0.00  0.00    +0.009 A 
ATOM     32  C   UNL     1       5.267   5.075  -1.593  0.00  0.00    +0.046 A 
ATOM     33  C   UNL     1       5.472   5.533  -2.886  0.00  0.00    +0.120 A 
ATOM     34  C   UNL     1       4.492   5.343  -3.850  0.00  0.00    +0.046 A 
ATOM     35  C   UNL     1       3.318   4.694  -3.521  0.00  0.00    +0.009 A 
BRANCH  33  36
ATOM     36  O   UNL     1       6.629   6.168  -3.208  0.00  0.00    -0.495 OA
ATOM     37  C   UNL     1       6.771   6.613  -4.558  0.00  0.00    +0.277 C 
ENDBRANCH  33  36
ENDBRANCH  29  30
ENDBRANCH   5  29
TORSDOF 7
