REMARK  Name = ZINC65435734
REMARK  9 active torsions:
REMARK  status: ('A' for Active; 'I' for Inactive)
REMARK    1  A    between atoms: C_1  and  C_2
REMARK    2  A    between atoms: C_3  and  C_27
REMARK    3  A    between atoms: C_7  and  N_14
REMARK    4  A    between atoms: C_9  and  C_11
REMARK    5  A    between atoms: C_11  and  C_12
REMARK    6  A    between atoms: C_12  and  N_13
REMARK    7  A    between atoms: C_20  and  C_22
REMARK    8  A    between atoms: C_22  and  C_23
REMARK    9  A    between atoms: N_25  and  C_26
REMARK                            x       y       z     vdW  Elec       q    Type
REMARK                         _______ _______ _______ _____ _____    ______ ____
ROOT
ATOM      1  C   UNL     1      -0.569   1.485   0.118  0.00  0.00    +0.045 C 
ATOM      2  C   UNL     1      -0.496  -0.020   0.099  0.00  0.00    -0.028 A 
ATOM      3  C   UNL     1      -0.788  -0.700  -1.020  0.00  0.00    -0.008 A 
ATOM      4  S   UNL     1      -0.559  -2.403  -0.544  0.00  0.00    -0.074 S 
ATOM      5  C   UNL     1      -0.078  -2.156   1.145  0.00  0.00    +0.114 A 
ATOM      6  C   UNL     1      -0.102  -0.751   1.291  0.00  0.00    +0.051 A 
ATOM      7  C   UNL     1       0.255  -0.267   2.579  0.00  0.00    +0.134 A 
ATOM      8  N   UNL     1       0.583  -1.131   3.526  0.00  0.00    -0.217 NA
ATOM      9  C   UNL     1       0.589  -2.436   3.316  0.00  0.00    +0.131 A 
ATOM     10  N   UNL     1       0.257  -2.946   2.146  0.00  0.00    -0.225 NA
ATOM     11  C   UNL     1      -1.209  -0.154  -2.359  0.00  0.00    +0.052 C 
ENDROOT
BRANCH   7  12
ATOM     12  N   UNL     1       0.262   1.092   2.839  0.00  0.00    -0.301 N 
ATOM     13  C   UNL     1       1.501   1.883   2.749  0.00  0.00    +0.126 C 
ATOM     14  C   UNL     1       1.310   2.947   1.667  0.00  0.00    +0.123 C 
ATOM     15  N   UNL     1       0.029   3.621   1.824  0.00  0.00    -0.312 N 
ATOM     16  C   UNL     1      -1.018   3.114   2.476  0.00  0.00    +0.234 C 
ATOM     17  O   UNL     1      -2.059   3.736   2.471  0.00  0.00    -0.274 OA
ATOM     18  C   UNL     1      -0.969   1.806   3.210  0.00  0.00    +0.169 C 
ATOM     19  H   UNL     1      -0.070   4.500   1.427  0.00  0.00    +0.149 HD
BRANCH  18  20
ATOM     20  C   UNL     1      -0.974   2.069   4.717  0.00  0.00    +0.127 C 
BRANCH  20  21
ATOM     21  C   UNL     1      -1.037   0.757   5.456  0.00  0.00    +0.215 C 
ATOM     22  O   UNL     1      -1.075  -0.286   4.838  0.00  0.00    -0.276 OA
ATOM     23  N   UNL     1      -1.053   0.743   6.803  0.00  0.00    -0.318 N 
ATOM     24  C   UNL     1      -1.114  -0.532   7.522  0.00  0.00    +0.128 C 
ATOM     25  H   UNL     1      -1.023   1.577   7.298  0.00  0.00    +0.148 HD
ENDBRANCH  20  21
ENDBRANCH  18  20
ENDBRANCH   7  12
BRANCH   9  26
ATOM     26  C   UNL     1       0.972  -3.361   4.441  0.00  0.00    +0.057 C 
BRANCH  26  27
ATOM     27  C   UNL     1      -0.279  -3.747   5.233  0.00  0.00    -0.079 C 
BRANCH  27  28
ATOM     28  N   UNL     1       0.095  -4.649   6.330  0.00  0.00    +0.378 N 
ATOM     29  H   UNL     1       0.522  -5.481   5.951  0.00  0.00    -0.090 HD
ATOM     30  H   UNL     1       0.749  -4.184   6.941  0.00  0.00    -0.090 HD
ATOM     31  H   UNL     1      -0.730  -4.904   6.853  0.00  0.00    -0.090 HD
ENDBRANCH  27  28
ENDBRANCH  26  27
ENDBRANCH   9  26
TORSDOF 6
