REMARK  Name = ZINC15707549
REMARK  8 active torsions:
REMARK  status: ('A' for Active; 'I' for Inactive)
REMARK    1  A    between atoms: N_4  and  C_6
REMARK    2  A    between atoms: C_9  and  N_12
REMARK    3  A    between atoms: N_12  and  C_13
REMARK    4  A    between atoms: C_13  and  N_15
REMARK    5  A    between atoms: N_15  and  C_16
REMARK    6  A    between atoms: C_25  and  C_28
REMARK    7  A    between atoms: C_28  and  C_29
REMARK    8  A    between atoms: C_29  and  C_30
REMARK                            x       y       z     vdW  Elec       q    Type
REMARK                         _______ _______ _______ _____ _____    ______ ____
ROOT
ATOM      1  C   UNL     1      10.312   3.576  -0.390  0.00  0.00    +0.054 C 
ATOM      2  C   UNL     1      11.775   3.330   0.067  0.00  0.00    +0.014 C 
ATOM      3  C   UNL     1      12.605   3.631  -1.182  0.00  0.00    +0.021 C 
ATOM      4  C   UNL     1      13.835   2.803  -1.359  0.00  0.00    +0.200 C 
ATOM      5  O   UNL     1      14.467   2.427  -0.394  0.00  0.00    -0.278 OA
ATOM      6  N   UNL     1      14.234   2.480  -2.604  0.00  0.00    -0.318 N 
ATOM      7  C   UNL     1      13.482   2.775  -3.817  0.00  0.00    +0.089 C 
ATOM      8  C   UNL     1      12.298   3.716  -3.549  0.00  0.00    -0.050 C 
ATOM      9  C   UNL     1      10.418   3.923  -1.901  0.00  0.00    -0.055 C 
ATOM     10  H   UNL     1      15.082   2.019  -2.701  0.00  0.00    +0.149 HD
ATOM     11  N   UNL     1      11.711   3.276  -2.242  0.00  0.00    +0.391 N 
ATOM     12  H   UNL     1      11.581   2.259  -2.272  0.00  0.00    -0.080 HD
ENDROOT
BRANCH   1  13
ATOM     13  N   UNL     1       9.508   2.366  -0.200  0.00  0.00    -0.325 N 
ATOM     14  H   UNL     1       9.942   1.500  -0.145  0.00  0.00    +0.148 HD
BRANCH  13  15
ATOM     15  C   UNL     1       8.167   2.456  -0.102  0.00  0.00    +0.135 C 
ATOM     16  S   UNL     1       7.403   3.985  -0.199  0.00  0.00    -0.019 S 
BRANCH  15  17
ATOM     17  N   UNL     1       7.428   1.343   0.073  0.00  0.00    -0.297 N 
ATOM     18  H   UNL     1       7.864   0.488   0.211  0.00  0.00    +0.154 HD
BRANCH  17  22
ATOM     19  C   UNL     1       3.266   1.576   0.019  0.00  0.00    +0.065 A 
ATOM     20  C   UNL     1       3.905   0.775   0.957  0.00  0.00    +0.029 A 
ATOM     21  C   UNL     1       5.282   0.693   0.971  0.00  0.00    +0.025 A 
ATOM     22  C   UNL     1       6.030   1.421   0.054  0.00  0.00    +0.033 A 
ATOM     23  C   UNL     1       5.392   2.226  -0.880  0.00  0.00    +0.025 A 
ATOM     24  C   UNL     1       4.014   2.303  -0.898  0.00  0.00    +0.029 A 
BRANCH  19  28
ATOM     25  C   UNL     1      -0.242   1.346   0.488  0.00  0.00    +0.041 A 
ATOM     26  C   UNL     1      -0.168   2.237  -0.588  0.00  0.00    +0.135 A 
ATOM     27  N   UNL     1       1.094   2.423  -0.880  0.00  0.00    -0.175 NA
ATOM     28  N   UNL     1       1.866   1.655   0.002  0.00  0.00    -0.240 N 
ATOM     29  C   UNL     1       1.022   1.003   0.832  0.00  0.00    +0.114 A 
ENDBRANCH  19  28
ENDBRANCH  17  22
ENDBRANCH  15  17
ENDBRANCH  13  15
ENDBRANCH   1  13
BRANCH   8  30
ATOM     30  C   UNL     1      11.284   3.613  -4.690  0.00  0.00    -0.005 C 
BRANCH  30  31
ATOM     31  C   UNL     1      11.895   4.187  -5.969  0.00  0.00    +0.094 C 
BRANCH  31  32
ATOM     32  C   UNL     1      10.938   3.989  -7.116  0.00  0.00    +0.216 C 
ATOM     33  O   UNL     1       9.871   3.442  -6.929  0.00  0.00    -0.276 OA
ATOM     34  N   UNL     1      11.266   4.419  -8.351  0.00  0.00    -0.301 N 
ATOM     35  C   UNL     1      12.517   5.100  -8.716  0.00  0.00    +0.108 C 
ATOM     36  C   UNL     1      12.439   5.423 -10.223  0.00  0.00    +0.020 C 
ATOM     37  C   UNL     1      10.912   5.421 -10.498  0.00  0.00    +0.020 C 
ATOM     38  C   UNL     1      10.428   4.290  -9.557  0.00  0.00    +0.108 C 
ENDBRANCH  31  32
ENDBRANCH  30  31
ENDBRANCH   8  30
TORSDOF 8
