REMARK  Name = ZINC49781477
REMARK  12 active torsions:
REMARK  status: ('A' for Active; 'I' for Inactive)
REMARK    1  A    between atoms: C_1  and  C_2
REMARK    2  A    between atoms: C_3  and  C_31
REMARK    3  A    between atoms: C_4  and  C_22
REMARK    4  A    between atoms: C_6  and  C_10
REMARK    5  A    between atoms: C_7  and  C_9
REMARK    6  A    between atoms: C_10  and  O_12
REMARK    7  A    between atoms: O_12  and  C_13
REMARK    8  A    between atoms: C_13  and  C_14
REMARK    9  A    between atoms: C_14  and  C_15
REMARK   10  A    between atoms: C_26  and  N_28
REMARK   11  A    between atoms: C_31  and  O_33
REMARK   12  A    between atoms: O_33  and  C_34
REMARK                            x       y       z     vdW  Elec       q    Type
REMARK                         _______ _______ _______ _____ _____    ______ ____
ROOT
ATOM      1  C   UNL     1       0.208   1.497   0.119  0.00  0.00    +0.061 C 
ATOM      2  C   UNL     1       0.113  -0.006   0.057  0.00  0.00    +0.016 C 
ATOM      3  C   UNL     1      -1.091  -0.599   0.143  0.00  0.00    +0.065 C 
ATOM      4  C   UNL     1      -1.233  -2.093   0.095  0.00  0.00    +0.096 C 
ATOM      5  C   UNL     1       0.019  -2.730  -0.438  0.00  0.00    +0.065 C 
ATOM      6  C   UNL     1       1.178  -2.052  -0.502  0.00  0.00    +0.016 C 
ATOM      7  N   UNL     1       1.251  -0.750  -0.092  0.00  0.00    -0.321 N 
ATOM      8  C   UNL     1       2.411  -2.734  -1.036  0.00  0.00    +0.061 C 
ATOM      9  H   UNL     1       2.116  -0.353   0.097  0.00  0.00    +0.152 HD
ENDROOT
BRANCH   4  10
ATOM     10  C   UNL     1      -1.498  -2.611   1.486  0.00  0.00    -0.033 A 
ATOM     11  C   UNL     1      -0.579  -2.387   2.494  0.00  0.00    +0.005 A 
ATOM     12  C   UNL     1      -0.823  -2.862   3.769  0.00  0.00    +0.003 A 
ATOM     13  C   UNL     1      -1.985  -3.562   4.036  0.00  0.00    +0.033 A 
ATOM     14  C   UNL     1      -2.904  -3.785   3.028  0.00  0.00    +0.126 A 
ATOM     15  C   UNL     1      -2.663  -3.306   1.754  0.00  0.00    +0.037 A 
BRANCH  14  16
ATOM     16  N   UNL     1      -4.148  -4.534   3.314  0.00  0.00    +0.056 N 
ATOM     17  O   UNL     1      -4.361  -4.950   4.429  0.00  0.00    -0.126 OA
ATOM     18  O   UNL     1      -4.952  -4.729   2.432  0.00  0.00    -0.126 OA
ENDBRANCH  14  16
ENDBRANCH   4  10
BRANCH   5  19
ATOM     19  C   UNL     1      -0.023  -4.072  -0.883  0.00  0.00    +0.338 C 
ATOM     20  O   UNL     1      -0.451  -4.332  -1.992  0.00  0.00    -0.245 OA
BRANCH  19  21
ATOM     21  O   UNL     1       0.412  -5.064  -0.078  0.00  0.00    -0.461 OA
BRANCH  21  22
ATOM     22  C   UNL     1       0.341  -6.395  -0.593  0.00  0.00    +0.237 C 
BRANCH  22  23
ATOM     23  C   UNL     1       0.874  -7.375   0.454  0.00  0.00    +0.076 C 
BRANCH  23  24
ATOM     24  C   UNL     1       0.799  -8.779  -0.088  0.00  0.00    -0.044 A 
ATOM     25  C   UNL     1      -0.340  -9.537   0.111  0.00  0.00    +0.005 A 
ATOM     26  C   UNL     1      -0.410 -10.825  -0.386  0.00  0.00    +0.020 A 
ATOM     27  C   UNL     1       0.661 -11.355  -1.083  0.00  0.00    +0.041 A 
ATOM     28  C   UNL     1       1.800 -10.597  -1.282  0.00  0.00    +0.020 A 
ATOM     29  C   UNL     1       1.867  -9.307  -0.790  0.00  0.00    +0.005 A 
ATOM     30 CL   UNL     1       0.574 -12.973  -1.707  0.00  0.00    -0.084 Cl
ENDBRANCH  23  24
ENDBRANCH  22  23
ENDBRANCH  21  22
ENDBRANCH  19  21
ENDBRANCH   5  19
BRANCH   3  31
ATOM     31  C   UNL     1      -2.248   0.202   0.283  0.00  0.00    +0.337 C 
ATOM     32  O   UNL     1      -2.148   1.414   0.324  0.00  0.00    -0.245 OA
BRANCH  31  33
ATOM     33  O   UNL     1      -3.463  -0.378   0.371  0.00  0.00    -0.465 OA
ATOM     34  C   UNL     1      -4.588   0.492   0.511  0.00  0.00    +0.280 C 
ENDBRANCH  31  33
ENDBRANCH   3  31
TORSDOF 9
