REMARK  Name = ZINC45551540
REMARK  11 active torsions:
REMARK  status: ('A' for Active; 'I' for Inactive)
REMARK    1  A    between atoms: C_1  and  C_2
REMARK    2  A    between atoms: C_2  and  C_3
REMARK    3  A    between atoms: C_3  and  N_4
REMARK    4  A    between atoms: N_4  and  C_5
REMARK    5  A    between atoms: C_5  and  C_6
REMARK    6  A    between atoms: C_5  and  C_7
REMARK    7  A    between atoms: C_5  and  C_18
REMARK    8  A    between atoms: C_7  and  C_8
REMARK    9  A    between atoms: C_8  and  C_9
REMARK   10  A    between atoms: C_9  and  S_10
REMARK   11  A    between atoms: S_10  and  C_11
REMARK                            x       y       z     vdW  Elec       q    Type
REMARK                         _______ _______ _______ _____ _____    ______ ____
ROOT
ATOM      1  C   UNL     1       1.472  -2.466   2.424  0.00  0.00    +0.007 C 
ATOM      2  C   UNL     1       2.908  -1.937   2.413  0.00  0.00    -0.001 C 
ENDROOT
BRANCH   1   3
ATOM      3  C   UNL     1       0.767  -1.980   3.663  0.00  0.00    +0.199 C 
ATOM      4  O   UNL     1       1.408  -1.689   4.651  0.00  0.00    -0.278 OA
ATOM      5  N   UNL     1      -0.576  -1.870   3.675  0.00  0.00    -0.330 N 
ATOM      6  H   UNL     1      -1.089  -2.103   2.885  0.00  0.00    +0.145 HD
ATOM      7  H   UNL     1      -1.030  -1.557   4.473  0.00  0.00    +0.145 HD
ENDBRANCH   1   3
BRANCH   1   8
ATOM      8  N   UNL     1       0.762  -1.980   1.234  0.00  0.00    +0.388 N 
ATOM      9  H   UNL     1      -0.185  -2.329   1.241  0.00  0.00    -0.084 HD
ATOM     10  H   UNL     1       1.234  -2.305   0.403  0.00  0.00    -0.084 HD
BRANCH   8  11
ATOM     11  C   UNL     1       0.742  -0.511   1.242  0.00  0.00    -0.081 C 
BRANCH  11  13
ATOM     12  C   UNL     1      -0.019   1.526   0.010  0.00  0.00    +0.002 C 
ATOM     13  C   UNL     1       0.002  -0.004   0.002  0.00  0.00    -0.022 C 
ENDBRANCH  11  13
ENDBRANCH   8  11
ENDBRANCH   1   8
BRANCH   1  14
ATOM     14  C   UNL     1       1.493  -3.996   2.415  0.00  0.00    -0.003 C 
BRANCH  14  15
ATOM     15  C   UNL     1       2.233  -4.503   3.655  0.00  0.00    +0.010 C 
BRANCH  15  16
ATOM     16  C   UNL     1       2.254  -6.033   3.646  0.00  0.00    +0.074 C 
BRANCH  16  17
ATOM     17  S   UNL     1       3.131  -6.634   5.116  0.00  0.00    -0.125 S 
BRANCH  17  18
ATOM     18  C   UNL     1       3.070  -8.388   4.962  0.00  0.00    +0.008 A 
ATOM     19  C   UNL     1       2.441  -8.969   3.867  0.00  0.00    +0.016 A 
ATOM     20  C   UNL     1       2.394 -10.344   3.749  0.00  0.00    +0.016 A 
ATOM     21  C   UNL     1       2.974 -11.143   4.719  0.00  0.00    +0.018 A 
ATOM     22  C   UNL     1       3.601 -10.568   5.809  0.00  0.00    +0.016 A 
ATOM     23  C   UNL     1       3.655  -9.193   5.931  0.00  0.00    +0.016 A 
ATOM     24 BR   UNL     1       2.908 -13.026   4.553  0.00  0.00    -0.050 Br
ENDBRANCH  17  18
ENDBRANCH  16  17
ENDBRANCH  15  16
ENDBRANCH  14  15
ENDBRANCH   1  14
TORSDOF 9
