REMARK  Name = ZINC50677862
REMARK  10 active torsions:
REMARK  status: ('A' for Active; 'I' for Inactive)
REMARK    1  A    between atoms: C_1  and  C_2
REMARK    2  A    between atoms: C_2  and  C_3
REMARK    3  A    between atoms: C_2  and  C_4
REMARK    4  A    between atoms: C_2  and  N_17
REMARK    5  A    between atoms: C_4  and  N_5
REMARK    6  A    between atoms: N_5  and  S_6
REMARK    7  A    between atoms: S_6  and  C_9
REMARK    8  A    between atoms: C_14  and  N_15
REMARK    9  A    between atoms: N_17  and  C_18
REMARK   10  A    between atoms: N_17  and  C_19
REMARK                            x       y       z     vdW  Elec       q    Type
REMARK                         _______ _______ _______ _____ _____    ______ ____
ROOT
ATOM      1  S   UNL     1      -2.773  -2.896   0.522  0.00  0.00    +0.062 S 
ATOM      2  O   UNL     1      -2.520  -4.294   0.560  0.00  0.00    -0.153 OA
ATOM      3  O   UNL     1      -3.185  -2.165   1.669  0.00  0.00    -0.153 OA
ENDROOT
BRANCH   1   4
ATOM      4  C   UNL     1      -4.008  -2.641  -0.709  0.00  0.00    +0.146 A 
ATOM      5  C   UNL     1      -5.129  -1.881  -0.429  0.00  0.00    +0.048 A 
ATOM      6  C   UNL     1      -6.077  -1.706  -1.430  0.00  0.00    +0.038 A 
ATOM      7  C   UNL     1      -5.873  -2.292  -2.664  0.00  0.00    +0.128 A 
ATOM      8  N   UNL     1      -4.793  -3.012  -2.901  0.00  0.00    -0.238 NA
ATOM      9  C   UNL     1      -3.865  -3.196  -1.976  0.00  0.00    +0.143 A 
ATOM     10 BR   UNL     1      -7.631  -0.678  -1.105  0.00  0.00    -0.049 Br
BRANCH   9  11
ATOM     11  N   UNL     1      -2.739  -3.957  -2.272  0.00  0.00    -0.342 N 
ATOM     12  H   UNL     1      -2.016  -4.024  -1.628  0.00  0.00    +0.144 HD
ATOM     13  H   UNL     1      -2.676  -4.420  -3.121  0.00  0.00    +0.144 HD
ENDBRANCH   9  11
ENDBRANCH   1   4
BRANCH   1  14
ATOM     14  N   UNL     1      -1.383  -2.178  -0.022  0.00  0.00    -0.191 NA
ATOM     15  H   UNL     1      -0.604  -2.720  -0.221  0.00  0.00    +0.148 HD
BRANCH  14  16
ATOM     16  C   UNL     1      -1.332  -0.725  -0.203  0.00  0.00    +0.093 C 
BRANCH  16  18
ATOM     17  C   UNL     1       0.179   1.238  -0.527  0.00  0.00    -0.009 C 
ATOM     18  C   UNL     1       0.126  -0.279  -0.338  0.00  0.00    -0.058 C 
ATOM     19  C   UNL     1       0.896  -0.664   0.927  0.00  0.00    -0.009 C 
BRANCH  18  20
ATOM     20  N   UNL     1       0.734  -0.939  -1.501  0.00  0.00    +0.380 N 
ATOM     21  C   UNL     1      -0.006  -0.570  -2.716  0.00  0.00    -0.096 C 
ATOM     22  C   UNL     1       2.133  -0.511  -1.631  0.00  0.00    -0.096 C 
ATOM     23  H   UNL     1       0.698  -1.940  -1.377  0.00  0.00    -0.082 HD
ENDBRANCH  18  20
ENDBRANCH  16  18
ENDBRANCH  14  16
ENDBRANCH   1  14
TORSDOF 6
