REMARK  Name = ZINC19962469
REMARK  5 active torsions:
REMARK  status: ('A' for Active; 'I' for Inactive)
REMARK    1  A    between atoms: C_1  and  C_2
REMARK    2  A    between atoms: C_5  and  C_15
REMARK    3  A    between atoms: CA_8  and  C_12
REMARK    4  A    between atoms: C_18  and  S_21
REMARK    5  A    between atoms: S_21  and  C_22
REMARK                            x       y       z     vdW  Elec       q    Type
REMARK                         _______ _______ _______ _____ _____    ______ ____
ROOT
ATOM      1  C   UNL     1      -0.018   1.503   0.010  0.00  0.00    +0.085 C 
ATOM      2  C   UNL     1       0.002  -0.004   0.002  0.00  0.00    +0.117 C 
ATOM      3  N   UNL     1       0.008  -0.747  -1.058  0.00  0.00    -0.166 NA
ATOM      4  N   UNL     1       0.028  -2.085  -0.659  0.00  0.00    -0.182 N 
ATOM      5  C   UNL     1       0.041  -3.357  -1.393  0.00  0.00    +0.156 C 
ATOM      6  C   UNL     1       0.062  -4.621  -0.554  0.00  0.00    +0.037 C 
ATOM      7  CA  UNL     1       0.065  -4.474   0.788  0.00  0.00    +0.153 C 
ATOM      8  N   UNL     1       0.051  -3.244   1.370  0.00  0.00    -0.210 NA
ATOM      9  C   UNL     1       0.034  -2.112   0.706  0.00  0.00    +0.209 C 
ATOM     10  N   UNL     1       0.024  -0.805   1.118  0.00  0.00    -0.273 N 
ATOM     11  H   UNL     1       0.028  -0.498   2.039  0.00  0.00    +0.156 HD
ENDROOT
BRANCH   5  12
ATOM     12  C   UNL     1      -1.181  -3.401  -2.274  0.00  0.00    -0.021 A 
ATOM     13  C   UNL     1      -2.389  -2.921  -1.802  0.00  0.00    +0.007 A 
ATOM     14  C   UNL     1      -3.511  -2.961  -2.606  0.00  0.00    +0.015 A 
ATOM     15  C   UNL     1      -3.425  -3.483  -3.891  0.00  0.00    +0.008 A 
ATOM     16  C   UNL     1      -2.209  -3.964  -4.362  0.00  0.00    +0.015 A 
ATOM     17  C   UNL     1      -1.090  -3.916  -3.554  0.00  0.00    +0.007 A 
BRANCH  15  18
ATOM     18  S   UNL     1      -4.854  -3.536  -4.920  0.00  0.00    -0.129 S 
ATOM     19  C   UNL     1      -4.257  -4.283  -6.462  0.00  0.00    +0.090 C 
ENDBRANCH  15  18
ENDBRANCH   5  12
BRANCH   7  20
ATOM     20  C   UNL     1       0.084  -5.676   1.645  0.00  0.00    +0.404 C 
ATOM     21  O   UNL     1       0.097  -6.789   1.137  0.00  0.00    -0.239 OA
ATOM     22  OXT UNL     1       0.088  -5.560   2.862  0.00  0.00    -0.239 OA
ENDBRANCH   7  20
TORSDOF 3
