REMARK  Name = ZINC01909208
REMARK  9 active torsions:
REMARK  status: ('A' for Active; 'I' for Inactive)
REMARK    1  A    between atoms: C_1  and  C_2
REMARK    2  A    between atoms: C_2  and  O_3
REMARK    3  A    between atoms: O_3  and  C_4
REMARK    4  A    between atoms: C_4  and  C_6
REMARK    5  A    between atoms: C_10  and  N_11
REMARK    6  A    between atoms: C_12  and  C_14
REMARK    7  A    between atoms: C_14  and  O_15
REMARK    8  A    between atoms: O_15  and  C_16
REMARK    9  A    between atoms: C_27  and  C_29
REMARK                            x       y       z     vdW  Elec       q    Type
REMARK                         _______ _______ _______ _____ _____    ______ ____
ROOT
ATOM      1  C   UNL     1      -1.116   2.230   0.018  0.00  0.00    +0.091 A 
ATOM      2  C   UNL     1      -0.860   3.661   0.028  0.00  0.00    -0.019 A 
ATOM      3  C   UNL     1       0.444   4.012   0.018  0.00  0.00    -0.004 A 
ATOM      4  S   UNL     1       1.326   2.477   0.003  0.00  0.00    -0.077 S 
ATOM      5  C   UNL     1      -0.017   1.382   0.010  0.00  0.00    +0.086 A 
ATOM      6  C   UNL     1       1.005   5.400   0.021  0.00  0.00    +0.043 C 
ATOM      7  C   UNL     1      -0.115   6.374   0.415  0.00  0.00    +0.006 C 
ATOM      8  C   UNL     1      -1.362   6.051  -0.412  0.00  0.00    +0.008 C 
ATOM      9  C   UNL     1      -1.958   4.718   0.043  0.00  0.00    +0.018 C 
ATOM     10  C   UNL     1      -3.080   4.305  -0.910  0.00  0.00    +0.012 C 
ENDROOT
BRANCH   5  11
ATOM     11  N   UNL     1       0.002  -0.004   0.002  0.00  0.00    -0.277 N 
ATOM     12  C   UNL     1       1.178  -0.662  -0.012  0.00  0.00    +0.255 C 
ATOM     13  O   UNL     1       2.220  -0.041  -0.018  0.00  0.00    -0.272 OA
ATOM     14  H   UNL     1      -0.943  -0.567   0.008  0.00  0.00    +0.155 HD
BRANCH  12  15
ATOM     15  C   UNL     1       1.199  -2.169  -0.021  0.00  0.00    +0.325 C 
BRANCH  15  16
ATOM     16  O   UNL     1       2.552  -2.627  -0.035  0.00  0.00    -0.482 OA
BRANCH  16  17
ATOM     17  C   UNL     1       2.749  -3.972  -0.044  0.00  0.00    +0.135 A 
ATOM     18  C   UNL     1       1.661  -4.833  -0.033  0.00  0.00    +0.048 A 
ATOM     19  C   UNL     1       1.862  -6.199  -0.049  0.00  0.00    +0.023 A 
ATOM     20  C   UNL     1       3.148  -6.710  -0.063  0.00  0.00    +0.042 A 
ATOM     21  C   UNL     1       4.235  -5.854  -0.068  0.00  0.00    +0.039 A 
ATOM     22  C   UNL     1       4.038  -4.486  -0.059  0.00  0.00    +0.061 A 
ATOM     23 BR   UNL     1       5.523  -3.316  -0.065  0.00  0.00    -0.046 Br
ATOM     24 CL   UNL     1       3.398  -8.428  -0.074  0.00  0.00    -0.084 Cl
ENDBRANCH  16  17
ENDBRANCH  15  16
ENDBRANCH  12  15
ENDBRANCH   5  11
BRANCH   1  25
ATOM     25  C   UNL     1      -2.482   1.703   0.022  0.00  0.00    +0.342 C 
ATOM     26  O   UNL     1      -3.046   1.479   1.077  0.00  0.00    -0.245 OA
BRANCH  25  27
ATOM     27  O   UNL     1      -3.116   1.465  -1.145  0.00  0.00    -0.461 OA
BRANCH  27  29
ATOM     28  C   UNL     1      -5.020   0.738  -2.478  0.00  0.00    +0.048 C 
ATOM     29  C   UNL     1      -4.469   0.943  -1.065  0.00  0.00    +0.229 C 
ENDBRANCH  27  29
ENDBRANCH  25  27
ENDBRANCH   1  25
TORSDOF 7
