REMARK  Name = ZINC29615862
REMARK  13 active torsions:
REMARK  status: ('A' for Active; 'I' for Inactive)
REMARK    1  A    between atoms: C_1  and  C_2
REMARK    2  A    between atoms: C_5  and  N_9
REMARK    3  A    between atoms: C_6  and  C_8
REMARK    4  A    between atoms: C_13  and  C_15
REMARK    5  A    between atoms: C_15  and  C_17
REMARK    6  A    between atoms: C_15  and  N_18
REMARK    7  A    between atoms: N_18  and  C_19
REMARK    8  A    between atoms: C_19  and  C_21
REMARK    9  A    between atoms: C_19  and  C_22
REMARK   10  A    between atoms: C_24  and  O_30
REMARK   11  A    between atoms: C_27  and  O_28
REMARK   12  A    between atoms: O_28  and  C_29
REMARK   13  A    between atoms: O_30  and  C_31
REMARK                            x       y       z     vdW  Elec       q    Type
REMARK                         _______ _______ _______ _____ _____    ______ ____
ROOT
ATOM      1  C   UNL     1      -6.028   2.108  -0.377  0.00  0.00    +0.014 C 
ATOM      2  C   UNL     1      -6.014   2.995  -1.623  0.00  0.00    -0.004 C 
ENDROOT
BRANCH   1   7
ATOM      3  N   UNL     1      -1.237   2.069   0.019  0.00  0.00    -0.269 N 
ATOM      4  C   UNL     1      -2.394   1.385  -0.081  0.00  0.00    +0.310 C 
ATOM      5  O   UNL     1      -2.383   0.170  -0.088  0.00  0.00    -0.252 OA
ATOM      6  N   UNL     1      -3.563   2.049  -0.173  0.00  0.00    -0.241 N 
ATOM      7  C   UNL     1      -4.721   1.365  -0.273  0.00  0.00    +0.206 C 
ATOM      8  O   UNL     1      -4.710   0.153  -0.280  0.00  0.00    -0.277 OA
ATOM      9  H   UNL     1      -1.252   3.166   0.100  0.00  0.00    +0.156 HD
ATOM     10  H   UNL     1      -3.574   3.149  -0.167  0.00  0.00    +0.159 HD
BRANCH   3  15
ATOM     11  C   UNL     1       3.704  -0.718   0.008  0.00  0.00    +0.044 C 
ATOM     12  C   UNL     1       2.392   0.023   0.013  0.00  0.00    -0.050 A 
ATOM     13  C   UNL     1       1.282  -0.542   0.613  0.00  0.00    +0.005 A 
ATOM     14  C   UNL     1       0.078   0.134   0.619  0.00  0.00    +0.024 A 
ATOM     15  C   UNL     1      -0.017   1.384   0.020  0.00  0.00    +0.038 A 
ATOM     16  C   UNL     1       1.099   1.949  -0.581  0.00  0.00    -0.029 A 
ATOM     17  C   UNL     1       2.300   1.267  -0.584  0.00  0.00    +0.008 A 
ATOM     18  C   UNL     1       1.000   3.305  -1.232  0.00  0.00    +0.045 C 
ENDBRANCH   3  15
ENDBRANCH   1   7
BRANCH   1  19
ATOM     19  N   UNL     1      -7.132   1.144  -0.474  0.00  0.00    +0.391 N 
ATOM     20  H   UNL     1      -7.263   0.842  -1.523  0.00  0.00    -0.084 HD
ATOM     21  H   UNL     1      -6.901   0.258   0.136  0.00  0.00    -0.084 HD
BRANCH  19  22
ATOM     22  C   UNL     1      -8.389   1.732   0.008  0.00  0.00    -0.039 C 
ATOM     23  C   UNL     1      -8.475   1.578   1.527  0.00  0.00    -0.009 C 
BRANCH  22  24
ATOM     24  C   UNL     1      -9.554   1.025  -0.636  0.00  0.00    -0.016 A 
ATOM     25  C   UNL     1      -9.409  -0.272  -1.090  0.00  0.00    +0.051 A 
ATOM     26  C   UNL     1     -10.481  -0.922  -1.682  0.00  0.00    +0.121 A 
ATOM     27  C   UNL     1     -11.699  -0.271  -1.818  0.00  0.00    +0.049 A 
ATOM     28  C   UNL     1     -11.843   1.025  -1.364  0.00  0.00    +0.049 A 
ATOM     29  C   UNL     1     -10.772   1.674  -0.767  0.00  0.00    +0.122 A 
BRANCH  29  30
ATOM     30  O   UNL     1     -10.916   2.948  -0.315  0.00  0.00    -0.495 OA
ATOM     31  C   UNL     1     -12.199   3.555  -0.483  0.00  0.00    +0.277 C 
ENDBRANCH  29  30
BRANCH  26  32
ATOM     32  O   UNL     1     -10.339  -2.199  -2.129  0.00  0.00    -0.495 OA
ATOM     33  C   UNL     1     -11.485  -2.808  -2.728  0.00  0.00    +0.277 C 
ENDBRANCH  26  32
ENDBRANCH  22  24
ENDBRANCH  19  22
ENDBRANCH   1  19
TORSDOF 7
