REMARK  Name = ZINC11394837
REMARK  8 active torsions:
REMARK  status: ('A' for Active; 'I' for Inactive)
REMARK    1  A    between atoms: C_1  and  C_2
REMARK    2  A    between atoms: C_2  and  O_3
REMARK    3  A    between atoms: O_3  and  C_4
REMARK    4  A    between atoms: C_4  and  C_6
REMARK    5  A    between atoms: C_7  and  C_21
REMARK    6  A    between atoms: C_12  and  C_14
REMARK    7  A    between atoms: C_21  and  S_22
REMARK    8  A    between atoms: S_22  and  C_23
REMARK                            x       y       z     vdW  Elec       q    Type
REMARK                         _______ _______ _______ _____ _____    ______ ____
ROOT
ATOM      1  C   UNL     1      -6.950   5.138   1.255  0.00  0.00    +0.079 C 
ATOM      2  C   UNL     1      -6.270   4.973   0.100  0.00  0.00    +0.034 C 
ATOM      3  N   UNL     1      -6.921   4.688  -1.067  0.00  0.00    -0.272 N 
ATOM      4  C   UNL     1      -8.251   4.557  -1.162  0.00  0.00    +0.304 C 
ATOM      5  O   UNL     1      -8.740   4.302  -2.245  0.00  0.00    -0.252 OA
ATOM      6  N   UNL     1      -9.063   4.699  -0.096  0.00  0.00    -0.288 N 
ATOM      7  C   UNL     1      -8.459   5.008   1.210  0.00  0.00    +0.144 C 
ATOM      8  H   UNL     1      -6.391   4.573  -1.871  0.00  0.00    +0.156 HD
ATOM      9  H   UNL     1     -10.024   4.600  -0.188  0.00  0.00    +0.151 HD
ENDROOT
BRANCH   7  10
ATOM     10  C   UNL     1      -9.056   6.300   1.705  0.00  0.00    -0.022 A 
ATOM     11  C   UNL     1      -9.277   7.341   0.822  0.00  0.00    +0.007 A 
ATOM     12  C   UNL     1      -9.830   8.525   1.274  0.00  0.00    +0.020 A 
ATOM     13  C   UNL     1     -10.151   8.672   2.611  0.00  0.00    +0.041 A 
ATOM     14  C   UNL     1      -9.923   7.632   3.495  0.00  0.00    +0.020 A 
ATOM     15  C   UNL     1      -9.375   6.447   3.042  0.00  0.00    +0.007 A 
ATOM     16 CL   UNL     1     -10.839  10.161   3.181  0.00  0.00    -0.084 Cl
ENDBRANCH   7  10
BRANCH   1  17
ATOM     17  C   UNL     1      -6.276   5.428   2.464  0.00  0.00    +0.339 C 
ATOM     18  O   UNL     1      -5.085   5.677   2.453  0.00  0.00    -0.245 OA
BRANCH  17  19
ATOM     19  O   UNL     1      -6.954   5.429   3.631  0.00  0.00    -0.462 OA
BRANCH  19  21
ATOM     20  C   UNL     1      -7.141   5.684   6.027  0.00  0.00    +0.048 C 
ATOM     21  C   UNL     1      -6.210   5.731   4.813  0.00  0.00    +0.229 C 
ENDBRANCH  19  21
ENDBRANCH  17  19
ENDBRANCH   1  17
BRANCH   2  22
ATOM     22  C   UNL     1      -4.769   5.099   0.098  0.00  0.00    +0.128 C 
BRANCH  22  23
ATOM     23  S   UNL     1      -4.301   6.749  -0.496  0.00  0.00    -0.081 S 
BRANCH  23  24
ATOM     24  C   UNL     1      -2.540   6.739  -0.439  0.00  0.00    +0.174 A 
ATOM     25  N   UNL     1      -1.795   5.729  -0.045  0.00  0.00    -0.229 NA
ATOM     26  C   UNL     1      -0.501   6.059  -0.128  0.00  0.00    +0.139 A 
ATOM     27  C   UNL     1      -0.427   7.349  -0.601  0.00  0.00    +0.067 A 
ATOM     28  N   UNL     1      -1.734   7.773  -0.796  0.00  0.00    -0.295 N 
ATOM     29  C   UNL     1      -1.980   9.041  -1.265  0.00  0.00    +0.094 A 
ATOM     30  C   UNL     1      -0.963   9.874  -1.548  0.00  0.00    +0.018 A 
ATOM     31  C   UNL     1       0.374   9.468  -1.358  0.00  0.00    +0.003 A 
ATOM     32  C   UNL     1       0.643   8.222  -0.891  0.00  0.00    +0.028 A 
ENDBRANCH  23  24
ENDBRANCH  22  23
ENDBRANCH   2  22
TORSDOF 7
