REMARK  Name = ZINC22009595
REMARK  4 active torsions:
REMARK  status: ('A' for Active; 'I' for Inactive)
REMARK    1  A    between atoms: C_1  and  C_2
REMARK    2  A    between atoms: C_6  and  C_7
REMARK    3  A    between atoms: N_9  and  N_10
REMARK    4  A    between atoms: C_11  and  C_13
REMARK                            x       y       z     vdW  Elec       q    Type
REMARK                         _______ _______ _______ _____ _____    ______ ____
ROOT
ATOM      1  N   UNL     1       3.705  -2.043  -0.055  0.00  0.00    -0.230 N 
ATOM      2  C   UNL     1       3.690  -0.696  -0.047  0.00  0.00    +0.260 C 
ATOM      3  O   UNL     1       4.736  -0.076  -0.056  0.00  0.00    -0.269 OA
ATOM      4  H   UNL     1       2.759  -2.604  -0.047  0.00  0.00    +0.173 HD
ENDROOT
BRANCH   2   5
ATOM      5  C   UNL     1       2.404   0.028  -0.026  0.00  0.00    +0.042 A 
ATOM      6  C   UNL     1       1.201  -0.682  -0.016  0.00  0.00    +0.017 A 
ATOM      7  C   UNL     1       0.002  -0.004   0.002  0.00  0.00    +0.050 A 
ATOM      8  C   UNL     1      -0.017   1.386   0.010  0.00  0.00    +0.162 A 
ATOM      9  C   UNL     1       1.179   2.099   0.002  0.00  0.00    +0.163 A 
ATOM     10  C   UNL     1       2.386   1.425  -0.017  0.00  0.00    +0.062 A 
ATOM     11  O   UNL     1       1.178   3.461   0.018  0.00  0.00    -0.485 OA
ATOM     12  C   UNL     1      -0.049   4.107  -0.339  0.00  0.00    +0.270 C 
ATOM     13  C   UNL     1      -1.194   3.412   0.409  0.00  0.00    +0.270 C 
ATOM     14  O   UNL     1      -1.212   2.034   0.019  0.00  0.00    -0.485 OA
ENDBRANCH   2   5
BRANCH   1  17
ATOM     15  C   UNL     1       4.941  -4.078  -0.083  0.00  0.00    +0.267 C 
ATOM     16  O   UNL     1       3.894  -4.698  -0.074  0.00  0.00    -0.268 OA
ATOM     17  N   UNL     1       4.926  -2.730  -0.074  0.00  0.00    -0.230 N 
ATOM     18  H   UNL     1       5.873  -2.170  -0.083  0.00  0.00    +0.173 HD
BRANCH  15  24
ATOM     19  C   UNL     1       5.318  -7.155  -0.094  0.00  0.00    +0.045 C 
ATOM     20  C   UNL     1       6.453  -6.162  -0.109  0.00  0.00    -0.031 A 
ATOM     21  C   UNL     1       7.762  -6.572  -0.133  0.00  0.00    +0.011 A 
ATOM     22  C   UNL     1       8.750  -5.639  -0.139  0.00  0.00    +0.046 A 
ATOM     23  S   UNL     1       7.878  -4.141  -0.119  0.00  0.00    -0.092 S 
ATOM     24  C   UNL     1       6.219  -4.796  -0.103  0.00  0.00    +0.078 A 
ENDBRANCH  15  24
ENDBRANCH   1  17
TORSDOF 3
