REMARK  Name = ZINC39945213
REMARK  12 active torsions:
REMARK  status: ('A' for Active; 'I' for Inactive)
REMARK    1  A    between atoms: C_1  and  C_2
REMARK    2  A    between atoms: C_4  and  C_12
REMARK    3  A    between atoms: C_12  and  C_14
REMARK    4  A    between atoms: C_14  and  C_16
REMARK    5  A    between atoms: C_14  and  O_17
REMARK    6  A    between atoms: O_17  and  C_18
REMARK    7  A    between atoms: C_18  and  C_20
REMARK    8  A    between atoms: C_22  and  S_27
REMARK    9  A    between atoms: S_27  and  N_30
REMARK   10  A    between atoms: N_30  and  C_31
REMARK   11  A    between atoms: N_30  and  C_32
REMARK   12  A    between atoms: C_32  and  C_33
REMARK                            x       y       z     vdW  Elec       q    Type
REMARK                         _______ _______ _______ _____ _____    ______ ____
ROOT
ATOM      1  C   UNL     1      -5.237  -1.880  -3.423  0.00  0.00    +0.079 A 
ATOM      2  C   UNL     1      -5.041  -1.094  -4.561  0.00  0.00    +0.045 A 
ATOM      3  C   UNL     1      -5.830  -1.290  -5.675  0.00  0.00    +0.106 A 
ATOM      4  C   UNL     1      -6.815  -2.263  -5.668  0.00  0.00    +0.030 A 
ATOM      5  C   UNL     1      -7.016  -3.045  -4.546  0.00  0.00    +0.023 A 
ATOM      6  C   UNL     1      -6.229  -2.864  -3.425  0.00  0.00    +0.055 A 
ATOM      7 CL   UNL     1      -6.477  -3.852  -2.019  0.00  0.00    -0.083 Cl
ENDROOT
BRANCH   3   8
ATOM      8  S   UNL     1      -5.584  -0.299  -7.111  0.00  0.00    +0.061 S 
ATOM      9  O   UNL     1      -6.837  -0.232  -7.778  0.00  0.00    -0.153 OA
ATOM     10  O   UNL     1      -4.884   0.863  -6.687  0.00  0.00    -0.153 OA
BRANCH   8  11
ATOM     11  N   UNL     1      -4.559  -1.131  -8.110  0.00  0.00    -0.175 NA
ATOM     12  C   UNL     1      -3.110  -0.972  -7.970  0.00  0.00    +0.132 C 
BRANCH  11  13
ATOM     13  C   UNL     1      -5.102  -2.025  -9.136  0.00  0.00    +0.144 C 
BRANCH  13  14
ATOM     14  C   UNL     1      -5.162  -1.300 -10.455  0.00  0.00    -0.032 A 
ATOM     15  C   UNL     1      -6.333  -0.681 -10.851  0.00  0.00    +0.005 A 
ATOM     16  C   UNL     1      -6.388  -0.015 -12.061  0.00  0.00    +0.000 A 
ATOM     17  C   UNL     1      -5.272   0.033 -12.875  0.00  0.00    +0.000 A 
ATOM     18  C   UNL     1      -4.101  -0.585 -12.479  0.00  0.00    +0.000 A 
ATOM     19  C   UNL     1      -4.044  -1.247 -11.267  0.00  0.00    +0.005 A 
ENDBRANCH  13  14
ENDBRANCH  11  13
ENDBRANCH   8  11
ENDBRANCH   3   8
BRANCH   1  20
ATOM     20  C   UNL     1      -4.396  -1.676  -2.227  0.00  0.00    +0.341 C 
ATOM     21  O   UNL     1      -4.566  -2.364  -1.240  0.00  0.00    -0.245 OA
BRANCH  20  22
ATOM     22  O   UNL     1      -3.441  -0.726  -2.229  0.00  0.00    -0.450 OA
BRANCH  22  23
ATOM     23  C   UNL     1      -2.665  -0.584  -1.038  0.00  0.00    +0.244 C 
ATOM     24  C   UNL     1      -3.340   0.426  -0.107  0.00  0.00    +0.061 C 
BRANCH  23  25
ATOM     25  C   UNL     1      -1.284  -0.095  -1.393  0.00  0.00    +0.202 C 
ATOM     26  O   UNL     1      -1.084   0.430  -2.469  0.00  0.00    -0.288 OA
BRANCH  25  29
ATOM     27  C   UNL     1       1.339   1.644  -0.926  0.00  0.00    +0.035 C 
ATOM     28  C   UNL     1       1.225   0.139  -0.677  0.00  0.00    +0.111 C 
ATOM     29  C   UNL     1      -0.224  -0.247  -0.474  0.00  0.00    +0.030 C 
ATOM     30  C   UNL     1      -0.291  -0.780   0.801  0.00  0.00    +0.007 A 
ATOM     31  C   UNL     1      -1.355  -1.313   1.566  0.00  0.00    +0.010 A 
ATOM     32  C   UNL     1      -1.131  -1.774   2.816  0.00  0.00    +0.001 A 
ATOM     33  C   UNL     1       0.140  -1.750   3.412  0.00  0.00    +0.002 A 
ATOM     34  C   UNL     1       1.222  -1.263   2.767  0.00  0.00    +0.026 A 
ATOM     35  C   UNL     1       1.065  -0.740   1.400  0.00  0.00    +0.043 A 
ATOM     36  N   UNL     1       1.920  -0.222   0.563  0.00  0.00    -0.377 N 
ATOM     37  H   UNL     1       2.866  -0.093   0.733  0.00  0.00    +0.160 HD
ENDBRANCH  25  29
ENDBRANCH  23  25
ENDBRANCH  22  23
ENDBRANCH  20  22
ENDBRANCH   1  20
TORSDOF 9
