REMARK  Name = ZINC23372232
REMARK  9 active torsions:
REMARK  status: ('A' for Active; 'I' for Inactive)
REMARK    1  A    between atoms: C_1  and  C_2
REMARK    2  A    between atoms: C_5  and  C_36
REMARK    3  A    between atoms: C_10  and  C_12
REMARK    4  A    between atoms: C_12  and  N_13
REMARK    5  A    between atoms: N_16  and  C_19
REMARK    6  A    between atoms: C_19  and  C_21
REMARK    7  A    between atoms: C_19  and  C_22
REMARK    8  A    between atoms: N_24  and  C_25
REMARK    9  A    between atoms: C_26  and  C_33
REMARK                            x       y       z     vdW  Elec       q    Type
REMARK                         _______ _______ _______ _____ _____    ______ ____
ROOT
ATOM      1  C   UNL     1      -1.361  -0.549  -0.064  0.00  0.00    +0.140 C 
ATOM      2  C   UNL     1      -1.889   0.372   1.038  0.00  0.00    +0.034 C 
ENDROOT
BRANCH   1   6
ATOM      3  N   UNL     1       2.679   0.400   0.728  0.00  0.00    +0.387 N 
ATOM      4  C   UNL     1       2.008   1.107  -0.372  0.00  0.00    -0.063 C 
ATOM      5  C   UNL     1       0.492   1.006  -0.191  0.00  0.00    +0.066 C 
ATOM      6  N   UNL     1       0.099  -0.410  -0.161  0.00  0.00    -0.295 NA
ATOM      7  C   UNL     1       0.769  -1.117   0.939  0.00  0.00    +0.066 C 
ATOM      8  C   UNL     1       2.285  -1.015   0.758  0.00  0.00    -0.063 C 
ATOM      9  H   UNL     1       2.359   0.862   1.674  0.00  0.00    -0.081 HD
BRANCH   3  10
ATOM     10  C   UNL     1       4.138   0.539   0.631  0.00  0.00    +0.019 C 
BRANCH  10  18
ATOM     11  C   UNL     1       6.873   1.867  -1.900  0.00  0.00    +0.009 C 
ATOM     12  C   UNL     1       7.723   1.836  -0.629  0.00  0.00    +0.004 C 
ATOM     13  C   UNL     1       8.248   3.242  -0.331  0.00  0.00    +0.009 C 
ATOM     14  C   UNL     1       7.069   4.204  -0.165  0.00  0.00    +0.004 C 
ATOM     15  C   UNL     1       6.206   3.748   1.016  0.00  0.00    +0.111 C 
ATOM     16  N   UNL     1       5.817   2.347   0.806  0.00  0.00    -0.303 N 
ATOM     17  C   UNL     1       6.869   1.353   0.552  0.00  0.00    +0.111 C 
ATOM     18  C   UNL     1       4.521   1.980   0.850  0.00  0.00    +0.199 C 
ATOM     19  O   UNL     1       3.663   2.810   1.065  0.00  0.00    -0.278 OA
ATOM     20  C   UNL     1       7.595   5.615   0.101  0.00  0.00    +0.009 C 
ENDBRANCH  10  18
ENDBRANCH   3  10
ENDBRANCH   1   6
BRANCH   1  21
ATOM     21  C   UNL     1      -1.990  -0.169  -1.380  0.00  0.00    +0.235 C 
ATOM     22  O   UNL     1      -1.335   0.411  -2.220  0.00  0.00    -0.274 OA
ATOM     23  N   UNL     1      -3.280  -0.475  -1.623  0.00  0.00    -0.278 N 
ATOM     24  H   UNL     1      -3.873  -1.002  -0.861  0.00  0.00    +0.155 HD
BRANCH  23  25
ATOM     25  C   UNL     1      -3.859  -0.126  -2.834  0.00  0.00    +0.084 A 
ATOM     26  C   UNL     1      -5.153  -0.356  -3.266  0.00  0.00    +0.068 A 
ATOM     27  C   UNL     1      -5.517   0.122  -4.600  0.00  0.00    -0.023 A 
ATOM     28  C   UNL     1      -4.529   0.737  -5.275  0.00  0.00    -0.004 A 
ATOM     29  S   UNL     1      -3.136   0.696  -4.174  0.00  0.00    -0.077 S 
ATOM     30  C   UNL     1      -4.978   1.197  -6.636  0.00  0.00    +0.043 C 
ATOM     31  C   UNL     1      -6.521   1.172  -6.566  0.00  0.00    +0.010 C 
ATOM     32  C   UNL     1      -6.769   0.107  -5.478  0.00  0.00    +0.037 C 
BRANCH  26  33
ATOM     33  C   UNL     1      -6.126  -1.051  -2.417  0.00  0.00    +0.244 C 
ATOM     34  O   UNL     1      -6.831  -0.416  -1.655  0.00  0.00    -0.270 OA
ATOM     35  N   UNL     1      -6.239  -2.392  -2.480  0.00  0.00    -0.325 N 
ATOM     36  H   UNL     1      -6.969  -2.913  -1.843  0.00  0.00    +0.145 HD
ATOM     37  H   UNL     1      -5.602  -2.966  -3.169  0.00  0.00    +0.145 HD
ENDBRANCH  26  33
ENDBRANCH  23  25
ENDBRANCH   1  21
TORSDOF 6
