REMARK  Name = ZINC08893834
REMARK  8 active torsions:
REMARK  status: ('A' for Active; 'I' for Inactive)
REMARK    1  A    between atoms: C_1  and  C_2
REMARK    2  A    between atoms: C_5  and  N_11
REMARK    3  A    between atoms: C_6  and  N_8
REMARK    4  A    between atoms: C_12  and  C_14
REMARK    5  A    between atoms: N_16  and  C_17
REMARK    6  A    between atoms: C_17  and  C_18
REMARK    7  A    between atoms: C_18  and  C_20
REMARK    8  A    between atoms: C_18  and  N_56
REMARK                            x       y       z     vdW  Elec       q    Type
REMARK                         _______ _______ _______ _____ _____    ______ ____
ROOT
ATOM      1  C   UNL     1       6.422   1.208   2.420  0.00  0.00    +0.299 C 
ATOM      2  O   UNL     1       5.857   1.404   3.476  0.00  0.00    -0.265 OA
ATOM      3  N   UNL     1       5.703   0.969   1.306  0.00  0.00    -0.309 N 
ATOM      4  H   UNL     1       6.154   0.812   0.462  0.00  0.00    +0.149 HD
ENDROOT
BRANCH   1   6
ATOM      5  N   UNL     1       8.632   1.469   3.471  0.00  0.00    -0.276 N 
ATOM      6  C   UNL     1       7.913   1.231   2.356  0.00  0.00    +0.303 C 
ATOM      7  O   UNL     1       8.479   1.034   1.300  0.00  0.00    -0.265 OA
ATOM      8  H   UNL     1       8.186   1.550   4.328  0.00  0.00    +0.155 HD
BRANCH   5  13
ATOM      9  C   UNL     1      14.269   2.004   3.149  0.00  0.00    +0.044 C 
ATOM     10  C   UNL     1      12.771   1.861   3.235  0.00  0.00    -0.048 A 
ATOM     11  C   UNL     1      12.102   1.059   2.329  0.00  0.00    +0.005 A 
ATOM     12  C   UNL     1      10.729   0.926   2.405  0.00  0.00    +0.026 A 
ATOM     13  C   UNL     1      10.021   1.601   3.392  0.00  0.00    +0.064 A 
ATOM     14  C   UNL     1      10.697   2.410   4.296  0.00  0.00    +0.148 A 
ATOM     15  C   UNL     1      12.070   2.534   4.218  0.00  0.00    +0.038 A 
BRANCH  14  16
ATOM     16  N   UNL     1       9.946   3.135   5.346  0.00  0.00    +0.058 N 
ATOM     17  O   UNL     1      10.527   3.908   6.087  0.00  0.00    -0.126 OA
ATOM     18  O   UNL     1       8.747   2.958   5.470  0.00  0.00    -0.126 OA
ENDBRANCH  14  16
ENDBRANCH   5  13
ENDBRANCH   1   6
BRANCH   3  19
ATOM     19  C   UNL     1       4.239   0.947   1.369  0.00  0.00    +0.094 C 
BRANCH  19  20
ATOM     20  C   UNL     1       3.670   0.816  -0.046  0.00  0.00    -0.020 C 
BRANCH  20  27
ATOM     21  C   UNL     1       3.081   2.511  -1.685  0.00  0.00    -0.078 C 
ATOM     22  C   UNL     1       3.586   3.450  -2.747  0.00  0.00    -0.019 C 
ATOM     23  C   UNL     1       3.749   2.660  -4.062  0.00  0.00    -0.002 C 
ATOM     24  C   UNL     1       4.970   1.861  -4.076  0.00  0.00    -0.002 C 
ATOM     25  C   UNL     1       4.989   0.807  -2.949  0.00  0.00    -0.019 C 
ATOM     26  C   UNL     1       5.355   1.493  -1.661  0.00  0.00    -0.078 C 
ATOM     27  N   UNL     1       4.184   1.946  -0.835  0.00  0.00    +0.385 N 
ATOM     28  H   UNL     1       4.506   2.680  -0.193  0.00  0.00    -0.081 HD
ENDBRANCH  20  27
BRANCH  20  29
ATOM     29  C   UNL     1       2.165   0.874   0.011  0.00  0.00    -0.052 A 
ATOM     30  C   UNL     1       1.405  -0.210  -0.386  0.00  0.00    +0.009 A 
ATOM     31  C   UNL     1       0.054  -0.125  -0.322  0.00  0.00    +0.045 A 
ATOM     32  S   UNL     1      -0.182   1.527   0.314  0.00  0.00    -0.105 S 
ATOM     33  C   UNL     1       1.536   1.991   0.452  0.00  0.00    +0.047 A 
ENDBRANCH  20  29
ENDBRANCH  19  20
ENDBRANCH   3  19
TORSDOF 7
