REMARK  Name = ZINC29569628
REMARK  9 active torsions:
REMARK  status: ('A' for Active; 'I' for Inactive)
REMARK    1  A    between atoms: C_1  and  C_2
REMARK    2  A    between atoms: C_2  and  C_4
REMARK    3  A    between atoms: C_2  and  N_12
REMARK    4  A    between atoms: N_12  and  C_13
REMARK    5  A    between atoms: C_13  and  C_15
REMARK    6  A    between atoms: C_13  and  C_16
REMARK    7  A    between atoms: N_18  and  C_19
REMARK    8  A    between atoms: C_23  and  N_25
REMARK    9  A    between atoms: C_26  and  C_28
REMARK                            x       y       z     vdW  Elec       q    Type
REMARK                         _______ _______ _______ _____ _____    ______ ____
ROOT
ATOM      1  C   UNL     1       4.882   3.717  -1.361  0.00  0.00    +0.014 C 
ATOM      2  C   UNL     1       5.540   4.550  -0.259  0.00  0.00    -0.004 C 
ENDROOT
BRANCH   1   3
ATOM      3  C   UNL     1       4.828   4.521  -2.634  0.00  0.00    +0.203 C 
ATOM      4  O   UNL     1       3.758   4.768  -3.150  0.00  0.00    -0.277 OA
ATOM      5  N   UNL     1       5.968   4.966  -3.199  0.00  0.00    -0.287 N 
ATOM      6  H   UNL     1       6.941   4.669  -2.782  0.00  0.00    +0.155 HD
BRANCH   5   7
ATOM      7  C   UNL     1       5.913   5.807  -4.316  0.00  0.00    +0.035 A 
ATOM      8  C   UNL     1       4.889   6.738  -4.436  0.00  0.00    +0.023 A 
ATOM      9  C   UNL     1       4.834   7.569  -5.539  0.00  0.00    +0.004 A 
ATOM     10  C   UNL     1       5.797   7.476  -6.525  0.00  0.00    +0.023 A 
ATOM     11  C   UNL     1       6.823   6.547  -6.411  0.00  0.00    +0.035 A 
ATOM     12  C   UNL     1       6.884   5.715  -5.302  0.00  0.00    +0.046 A 
BRANCH  11  13
ATOM     13  N   UNL     1       7.798   6.454  -7.411  0.00  0.00    -0.286 N 
ATOM     14  C   UNL     1       8.207   7.562  -8.059  0.00  0.00    +0.214 C 
ATOM     15  O   UNL     1       7.803   8.652  -7.711  0.00  0.00    -0.276 OA
ATOM     16  C   UNL     1       9.165   7.448  -9.217  0.00  0.00    +0.109 C 
ATOM     17  H   UNL     1       8.230   5.475  -7.668  0.00  0.00    +0.155 HD
ENDBRANCH  11  13
ENDBRANCH   5   7
ENDBRANCH   1   3
BRANCH   1  18
ATOM     18  N   UNL     1       3.518   3.354  -0.952  0.00  0.00    +0.391 N 
ATOM     19  H   UNL     1       2.829   4.143  -1.286  0.00  0.00    -0.084 HD
ATOM     20  H   UNL     1       3.487   3.279   0.145  0.00  0.00    -0.084 HD
BRANCH  18  22
ATOM     21  C   UNL     1       3.713   0.923  -0.726  0.00  0.00    -0.009 C 
ATOM     22  C   UNL     1       3.116   2.071  -1.543  0.00  0.00    -0.043 C 
BRANCH  22  23
ATOM     23  C   UNL     1       1.613   1.963  -1.535  0.00  0.00    -0.060 A 
ATOM     24  C   UNL     1       0.953   1.416  -2.619  0.00  0.00    +0.003 A 
ATOM     25  C   UNL     1      -0.425   1.316  -2.613  0.00  0.00    +0.021 A 
ATOM     26  C   UNL     1      -1.146   1.765  -1.520  0.00  0.00    +0.059 A 
ATOM     27  C   UNL     1      -0.486   2.313  -0.434  0.00  0.00    +0.059 A 
ATOM     28  C   UNL     1       0.894   2.412  -0.443  0.00  0.00    +0.023 A 
ATOM     29 CL   UNL     1      -1.389   2.883   0.934  0.00  0.00    -0.082 Cl
ATOM     30 CL   UNL     1      -2.878   1.640  -1.512  0.00  0.00    -0.082 Cl
ENDBRANCH  22  23
ENDBRANCH  18  22
ENDBRANCH   1  18
TORSDOF 6
