REMARK  Name = ZINC39631028
REMARK  14 active torsions:
REMARK  status: ('A' for Active; 'I' for Inactive)
REMARK    1  A    between atoms: C_1  and  C_2
REMARK    2  A    between atoms: C_2  and  C_3
REMARK    3  A    between atoms: C_3  and  C_5
REMARK    4  A    between atoms: C_3  and  C_6
REMARK    5  A    between atoms: C_6  and  C_7
REMARK    6  A    between atoms: C_11  and  C_20
REMARK    7  A    between atoms: N_22  and  C_23
REMARK    8  A    between atoms: C_23  and  C_24
REMARK    9  A    between atoms: C_24  and  C_25
REMARK   10  A    between atoms: C_24  and  C_26
REMARK   11  A    between atoms: C_24  and  C_27
REMARK   12  A    between atoms: C_27  and  N_28
REMARK   13  A    between atoms: N_28  and  C_29
REMARK   14  A    between atoms: N_28  and  C_30
REMARK                            x       y       z     vdW  Elec       q    Type
REMARK                         _______ _______ _______ _____ _____    ______ ____
ROOT
ATOM      1  C   UNL     1       0.314  -1.451  -4.725  0.00  0.00    +0.216 C 
ATOM      2  O   UNL     1       0.251  -0.478  -5.446  0.00  0.00    -0.276 OA
ATOM      3  N   UNL     1       0.369  -2.686  -5.263  0.00  0.00    -0.300 N 
ATOM      4  C   UNL     1       0.442  -3.984  -4.551  0.00  0.00    +0.121 C 
ATOM      5  C   UNL     1      -0.470  -4.928  -5.367  0.00  0.00    +0.100 C 
ATOM      6  C   UNL     1      -0.513  -4.312  -6.775  0.00  0.00    -0.004 C 
ATOM      7  C   UNL     1       0.362  -3.053  -6.699  0.00  0.00    +0.115 C 
ATOM      8  C   UNL     1       0.056  -5.292  -7.797  0.00  0.00    -0.010 C 
ATOM      9  C   UNL     1      -0.051  -4.680  -9.197  0.00  0.00    -0.082 C 
ATOM     10  N   UNL     1      -1.457  -4.389  -9.500  0.00  0.00    +0.379 N 
ATOM     11  C   UNL     1      -1.970  -3.377  -8.569  0.00  0.00    -0.082 C 
ATOM     12  C   UNL     1      -1.944  -3.933  -7.142  0.00  0.00    -0.010 C 
ATOM     13  H   UNL     1      -1.532  -4.043 -10.445  0.00  0.00    -0.086 HD
ATOM     14  H   UNL     1      -2.001  -5.234  -9.410  0.00  0.00    -0.086 HD
ENDROOT
BRANCH   5  15
ATOM     15  C   UNL     1      -1.852  -4.969  -4.767  0.00  0.00    +0.218 C 
ATOM     16  O   UNL     1      -2.274  -4.013  -4.151  0.00  0.00    -0.275 OA
ATOM     17  N   UNL     1      -2.619  -6.067  -4.916  0.00  0.00    -0.315 N 
ATOM     18  H   UNL     1      -2.282  -6.831  -5.409  0.00  0.00    +0.149 HD
BRANCH  17  19
ATOM     19  C   UNL     1      -3.963  -6.107  -4.333  0.00  0.00    +0.108 C 
BRANCH  19  20
ATOM     20  C   UNL     1      -4.614  -7.455  -4.646  0.00  0.00    -0.034 C 
ATOM     21  C   UNL     1      -4.711  -7.636  -6.162  0.00  0.00    +0.010 C 
ATOM     22  C   UNL     1      -3.767  -8.582  -4.050  0.00  0.00    +0.010 C 
BRANCH  20  23
ATOM     23  C   UNL     1      -6.018  -7.497  -4.037  0.00  0.00    -0.072 C 
BRANCH  23  24
ATOM     24  N   UNL     1      -6.636  -8.799  -4.321  0.00  0.00    +0.376 N 
ATOM     25  C   UNL     1      -6.253  -9.760  -3.278  0.00  0.00    -0.097 C 
ATOM     26  C   UNL     1      -8.098  -8.653  -4.339  0.00  0.00    -0.097 C 
ATOM     27  H   UNL     1      -6.320  -9.133  -5.218  0.00  0.00    -0.083 HD
ENDBRANCH  23  24
ENDBRANCH  20  23
ENDBRANCH  19  20
ENDBRANCH  17  19
ENDBRANCH   5  15
BRANCH   1  28
ATOM     28  C   UNL     1       0.332  -1.280  -3.228  0.00  0.00    +0.099 C 
BRANCH  28  29
ATOM     29  C   UNL     1       0.261   0.209  -2.884  0.00  0.00    -0.006 C 
ATOM     30  C   UNL     1       1.525   0.909  -3.387  0.00  0.00    +0.008 C 
BRANCH  29  32
ATOM     31  C   UNL     1      -0.043   1.857  -1.031  0.00  0.00    +0.004 C 
ATOM     32  C   UNL     1       0.154   0.378  -1.367  0.00  0.00    +0.000 C 
ENDBRANCH  29  32
ENDBRANCH  28  29
ENDBRANCH   1  28
TORSDOF 8
