REMARK  Name = ZINC49491880
REMARK  7 active torsions:
REMARK  status: ('A' for Active; 'I' for Inactive)
REMARK    1  A    between atoms: C_1  and  O_2
REMARK    2  A    between atoms: O_2  and  C_3
REMARK    3  A    between atoms: C_6  and  N_9
REMARK    4  A    between atoms: C_11  and  C_16
REMARK    5  A    between atoms: N_18  and  C_19
REMARK    6  A    between atoms: N_25  and  S_29
REMARK    7  A    between atoms: S_29  and  C_32
REMARK                            x       y       z     vdW  Elec       q    Type
REMARK                         _______ _______ _______ _____ _____    ______ ____
ROOT
ATOM      1  C   UNL     1       5.252  -6.688  -7.526  0.00  0.00    +0.035 A 
ATOM      2  C   UNL     1       5.608  -7.456  -6.424  0.00  0.00    +0.024 A 
ATOM      3  C   UNL     1       6.463  -8.529  -6.575  0.00  0.00    +0.007 A 
ATOM      4  C   UNL     1       6.973  -8.849  -7.824  0.00  0.00    -0.025 A 
ATOM      5  C   UNL     1       6.618  -8.086  -8.926  0.00  0.00    +0.056 A 
ATOM      6  C   UNL     1       5.754  -7.008  -8.779  0.00  0.00    +0.048 A 
ATOM      7  N   UNL     1       7.111  -8.393 -10.199  0.00  0.00    -0.203 N 
ATOM      8  C   UNL     1       8.235  -9.332 -10.319  0.00  0.00    +0.132 C 
ATOM      9  C   UNL     1       7.952 -10.522  -9.392  0.00  0.00    +0.025 C 
ATOM     10  C   UNL     1       7.908 -10.023  -7.948  0.00  0.00    +0.038 C 
ENDROOT
BRANCH   1  13
ATOM     11  C   UNL     1       4.433  -4.854  -6.252  0.00  0.00    +0.222 C 
ATOM     12  O   UNL     1       5.290  -5.064  -5.419  0.00  0.00    -0.275 OA
ATOM     13  N   UNL     1       4.387  -5.599  -7.373  0.00  0.00    -0.285 N 
ATOM     14  H   UNL     1       3.753  -5.381  -8.075  0.00  0.00    +0.155 HD
BRANCH  11  17
ATOM     15  N   UNL     1       3.351  -1.629  -4.933  0.00  0.00    -0.271 N 
ATOM     16  C   UNL     1       3.667  -3.040  -4.687  0.00  0.00    +0.127 C 
ATOM     17  C   UNL     1       3.422  -3.758  -6.032  0.00  0.00    +0.102 C 
ATOM     18  C   UNL     1       3.623  -2.607  -7.045  0.00  0.00    +0.110 C 
ATOM     19  C   UNL     1       3.319  -1.357  -6.249  0.00  0.00    +0.221 C 
ATOM     20  O   UNL     1       3.083  -0.269  -6.729  0.00  0.00    -0.275 OA
BRANCH  15  24
ATOM     21  C   UNL     1       2.624   1.177  -1.935  0.00  0.00    +0.120 A 
ATOM     22  C   UNL     1       2.679   1.579  -3.262  0.00  0.00    +0.047 A 
ATOM     23  C   UNL     1       2.919   0.650  -4.255  0.00  0.00    +0.027 A 
ATOM     24  C   UNL     1       3.107  -0.686  -3.926  0.00  0.00    +0.036 A 
ATOM     25  C   UNL     1       3.053  -1.087  -2.597  0.00  0.00    +0.027 A 
ATOM     26  C   UNL     1       2.817  -0.156  -1.605  0.00  0.00    +0.047 A 
BRANCH  21  28
ATOM     27  C   UNL     1       2.198   3.447  -1.369  0.00  0.00    +0.277 C 
ATOM     28  O   UNL     1       2.387   2.092  -0.957  0.00  0.00    -0.495 OA
ENDBRANCH  21  28
ENDBRANCH  15  24
ENDBRANCH  11  17
ENDBRANCH   1  13
BRANCH   7  29
ATOM     29  S   UNL     1       6.439  -7.709 -11.549  0.00  0.00    +0.075 S 
ATOM     30  O   UNL     1       6.827  -8.519 -12.651  0.00  0.00    -0.150 OA
ATOM     31  O   UNL     1       5.077  -7.449 -11.238  0.00  0.00    -0.150 OA
BRANCH  29  32
ATOM     32  C   UNL     1       7.211  -6.142 -11.779  0.00  0.00    +0.109 A 
ATOM     33  C   UNL     1       6.675  -5.015 -11.185  0.00  0.00    +0.031 A 
ATOM     34  C   UNL     1       7.280  -3.785 -11.365  0.00  0.00    +0.040 A 
ATOM     35  C   UNL     1       8.423  -3.683 -12.140  0.00  0.00    +0.124 A 
ATOM     36  C   UNL     1       8.958  -4.813 -12.734  0.00  0.00    +0.040 A 
ATOM     37  C   UNL     1       8.355  -6.042 -12.549  0.00  0.00    +0.031 A 
ATOM     38  F   UNL     1       9.015  -2.482 -12.316  0.00  0.00    -0.205 F 
ENDBRANCH  29  32
ENDBRANCH   7  29
TORSDOF 6
