REMARK  Name = ZINC05882716
REMARK  8 active torsions:
REMARK  status: ('A' for Active; 'I' for Inactive)
REMARK    1  A    between atoms: C_1  and  C_2
REMARK    2  A    between atoms: C_2  and  N_3
REMARK    3  A    between atoms: C_5  and  C_12
REMARK    4  A    between atoms: C_13  and  C_14
REMARK    5  A    between atoms: C_14  and  C_16
REMARK    6  A    between atoms: C_14  and  C_17
REMARK    7  A    between atoms: N_19  and  C_26
REMARK    8  A    between atoms: C_26  and  C_27
REMARK                            x       y       z     vdW  Elec       q    Type
REMARK                         _______ _______ _______ _____ _____    ______ ____
ROOT
ATOM      1  C   UNL     1      -1.320   2.205   0.180  0.00  0.00    +0.011 C 
ATOM      2  C   UNL     1      -2.444   1.549  -0.078  0.00  0.00    -0.018 C 
ENDROOT
BRANCH   1   5
ATOM      3  N   UNL     1       1.018  -0.038   2.007  0.00  0.00    -0.300 N 
ATOM      4  C   UNL     1      -0.122   0.627   1.659  0.00  0.00    +0.103 A 
ATOM      5  C   UNL     1      -0.107   1.464   0.580  0.00  0.00    +0.055 A 
ATOM      6  C   UNL     1       1.149   1.613  -0.169  0.00  0.00    +0.261 A 
ATOM      7  O   UNL     1       1.211   2.347  -1.138  0.00  0.00    -0.267 OA
ATOM      8  N   UNL     1       2.232   0.919   0.239  0.00  0.00    -0.274 N 
ATOM      9  H   UNL     1       3.095   1.007  -0.258  0.00  0.00    +0.173 HD
ATOM     10  C   UNL     1       2.156   0.110   1.310  0.00  0.00    +0.329 A 
ATOM     11  O   UNL     1       3.146  -0.504   1.658  0.00  0.00    -0.246 OA
BRANCH   3  13
ATOM     12  C   UNL     1       1.373  -0.148   4.425  0.00  0.00    +0.027 C 
ATOM     13  C   UNL     1       0.999  -0.934   3.166  0.00  0.00    +0.123 C 
ENDBRANCH   3  13
ENDBRANCH   1   5
BRANCH   2  14
ATOM     14  C   UNL     1      -2.451   0.042  -0.086  0.00  0.00    +0.045 C 
ATOM     15  C   UNL     1      -3.375  -0.470   1.020  0.00  0.00    +0.017 C 
BRANCH  14  16
ATOM     16  C   UNL     1      -2.946  -0.451  -1.422  0.00  0.00    +0.040 A 
ATOM     17  C   UNL     1      -2.160  -1.227  -2.199  0.00  0.00    +0.100 A 
ATOM     18  N   UNL     1      -2.625  -1.666  -3.408  0.00  0.00    -0.300 N 
ATOM     19  C   UNL     1      -3.858  -1.332  -3.831  0.00  0.00    +0.329 A 
ATOM     20  O   UNL     1      -4.252  -1.733  -4.909  0.00  0.00    -0.246 OA
ATOM     21  N   UNL     1      -4.662  -0.560  -3.076  0.00  0.00    -0.275 N 
ATOM     22  H   UNL     1      -5.574  -0.318  -3.407  0.00  0.00    +0.173 HD
ATOM     23  C   UNL     1      -4.243  -0.111  -1.876  0.00  0.00    +0.258 A 
ATOM     24  O   UNL     1      -4.971   0.584  -1.191  0.00  0.00    -0.267 OA
BRANCH  18  25
ATOM     25  C   UNL     1      -1.773  -2.508  -4.251  0.00  0.00    +0.123 C 
ATOM     26  C   UNL     1      -2.014  -3.980  -3.910  0.00  0.00    +0.027 C 
ENDBRANCH  18  25
ENDBRANCH  14  16
ENDBRANCH   2  14
TORSDOF 5
