REMARK  Name = ZINC39634849
REMARK  15 active torsions:
REMARK  status: ('A' for Active; 'I' for Inactive)
REMARK    1  A    between atoms: C_1  and  C_2
REMARK    2  A    between atoms: C_2  and  C_3
REMARK    3  A    between atoms: C_2  and  N_4
REMARK    4  A    between atoms: N_4  and  C_5
REMARK    5  A    between atoms: N_4  and  C_33
REMARK    6  A    between atoms: C_5  and  C_6
REMARK    7  A    between atoms: C_6  and  N_7
REMARK    8  A    between atoms: C_8  and  C_10
REMARK    9  A    between atoms: C_21  and  C_23
REMARK   10  A    between atoms: C_25  and  O_31
REMARK   11  A    between atoms: C_28  and  O_29
REMARK   12  A    between atoms: O_29  and  C_30
REMARK   13  A    between atoms: O_31  and  C_32
REMARK   14  A    between atoms: C_33  and  C_34
REMARK   15  A    between atoms: C_33  and  C_35
REMARK                            x       y       z     vdW  Elec       q    Type
REMARK                         _______ _______ _______ _____ _____    ______ ____
ROOT
ATOM      1  C   UNL     1      -1.940   0.539   5.847  0.00  0.00    +0.100 C 
ATOM      2  C   UNL     1      -3.091   1.456   5.378  0.00  0.00    +0.121 C 
ATOM      3  N   UNL     1      -3.102   2.572   6.353  0.00  0.00    -0.296 N 
ATOM      4  C   UNL     1      -1.669   2.849   6.612  0.00  0.00    +0.115 C 
ATOM      5  C   UNL     1      -1.008   1.457   6.656  0.00  0.00    -0.004 C 
ATOM      6  C   UNL     1       0.374   1.509   6.011  0.00  0.00    -0.010 C 
ATOM      7  C   UNL     1       1.299   2.381   6.865  0.00  0.00    -0.082 C 
ATOM      8  N   UNL     1       1.390   1.821   8.219  0.00  0.00    +0.379 N 
ATOM      9  C   UNL     1       0.073   1.861   8.866  0.00  0.00    -0.082 C 
ATOM     10  C   UNL     1      -0.904   0.967   8.097  0.00  0.00    -0.010 C 
ATOM     11  C   UNL     1      -4.173   3.194   6.885  0.00  0.00    +0.250 C 
ATOM     12  O   UNL     1      -5.293   2.788   6.645  0.00  0.00    -0.270 OA
ATOM     13  H   UNL     1       1.708   0.865   8.165  0.00  0.00    -0.086 HD
ATOM     14  H   UNL     1       2.047   2.361   8.761  0.00  0.00    -0.086 HD
ENDROOT
BRANCH  11  15
ATOM     15  C   UNL     1      -3.985   4.369   7.758  0.00  0.00    +0.082 A 
ATOM     16  C   UNL     1      -2.947   5.270   7.510  0.00  0.00    +0.062 A 
ATOM     17  C   UNL     1      -2.777   6.368   8.331  0.00  0.00    +0.121 A 
ATOM     18  C   UNL     1      -3.637   6.578   9.403  0.00  0.00    +0.049 A 
ATOM     19  C   UNL     1      -4.665   5.693   9.656  0.00  0.00    +0.050 A 
ATOM     20  C   UNL     1      -4.851   4.589   8.837  0.00  0.00    +0.132 A 
BRANCH  20  21
ATOM     21  O   UNL     1      -5.866   3.722   9.083  0.00  0.00    -0.494 OA
ATOM     22  C   UNL     1      -6.710   4.011  10.200  0.00  0.00    +0.277 C 
ENDBRANCH  20  21
BRANCH  17  23
ATOM     23  O   UNL     1      -1.767   7.246   8.091  0.00  0.00    -0.495 OA
ATOM     24  C   UNL     1      -1.649   8.359   8.979  0.00  0.00    +0.277 C 
ENDBRANCH  17  23
ENDBRANCH  11  15
BRANCH   1  26
ATOM     25  N   UNL     1      -0.611  -1.239   4.756  0.00  0.00    -0.317 N 
ATOM     26  C   UNL     1      -1.210  -0.036   4.661  0.00  0.00    +0.218 C 
ATOM     27  O   UNL     1      -1.161   0.585   3.620  0.00  0.00    -0.275 OA
ATOM     28  H   UNL     1      -0.650  -1.736   5.588  0.00  0.00    +0.149 HD
BRANCH  25  29
ATOM     29  C   UNL     1       0.099  -1.798   3.602  0.00  0.00    +0.085 C 
BRANCH  29  30
ATOM     30  C   UNL     1       0.682  -3.163   3.974  0.00  0.00    -0.059 C 
BRANCH  30  31
ATOM     31  N   UNL     1       1.436  -3.700   2.834  0.00  0.00    +0.384 N 
ATOM     32  H   UNL     1       0.842  -3.725   2.019  0.00  0.00    -0.081 HD
BRANCH  31  34
ATOM     33  C   UNL     1       0.686  -5.949   3.449  0.00  0.00    -0.014 C 
ATOM     34  C   UNL     1       1.895  -5.060   3.147  0.00  0.00    -0.074 C 
ATOM     35  C   UNL     1       2.660  -5.628   1.950  0.00  0.00    -0.014 C 
ENDBRANCH  31  34
BRANCH  31  36
ATOM     36  C   UNL     1       2.597  -2.841   2.566  0.00  0.00    -0.074 C 
ATOM     37  C   UNL     1       3.749  -3.237   3.493  0.00  0.00    -0.014 C 
ATOM     38  C   UNL     1       3.033  -3.011   1.110  0.00  0.00    -0.014 C 
ENDBRANCH  31  36
ENDBRANCH  30  31
ENDBRANCH  29  30
ENDBRANCH  25  29
ENDBRANCH   1  26
TORSDOF 9
