REMARK  Name = ZINC08815937
REMARK  14 active torsions:
REMARK  status: ('A' for Active; 'I' for Inactive)
REMARK    1  A    between atoms: C_1  and  C_2
REMARK    2  A    between atoms: C_2  and  O_3
REMARK    3  A    between atoms: O_3  and  C_4
REMARK    4  A    between atoms: C_4  and  C_6
REMARK    5  A    between atoms: C_7  and  C_22
REMARK    6  A    between atoms: C_12  and  C_14
REMARK    7  A    between atoms: C_16  and  C_21
REMARK    8  A    between atoms: C_19  and  C_20
REMARK    9  A    between atoms: C_22  and  N_63
REMARK   10  A    between atoms: C_23  and  C_24
REMARK   11  A    between atoms: C_23  and  N_63
REMARK   12  A    between atoms: C_24  and  C_25
REMARK   13  A    between atoms: C_28  and  S_31
REMARK   14  A    between atoms: S_31  and  N_34
REMARK                            x       y       z     vdW  Elec       q    Type
REMARK                         _______ _______ _______ _____ _____    ______ ____
ROOT
ATOM      1  C   UNL     1      -0.667   4.553   3.481  0.00  0.00    +0.076 C 
ATOM      2  C   UNL     1      -1.409   3.958   2.523  0.00  0.00    +0.007 C 
ATOM      3  N   UNL     1      -2.732   3.686   2.723  0.00  0.00    -0.274 N 
ATOM      4  C   UNL     1      -3.389   3.983   3.852  0.00  0.00    +0.304 C 
ATOM      5  O   UNL     1      -4.568   3.702   3.938  0.00  0.00    -0.252 OA
ATOM      6  N   UNL     1      -2.784   4.583   4.896  0.00  0.00    -0.288 N 
ATOM      7  C   UNL     1      -1.355   4.919   4.781  0.00  0.00    +0.144 C 
ATOM      8  H   UNL     1      -3.225   3.254   2.008  0.00  0.00    +0.156 HD
ATOM      9  H   UNL     1      -3.278   4.789   5.705  0.00  0.00    +0.151 HD
ENDROOT
BRANCH   7  10
ATOM     10  C   UNL     1      -1.208   6.404   4.987  0.00  0.00    -0.019 A 
ATOM     11  C   UNL     1      -1.038   7.239   3.898  0.00  0.00    +0.009 A 
ATOM     12  C   UNL     1      -0.908   8.603   4.086  0.00  0.00    -0.050 A 
ATOM     13  C   UNL     1      -0.939   9.130   5.364  0.00  0.00    +0.003 A 
ATOM     14  C   UNL     1      -1.104   8.294   6.453  0.00  0.00    +0.004 A 
ATOM     15  C   UNL     1      -1.239   6.931   6.264  0.00  0.00    -0.045 A 
ATOM     16  C   UNL     1      -1.419   6.020   7.451  0.00  0.00    +0.044 C 
ATOM     17  C   UNL     1      -0.728   9.514   2.900  0.00  0.00    +0.044 C 
ENDBRANCH   7  10
BRANCH   1  18
ATOM     18  C   UNL     1       0.705   4.829   3.277  0.00  0.00    +0.339 C 
ATOM     19  O   UNL     1       1.551   4.157   3.836  0.00  0.00    -0.245 OA
BRANCH  18  20
ATOM     20  O   UNL     1       1.076   5.838   2.461  0.00  0.00    -0.462 OA
BRANCH  20  22
ATOM     21  C   UNL     1       2.709   7.241   1.363  0.00  0.00    +0.048 C 
ATOM     22  C   UNL     1       2.474   5.988   2.209  0.00  0.00    +0.229 C 
ENDBRANCH  20  22
ENDBRANCH  18  20
ENDBRANCH   1  18
BRANCH   2  23
ATOM     23  C   UNL     1      -0.766   3.582   1.213  0.00  0.00    -0.030 C 
BRANCH  23  24
ATOM     24  N   UNL     1      -0.765   2.113   1.079  0.00  0.00    +0.383 N 
ATOM     25  H   UNL     1      -1.732   1.770   1.103  0.00  0.00    -0.085 HD
ATOM     26  H   UNL     1      -0.236   1.702   1.857  0.00  0.00    -0.085 HD
BRANCH  24  27
ATOM     27  C   UNL     1      -0.140   1.716  -0.197  0.00  0.00    -0.077 C 
BRANCH  27  28
ATOM     28  C   UNL     1      -0.153   0.190  -0.308  0.00  0.00    +0.016 C 
BRANCH  28  29
ATOM     29  C   UNL     1       0.484  -0.225  -1.609  0.00  0.00    -0.049 A 
ATOM     30  C   UNL     1      -0.292  -0.372  -2.744  0.00  0.00    +0.005 A 
ATOM     31  C   UNL     1       0.293  -0.748  -3.938  0.00  0.00    +0.029 A 
ATOM     32  C   UNL     1       1.653  -0.985  -3.996  0.00  0.00    +0.105 A 
ATOM     33  C   UNL     1       2.429  -0.844  -2.861  0.00  0.00    +0.029 A 
ATOM     34  C   UNL     1       1.845  -0.463  -1.668  0.00  0.00    +0.005 A 
BRANCH  32  35
ATOM     35  S   UNL     1       2.399  -1.469  -5.518  0.00  0.00    +0.056 S 
ATOM     36  O   UNL     1       1.546  -1.001  -6.554  0.00  0.00    -0.153 OA
ATOM     37  O   UNL     1       3.769  -1.101  -5.434  0.00  0.00    -0.153 OA
BRANCH  35  38
ATOM     38  N   UNL     1       2.356  -3.123  -5.580  0.00  0.00    -0.204 NA
ATOM     39  H   UNL     1       1.965  -3.626  -4.849  0.00  0.00    +0.144 HD
ATOM     40  H   UNL     1       2.722  -3.589  -6.348  0.00  0.00    +0.144 HD
ENDBRANCH  35  38
ENDBRANCH  32  35
ENDBRANCH  28  29
ENDBRANCH  27  28
ENDBRANCH  24  27
ENDBRANCH  23  24
ENDBRANCH   2  23
TORSDOF 11
