REMARK  Name = ZINC45873204
REMARK  7 active torsions:
REMARK  status: ('A' for Active; 'I' for Inactive)
REMARK    1  A    between atoms: C_3  and  C_6
REMARK    2  A    between atoms: C_6  and  N_7
REMARK    3  A    between atoms: N_10  and  C_11
REMARK    4  A    between atoms: C_14  and  N_17
REMARK    5  A    between atoms: C_18  and  C_20
REMARK    6  A    between atoms: C_20  and  O_21
REMARK    7  A    between atoms: O_21  and  C_22
REMARK                            x       y       z     vdW  Elec       q    Type
REMARK                         _______ _______ _______ _____ _____    ______ ____
ROOT
ATOM      1  C   UNL     1       7.279   0.596   3.020  0.00  0.00    +0.035 A 
ATOM      2  C   UNL     1       8.130   0.680   1.925  0.00  0.00    +0.025 A 
ATOM      3  C   UNL     1       9.495   0.743   2.115  0.00  0.00    +0.025 A 
ATOM      4  C   UNL     1      10.019   0.721   3.401  0.00  0.00    +0.034 A 
ATOM      5  C   UNL     1       9.169   0.637   4.495  0.00  0.00    +0.025 A 
ATOM      6  C   UNL     1       7.803   0.580   4.306  0.00  0.00    +0.025 A 
ENDROOT
BRANCH   1  10
ATOM      7  N   UNL     1       3.736   1.153   3.467  0.00  0.00    -0.292 N 
ATOM      8  C   UNL     1       5.063   1.134   3.701  0.00  0.00    +0.304 C 
ATOM      9  O   UNL     1       5.511   1.660   4.702  0.00  0.00    -0.252 OA
ATOM     10  N   UNL     1       5.893   0.532   2.827  0.00  0.00    -0.269 N 
ATOM     11  H   UNL     1       3.378   0.733   2.669  0.00  0.00    +0.151 HD
ATOM     12  H   UNL     1       5.531   0.055   2.064  0.00  0.00    +0.156 HD
BRANCH   7  13
ATOM     13  C   UNL     1       2.833   1.807   4.418  0.00  0.00    +0.180 C 
BRANCH  13  16
ATOM     14  C   UNL     1      -0.650   0.976   3.548  0.00  0.00    +0.041 A 
ATOM     15  C   UNL     1       0.563   0.685   4.212  0.00  0.00    +0.046 A 
ATOM     16  C   UNL     1       1.413   1.688   3.926  0.00  0.00    +0.122 A 
ATOM     17  O   UNL     1       0.783   2.564   3.128  0.00  0.00    -0.466 OA
ATOM     18  C   UNL     1      -0.469   2.138   2.895  0.00  0.00    +0.195 A 
ENDBRANCH  13  16
ENDBRANCH   7  13
ENDBRANCH   1  10
BRANCH   4  19
ATOM     19  N   UNL     1      11.405   0.784   3.593  0.00  0.00    -0.283 N 
ATOM     20  C   UNL     1      12.168   1.526   2.766  0.00  0.00    +0.255 C 
ATOM     21  O   UNL     1      11.667   2.071   1.805  0.00  0.00    -0.272 OA
ATOM     22  H   UNL     1      11.816   0.294   4.323  0.00  0.00    +0.155 HD
BRANCH  20  23
ATOM     23  C   UNL     1      13.643   1.677   3.034  0.00  0.00    +0.325 C 
BRANCH  23  24
ATOM     24  O   UNL     1      14.228   2.503   2.025  0.00  0.00    -0.481 OA
BRANCH  24  25
ATOM     25  C   UNL     1      15.563   2.742   2.120  0.00  0.00    +0.141 A 
ATOM     26  C   UNL     1      16.295   2.188   3.160  0.00  0.00    +0.068 A 
ATOM     27  C   UNL     1      17.653   2.431   3.255  0.00  0.00    +0.063 A 
ATOM     28  C   UNL     1      18.282   3.228   2.313  0.00  0.00    +0.061 A 
ATOM     29  C   UNL     1      17.553   3.781   1.275  0.00  0.00    +0.045 A 
ATOM     30  C   UNL     1      16.197   3.535   1.174  0.00  0.00    +0.084 A 
ATOM     31 CL   UNL     1      15.284   4.225  -0.132  0.00  0.00    -0.080 Cl
ATOM     32 CL   UNL     1      19.986   3.533   2.435  0.00  0.00    -0.082 Cl
ATOM     33 CL   UNL     1      18.570   1.738   4.556  0.00  0.00    -0.082 Cl
ENDBRANCH  24  25
ENDBRANCH  23  24
ENDBRANCH  20  23
ENDBRANCH   4  19
TORSDOF 7
