REMARK  Name = ZINC67559084
REMARK  12 active torsions:
REMARK  status: ('A' for Active; 'I' for Inactive)
REMARK    1  A    between atoms: C_1  and  C_2
REMARK    2  A    between atoms: C_2  and  C_3
REMARK    3  A    between atoms: C_3  and  N_4
REMARK    4  A    between atoms: C_10  and  N_13
REMARK    5  A    between atoms: C_14  and  C_16
REMARK    6  A    between atoms: N_18  and  C_19
REMARK    7  A    between atoms: C_19  and  C_21
REMARK    8  A    between atoms: C_19  and  C_22
REMARK    9  A    between atoms: N_24  and  C_25
REMARK   10  A    between atoms: C_25  and  C_27
REMARK   11  A    between atoms: C_25  and  C_28
REMARK   12  A    between atoms: C_28  and  C_29
REMARK                            x       y       z     vdW  Elec       q    Type
REMARK                         _______ _______ _______ _____ _____    ______ ____
ROOT
ATOM      1  N   UNL     1       3.770  -2.784   4.414  0.00  0.00    -0.278 N 
ATOM      2  C   UNL     1       4.824  -3.011   5.223  0.00  0.00    +0.303 C 
ATOM      3  O   UNL     1       5.938  -3.116   4.753  0.00  0.00    -0.265 OA
ATOM      4  H   UNL     1       2.893  -2.620   4.794  0.00  0.00    +0.155 HD
ENDROOT
BRANCH   1  11
ATOM      5  N   UNL     1       1.600  -0.413   1.335  0.00  0.00    +0.385 N 
ATOM      6  C   UNL     1       2.141  -1.236   0.229  0.00  0.00    -0.042 C 
ATOM      7  C   UNL     1       3.234  -2.080   0.845  0.00  0.00    -0.061 A 
ATOM      8  C   UNL     1       4.280  -2.786   0.281  0.00  0.00    +0.002 A 
ATOM      9  C   UNL     1       5.157  -3.491   1.084  0.00  0.00    +0.002 A 
ATOM     10  C   UNL     1       4.991  -3.492   2.455  0.00  0.00    +0.023 A 
ATOM     11  C   UNL     1       3.941  -2.784   3.027  0.00  0.00    +0.035 A 
ATOM     12  C   UNL     1       3.062  -2.077   2.217  0.00  0.00    -0.041 A 
ATOM     13  C   UNL     1       1.852  -1.232   2.542  0.00  0.00    -0.040 C 
ATOM     14  H   UNL     1       0.610  -0.258   1.212  0.00  0.00    -0.081 HD
BRANCH   5  15
ATOM     15  C   UNL     1       2.315   0.867   1.422  0.00  0.00    -0.078 C 
BRANCH  15  17
ATOM     16  C   UNL     1       2.685   3.076   0.315  0.00  0.00    +0.002 C 
ATOM     17  C   UNL     1       1.940   1.743   0.225  0.00  0.00    -0.022 C 
ENDBRANCH  15  17
ENDBRANCH   5  15
ENDBRANCH   1  11
BRANCH   2  18
ATOM     18  C   UNL     1       4.621  -3.133   6.697  0.00  0.00    +0.300 C 
ATOM     19  O   UNL     1       3.507  -3.028   7.167  0.00  0.00    -0.265 OA
ATOM     20  N   UNL     1       5.675  -3.360   7.506  0.00  0.00    -0.297 N 
ATOM     21  H   UNL     1       6.565  -3.444   7.130  0.00  0.00    +0.150 HD
BRANCH  20  22
ATOM     22  C   UNL     1       5.476  -3.480   8.952  0.00  0.00    +0.156 C 
ATOM     23  C   UNL     1       5.089  -4.920   9.296  0.00  0.00    +0.038 C 
BRANCH  22  24
ATOM     24  C   UNL     1       6.753  -3.119   9.667  0.00  0.00    +0.233 C 
ATOM     25  O   UNL     1       7.732  -2.793   9.031  0.00  0.00    -0.274 OA
ATOM     26  N   UNL     1       6.806  -3.157  11.013  0.00  0.00    -0.311 N 
ATOM     27  H   UNL     1       6.022  -3.418  11.522  0.00  0.00    +0.149 HD
BRANCH  26  28
ATOM     28  C   UNL     1       8.047  -2.806  11.708  0.00  0.00    +0.070 C 
ATOM     29  C   UNL     1       8.115  -1.289  11.895  0.00  0.00    +0.028 C 
BRANCH  28  30
ATOM     30  C   UNL     1       8.077  -3.491  13.076  0.00  0.00    +0.018 C 
ATOM     31  C   UNL     1       8.134  -5.008  12.886  0.00  0.00    +0.005 C 
ENDBRANCH  28  30
ENDBRANCH  26  28
ENDBRANCH  22  24
ENDBRANCH  20  22
ENDBRANCH   2  18
TORSDOF 8
