REMARK  Name = ZINC28048657
REMARK  8 active torsions:
REMARK  status: ('A' for Active; 'I' for Inactive)
REMARK    1  A    between atoms: C_1  and  C_2
REMARK    2  A    between atoms: C_2  and  O_3
REMARK    3  A    between atoms: O_3  and  C_4
REMARK    4  A    between atoms: C_4  and  C_6
REMARK    5  A    between atoms: C_9  and  N_12
REMARK    6  A    between atoms: N_15  and  C_16
REMARK    7  A    between atoms: C_25  and  O_26
REMARK    8  A    between atoms: N_27  and  C_28
REMARK                            x       y       z     vdW  Elec       q    Type
REMARK                         _______ _______ _______ _____ _____    ______ ____
ROOT
ATOM      1  C   UNL     1       3.616   3.533   0.269  0.00  0.00    +0.140 A 
ATOM      2  C   UNL     1       2.478   3.148   0.956  0.00  0.00    +0.075 A 
ATOM      3  C   UNL     1       2.244   3.739   2.283  0.00  0.00    +0.042 A 
ATOM      4  C   UNL     1       1.120   3.393   3.037  0.00  0.00    +0.013 A 
ATOM      5  C   UNL     1       0.932   3.958   4.278  0.00  0.00    +0.001 A 
ATOM      6  C   UNL     1       1.855   4.862   4.782  0.00  0.00    +0.004 A 
ATOM      7  C   UNL     1       2.972   5.209   4.051  0.00  0.00    +0.047 A 
ATOM      8  C   UNL     1       3.181   4.650   2.796  0.00  0.00    +0.141 A 
ATOM      9  O   UNL     1       4.270   4.981   2.069  0.00  0.00    -0.424 OA
ATOM     10  C   UNL     1       4.499   4.457   0.855  0.00  0.00    +0.309 A 
ATOM     11  N   UNL     1       1.588   2.242   0.412  0.00  0.00    -0.380 N 
ATOM     12  H   UNL     1       0.834   2.580  -0.314  0.00  0.00    +0.160 HD
ENDROOT
BRANCH   1  16
ATOM     13  N   UNL     1       5.334   1.895  -2.464  0.00  0.00    -0.269 N 
ATOM     14  C   UNL     1       5.108   2.507  -1.284  0.00  0.00    +0.308 C 
ATOM     15  O   UNL     1       6.006   2.611  -0.471  0.00  0.00    -0.252 OA
ATOM     16  N   UNL     1       3.886   3.004  -1.006  0.00  0.00    -0.262 N 
ATOM     17  H   UNL     1       4.545   1.867  -3.229  0.00  0.00    +0.156 HD
ATOM     18  H   UNL     1       3.101   2.995  -1.777  0.00  0.00    +0.157 HD
BRANCH  13  22
ATOM     19  C   UNL     1       9.023   0.110  -3.210  0.00  0.00    +0.059 A 
ATOM     20  C   UNL     1       7.851  -0.469  -3.706  0.00  0.00    +0.017 A 
ATOM     21  C   UNL     1       6.634   0.123  -3.458  0.00  0.00    +0.024 A 
ATOM     22  C   UNL     1       6.569   1.298  -2.713  0.00  0.00    +0.035 A 
ATOM     23  C   UNL     1       7.734   1.880  -2.223  0.00  0.00    +0.024 A 
ATOM     24  C   UNL     1       8.954   1.290  -2.463  0.00  0.00    +0.017 A 
BRANCH  19  25
ATOM     25  C   UNL     1      10.329  -0.522  -3.474  0.00  0.00    +0.339 C 
ATOM     26  O   UNL     1      10.387  -1.547  -4.124  0.00  0.00    -0.245 OA
BRANCH  25  27
ATOM     27  O   UNL     1      11.457   0.037  -2.995  0.00  0.00    -0.461 OA
BRANCH  27  29
ATOM     28  C   UNL     1      13.869   0.138  -2.672  0.00  0.00    +0.048 C 
ATOM     29  C   UNL     1      12.706  -0.639  -3.294  0.00  0.00    +0.229 C 
ENDBRANCH  27  29
ENDBRANCH  25  27
ENDBRANCH  19  25
ENDBRANCH  13  22
ENDBRANCH   1  16
BRANCH  11  30
ATOM     30  C   UNL     1       1.824   0.891   0.938  0.00  0.00    +0.079 C 
ATOM     31  C   UNL     1       0.510   0.106   0.937  0.00  0.00    +0.024 C 
ATOM     32  C   UNL     1       0.756  -1.301   1.485  0.00  0.00    +0.002 C 
ATOM     33  C   UNL     1       1.779  -2.019   0.603  0.00  0.00    +0.000 C 
ATOM     34  C   UNL     1       3.093  -1.235   0.604  0.00  0.00    +0.002 C 
ATOM     35  C   UNL     1       2.847   0.172   0.056  0.00  0.00    +0.024 C 
ENDBRANCH  11  30
BRANCH  10  36
ATOM     36  O   UNL     1       5.499   4.792   0.243  0.00  0.00    -0.479 OA
ATOM     37  H   UNL     1       6.199   5.514   0.688  0.00  0.00    +0.295 HD
ENDBRANCH  10  36
TORSDOF 7
