REMARK  Name = ZINC20239885
REMARK  7 active torsions:
REMARK  status: ('A' for Active; 'I' for Inactive)
REMARK    1  A    between atoms: C_4  and  S_7
REMARK    2  A    between atoms: S_7  and  N_10
REMARK    3  A    between atoms: N_10  and  C_11
REMARK    4  A    between atoms: N_10  and  C_24
REMARK    5  A    between atoms: C_11  and  C_12
REMARK    6  A    between atoms: N_14  and  C_15
REMARK    7  A    between atoms: C_18  and  C_21
REMARK                            x       y       z     vdW  Elec       q    Type
REMARK                         _______ _______ _______ _____ _____    ______ ____
ROOT
ATOM      1  N   UNL     1       4.517  -0.953  -1.938  0.00  0.00    -0.193 N 
ENDROOT
BRANCH   1   2
ATOM      2  C   UNL     1       5.324  -0.144  -2.742  0.00  0.00    +0.071 A 
ATOM      3  C   UNL     1       4.745   0.767  -3.616  0.00  0.00    +0.026 A 
ATOM      4  C   UNL     1       5.545   1.566  -4.409  0.00  0.00    +0.003 A 
ATOM      5  C   UNL     1       6.922   1.460  -4.335  0.00  0.00    +0.021 A 
ATOM      6  C   UNL     1       7.503   0.554  -3.466  0.00  0.00    +0.061 A 
ATOM      7  C   UNL     1       6.708  -0.245  -2.664  0.00  0.00    +0.082 A 
ATOM      8 CL   UNL     1       7.437  -1.377  -1.568  0.00  0.00    -0.080 Cl
ATOM      9 CL   UNL     1       9.232   0.425  -3.375  0.00  0.00    -0.082 Cl
ENDBRANCH   1   2
BRANCH   1  10
ATOM     10  S   UNL     1       4.162  -0.489  -0.388  0.00  0.00    +0.075 S 
ATOM     11  O   UNL     1       5.198   0.393   0.019  0.00  0.00    -0.150 OA
ATOM     12  O   UNL     1       3.845  -1.675   0.328  0.00  0.00    -0.150 OA
BRANCH  10  16
ATOM     13  C   UNL     1       0.364   1.968  -0.564  0.00  0.00    +0.000 A 
ATOM     14  C   UNL     1       1.594   2.587  -0.685  0.00  0.00    +0.002 A 
ATOM     15  C   UNL     1       2.754   1.837  -0.632  0.00  0.00    +0.029 A 
ATOM     16  C   UNL     1       2.683   0.467  -0.457  0.00  0.00    +0.109 A 
ATOM     17  C   UNL     1       1.453  -0.152  -0.335  0.00  0.00    +0.029 A 
ATOM     18  C   UNL     1       0.294   0.599  -0.389  0.00  0.00    +0.002 A 
ENDBRANCH  10  16
ENDBRANCH   1  10
BRANCH   1  19
ATOM     19  C   UNL     1       3.985  -2.212  -2.466  0.00  0.00    +0.227 C 
BRANCH  19  20
ATOM     20  C   UNL     1       2.710  -1.940  -3.223  0.00  0.00    +0.236 C 
ATOM     21  O   UNL     1       2.288  -0.807  -3.312  0.00  0.00    -0.274 OA
ATOM     22  N   UNL     1       2.040  -2.957  -3.800  0.00  0.00    -0.284 N 
ATOM     23  H   UNL     1       2.466  -3.971  -3.794  0.00  0.00    +0.155 HD
BRANCH  22  24
ATOM     24  C   UNL     1       0.805  -2.723  -4.405  0.00  0.00    +0.033 A 
ATOM     25  C   UNL     1      -0.054  -1.762  -3.882  0.00  0.00    +0.024 A 
ATOM     26  C   UNL     1      -1.271  -1.526  -4.480  0.00  0.00    +0.015 A 
ATOM     27  C   UNL     1      -1.648  -2.260  -5.608  0.00  0.00    +0.037 A 
ATOM     28  C   UNL     1      -0.785  -3.228  -6.128  0.00  0.00    +0.015 A 
ATOM     29  C   UNL     1       0.433  -3.455  -5.528  0.00  0.00    +0.024 A 
BRANCH  27  30
ATOM     30  C   UNL     1      -2.954  -2.012  -6.248  0.00  0.00    +0.242 C 
ATOM     31  O   UNL     1      -3.281  -2.651  -7.230  0.00  0.00    -0.270 OA
ATOM     32  N   UNL     1      -3.786  -1.078  -5.745  0.00  0.00    -0.325 N 
ATOM     33  H   UNL     1      -4.759  -0.894  -6.223  0.00  0.00    +0.145 HD
ATOM     34  H   UNL     1      -3.490  -0.500  -4.857  0.00  0.00    +0.145 HD
ENDBRANCH  27  30
ENDBRANCH  22  24
ENDBRANCH  19  20
ENDBRANCH   1  19
TORSDOF 7
