REMARK  Name = ZINC53142031
REMARK  9 active torsions:
REMARK  status: ('A' for Active; 'I' for Inactive)
REMARK    1  A    between atoms: C_1  and  C_2
REMARK    2  A    between atoms: C_2  and  C_3
REMARK    3  A    between atoms: C_2  and  C_4
REMARK    4  A    between atoms: C_2  and  N_20
REMARK    5  A    between atoms: N_6  and  C_7
REMARK    6  A    between atoms: C_7  and  C_8
REMARK    7  A    between atoms: C_8  and  C_10
REMARK    8  A    between atoms: C_8  and  N_15
REMARK    9  A    between atoms: N_23  and  C_24
REMARK                            x       y       z     vdW  Elec       q    Type
REMARK                         _______ _______ _______ _____ _____    ______ ____
ROOT
ATOM      1  C   UNL     1      -1.479  -0.334   0.031  0.00  0.00    +0.236 C 
ATOM      2  O   UNL     1      -2.076  -0.410   1.084  0.00  0.00    -0.273 OA
ATOM      3  N   UNL     1      -2.117  -0.600  -1.126  0.00  0.00    -0.315 N 
ATOM      4  H   UNL     1      -1.640  -0.539  -1.968  0.00  0.00    +0.149 HD
ENDROOT
BRANCH   1   6
ATOM      5  C   UNL     1       0.095   1.565  -0.226  0.00  0.00    +0.041 C 
ATOM      6  C   UNL     1      -0.025   0.059   0.016  0.00  0.00    +0.106 C 
ATOM      7  C   UNL     1       0.613  -0.293   1.362  0.00  0.00    +0.041 C 
BRANCH   6   8
ATOM      8  N   UNL     1       0.665  -0.664  -1.055  0.00  0.00    -0.286 N 
ATOM      9  C   UNL     1       1.984  -0.470  -1.258  0.00  0.00    +0.300 C 
ATOM     10  O   UNL     1       2.600   0.305  -0.553  0.00  0.00    -0.253 OA
ATOM     11  N   UNL     1       2.619  -1.135  -2.244  0.00  0.00    -0.302 N 
ATOM     12  C   UNL     1       4.051  -0.924  -2.465  0.00  0.00    +0.129 C 
ATOM     13  H   UNL     1       0.174  -1.282  -1.618  0.00  0.00    +0.151 HD
ATOM     14  H   UNL     1       2.127  -1.753  -2.807  0.00  0.00    +0.150 HD
ENDBRANCH   6   8
ENDBRANCH   1   6
BRANCH   3  15
ATOM     15  C   UNL     1      -3.532  -0.982  -1.111  0.00  0.00    +0.094 C 
BRANCH  15  16
ATOM     16  C   UNL     1      -4.043  -1.098  -2.549  0.00  0.00    -0.013 C 
BRANCH  16  17
ATOM     17  N   UNL     1      -5.421  -1.607  -2.538  0.00  0.00    +0.386 N 
ATOM     18  C   UNL     1      -5.927  -1.745  -3.928  0.00  0.00    -0.078 C 
ATOM     19  C   UNL     1      -7.080  -2.770  -3.786  0.00  0.00    -0.020 C 
ATOM     20  C   UNL     1      -6.538  -3.755  -2.724  0.00  0.00    -0.020 C 
ATOM     21  C   UNL     1      -5.459  -2.967  -1.958  0.00  0.00    -0.078 C 
ATOM     22  H   UNL     1      -6.018  -0.987  -2.010  0.00  0.00    -0.081 HD
ENDBRANCH  16  17
BRANCH  16  23
ATOM     23  C   UNL     1      -4.013   0.259  -3.204  0.00  0.00    -0.022 A 
ATOM     24  C   UNL     1      -3.099   0.772  -4.062  0.00  0.00    +0.009 A 
ATOM     25  C   UNL     1      -3.278   2.056  -4.543  0.00  0.00    +0.008 A 
ATOM     26  C   UNL     1      -4.362   2.763  -4.141  0.00  0.00    +0.045 A 
ATOM     27  S   UNL     1      -5.177   1.604  -3.056  0.00  0.00    -0.103 S 
ENDBRANCH  16  23
ENDBRANCH  15  16
ENDBRANCH   3  15
TORSDOF 6
