REMARK  Name = ZINC13786270
REMARK  8 active torsions:
REMARK  status: ('A' for Active; 'I' for Inactive)
REMARK    1  A    between atoms: C_1  and  C_2
REMARK    2  A    between atoms: N_5  and  S_8
REMARK    3  A    between atoms: S_8  and  C_11
REMARK    4  A    between atoms: C_15  and  C_17
REMARK    5  A    between atoms: N_21  and  C_22
REMARK    6  A    between atoms: N_28  and  C_29
REMARK    7  A    between atoms: C_29  and  C_30
REMARK    8  A    between atoms: C_30  and  N_31
REMARK                            x       y       z     vdW  Elec       q    Type
REMARK                         _______ _______ _______ _____ _____    ______ ____
ROOT
ATOM      1  C   UNL     1      -3.382  -2.563  -1.506  0.00  0.00    +0.058 A 
ATOM      2  C   UNL     1      -4.702  -2.837  -1.447  0.00  0.00    +0.075 A 
ATOM      3  S   UNL     1      -4.872  -3.505   0.200  0.00  0.00    -0.059 S 
ATOM      4  C   UNL     1      -3.161  -3.377   0.697  0.00  0.00    +0.152 A 
ATOM      5  N   UNL     1      -2.597  -3.718   1.840  0.00  0.00    -0.336 N 
ATOM      6  N   UNL     1      -2.587  -2.829  -0.425  0.00  0.00    -0.319 N 
ATOM      7  H   UNL     1      -1.535  -3.494   2.018  0.00  0.00    +0.168 HD
ENDROOT
BRANCH   1  12
ATOM      8  C   UNL     1      -1.154  -2.031  -4.483  0.00  0.00    +0.106 A 
ATOM      9  C   UNL     1      -1.706  -0.886  -5.031  0.00  0.00    +0.028 A 
ATOM     10  C   UNL     1      -2.801  -0.285  -4.436  0.00  0.00    +0.003 A 
ATOM     11  C   UNL     1      -3.353  -0.828  -3.294  0.00  0.00    +0.010 A 
ATOM     12  C   UNL     1      -2.798  -1.979  -2.733  0.00  0.00    +0.001 A 
ATOM     13  C   UNL     1      -1.694  -2.580  -3.339  0.00  0.00    +0.038 A 
BRANCH   8  14
ATOM     14  S   UNL     1       0.240  -2.788  -5.250  0.00  0.00    +0.061 S 
ATOM     15  O   UNL     1       0.893  -1.773  -5.999  0.00  0.00    -0.153 OA
ATOM     16  O   UNL     1       0.903  -3.535  -4.239  0.00  0.00    -0.153 OA
BRANCH  14  21
ATOM     17  C   UNL     1       0.464  -6.838  -9.303  0.00  0.00    +0.007 C 
ATOM     18  C   UNL     1      -0.253  -5.885  -8.345  0.00  0.00    -0.012 C 
ATOM     19  C   UNL     1       0.139  -4.442  -8.672  0.00  0.00    +0.020 C 
ATOM     20  C   UNL     1      -0.608  -3.489  -7.734  0.00  0.00    +0.110 C 
ATOM     21  N   UNL     1      -0.340  -3.886  -6.345  0.00  0.00    -0.177 NA
ATOM     22  C   UNL     1      -0.591  -5.279  -5.948  0.00  0.00    +0.110 C 
ATOM     23  C   UNL     1       0.150  -6.210  -6.905  0.00  0.00    +0.020 C 
ENDBRANCH  14  21
ENDBRANCH   8  14
ENDBRANCH   1  12
BRANCH   5  24
ATOM     24  C   UNL     1      -3.334  -4.350   2.804  0.00  0.00    +0.041 A 
ATOM     25  C   UNL     1      -3.928  -3.611   3.830  0.00  0.00    +0.025 A 
ATOM     26  C   UNL     1      -4.674  -4.254   4.795  0.00  0.00    +0.002 A 
ATOM     27  C   UNL     1      -4.825  -5.629   4.756  0.00  0.00    +0.000 A 
ATOM     28  C   UNL     1      -4.235  -6.368   3.746  0.00  0.00    +0.002 A 
ATOM     29  C   UNL     1      -3.490  -5.738   2.771  0.00  0.00    +0.025 A 
ENDBRANCH   5  24
BRANCH   6  30
ATOM     30  C   UNL     1      -1.151  -2.542  -0.465  0.00  0.00    +0.139 C 
BRANCH  30  31
ATOM     31  C   UNL     1      -0.914  -1.073  -0.106  0.00  0.00    +0.106 C 
BRANCH  31  32
ATOM     32  N   UNL     1       0.525  -0.785  -0.146  0.00  0.00    -0.296 NA
ATOM     33  C   UNL     1       0.776   0.660  -0.042  0.00  0.00    +0.112 C 
ATOM     34  C   UNL     1       2.281   0.920  -0.147  0.00  0.00    +0.175 C 
ATOM     35  O   UNL     1       2.961   0.177   0.869  0.00  0.00    -0.377 OA
ATOM     36  C   UNL     1       2.739  -1.234   0.796  0.00  0.00    +0.175 C 
ATOM     37  C   UNL     1       1.239  -1.515   0.911  0.00  0.00    +0.112 C 
ENDBRANCH  31  32
ENDBRANCH  30  31
ENDBRANCH   6  30
TORSDOF 7
