REMARK  Name = ZINC12582436
REMARK  5 active torsions:
REMARK  status: ('A' for Active; 'I' for Inactive)
REMARK    1  A    between atoms: C_2  and  C_10
REMARK    2  A    between atoms: C_3  and  O_9
REMARK    3  A    between atoms: N_11  and  C_12
REMARK    4  A    between atoms: C_14  and  N_20
REMARK    5  A    between atoms: C_21  and  C_22
REMARK                            x       y       z     vdW  Elec       q    Type
REMARK                         _______ _______ _______ _____ _____    ______ ____
ROOT
ATOM      1  C   UNL     1       2.269   5.664   0.213  0.00  0.00    +0.101 C 
ATOM      2  C   UNL     1       2.936   6.086   1.523  0.00  0.00    +0.101 C 
ATOM      3  C   UNL     1       2.909   7.612   1.641  0.00  0.00    +0.026 C 
ATOM      4  C   UNL     1       3.665   8.227   0.462  0.00  0.00    +0.002 C 
ATOM      5  C   UNL     1       2.998   7.804  -0.849  0.00  0.00    +0.002 C 
ATOM      6  C   UNL     1       3.025   6.279  -0.966  0.00  0.00    +0.026 C 
ENDROOT
BRANCH   1   8
ATOM      7  C   UNL     1       1.186   3.541   0.009  0.00  0.00    +0.090 C 
ATOM      8  N   UNL     1       2.295   4.203   0.100  0.00  0.00    -0.385 N 
ATOM      9  H   UNL     1       3.143   3.732   0.094  0.00  0.00    +0.159 HD
BRANCH   7  11
ATOM     10  C   UNL     1       0.007   1.349   0.027  0.00  0.00    +0.033 A 
ATOM     11  C   UNL     1       1.205   2.068   0.009  0.00  0.00    +0.035 A 
ATOM     12  C   UNL     1       2.426   1.379  -0.010  0.00  0.00    +0.144 A 
ATOM     13  C   UNL     1       2.433  -0.008  -0.010  0.00  0.00    +0.084 A 
ATOM     14  C   UNL     1       1.241  -0.707   0.008  0.00  0.00    +0.043 A 
ATOM     15  C   UNL     1       0.032  -0.029   0.027  0.00  0.00    +0.043 A 
ATOM     16 CL   UNL     1      -1.458  -0.921   0.050  0.00  0.00    -0.083 Cl
ATOM     17 CL   UNL     1       3.941  -0.867  -0.034  0.00  0.00    -0.080 Cl
BRANCH  12  18
ATOM     18  O   UNL     1       3.596   2.067  -0.028  0.00  0.00    -0.505 OA
ATOM     19  H   UNL     1       3.949   2.266   0.850  0.00  0.00    +0.292 HD
ENDBRANCH  12  18
ENDBRANCH   7  11
ENDBRANCH   1   8
BRANCH   2  20
ATOM     20  N   UNL     1       2.212   5.497   2.652  0.00  0.00    -0.385 N 
ATOM     21  C   UNL     1       2.845   4.670   3.497  0.00  0.00    +0.090 C 
ATOM     22  H   UNL     1       1.274   5.705   2.789  0.00  0.00    +0.159 HD
BRANCH  21  23
ATOM     23  C   UNL     1       2.131   4.025   4.510  0.00  0.00    +0.040 A 
ATOM     24  C   UNL     1       0.712   4.325   4.736  0.00  0.00    +0.206 A 
ATOM     25  C   UNL     1       0.037   3.650   5.768  0.00  0.00    +0.090 A 
ATOM     26  C   UNL     1       0.701   2.739   6.533  0.00  0.00    +0.044 A 
ATOM     27  C   UNL     1       2.047   2.452   6.321  0.00  0.00    +0.043 A 
ATOM     28  C   UNL     1       2.757   3.066   5.336  0.00  0.00    +0.033 A 
ATOM     29 CL   UNL     1       2.835   1.281   7.331  0.00  0.00    -0.083 Cl
ATOM     30 CL   UNL     1      -1.641   3.977   6.067  0.00  0.00    -0.080 Cl
ATOM     31  O   UNL     1       0.129   5.146   4.040  0.00  0.00    -0.286 OA
ENDBRANCH  21  23
ENDBRANCH   2  20
TORSDOF 5
