REMARK  Name = ZINC42636596
REMARK  9 active torsions:
REMARK  status: ('A' for Active; 'I' for Inactive)
REMARK    1  A    between atoms: C_1  and  C_2
REMARK    2  A    between atoms: C_2  and  C_4
REMARK    3  A    between atoms: C_2  and  N_14
REMARK    4  A    between atoms: N_14  and  C_15
REMARK    5  A    between atoms: C_15  and  C_17
REMARK    6  A    between atoms: C_15  and  C_18
REMARK    7  A    between atoms: N_20  and  C_21
REMARK    8  A    between atoms: C_25  and  N_27
REMARK    9  A    between atoms: C_28  and  C_30
REMARK                            x       y       z     vdW  Elec       q    Type
REMARK                         _______ _______ _______ _____ _____    ______ ____
ROOT
ATOM      1  C   UNL     1      -0.094  -0.078  -2.410  0.00  0.00    +0.014 C 
ATOM      2  C   UNL     1      -1.432  -0.821  -2.394  0.00  0.00    -0.004 C 
ENDROOT
BRANCH   1   3
ATOM      3  C   UNL     1       0.674  -0.453  -3.651  0.00  0.00    +0.203 C 
ATOM      4  O   UNL     1       1.764  -0.977  -3.554  0.00  0.00    -0.277 OA
ATOM      5  N   UNL     1       0.151  -0.206  -4.868  0.00  0.00    -0.287 N 
ATOM      6  H   UNL     1      -0.748   0.151  -4.946  0.00  0.00    +0.155 HD
BRANCH   5   7
ATOM      7  C   UNL     1       0.903  -0.465  -6.019  0.00  0.00    +0.035 A 
ATOM      8  C   UNL     1       0.788   0.366  -7.126  0.00  0.00    +0.023 A 
ATOM      9  C   UNL     1       1.531   0.112  -8.263  0.00  0.00    +0.004 A 
ATOM     10  C   UNL     1       2.390  -0.970  -8.302  0.00  0.00    +0.023 A 
ATOM     11  C   UNL     1       2.510  -1.804  -7.198  0.00  0.00    +0.035 A 
ATOM     12  C   UNL     1       1.769  -1.548  -6.053  0.00  0.00    +0.046 A 
BRANCH  11  13
ATOM     13  N   UNL     1       3.380  -2.899  -7.239  0.00  0.00    -0.286 N 
ATOM     14  C   UNL     1       4.543  -2.811  -7.914  0.00  0.00    +0.214 C 
ATOM     15  O   UNL     1       4.798  -1.813  -8.555  0.00  0.00    -0.276 OA
ATOM     16  C   UNL     1       5.528  -3.951  -7.872  0.00  0.00    +0.109 C 
ATOM     17  H   UNL     1       3.146  -3.722  -6.782  0.00  0.00    +0.155 HD
ENDBRANCH  11  13
ENDBRANCH   5   7
ENDBRANCH   1   3
BRANCH   1  18
ATOM     18  N   UNL     1       0.685  -0.449  -1.221  0.00  0.00    +0.391 N 
ATOM     19  H   UNL     1       1.599  -0.024  -1.272  0.00  0.00    -0.084 HD
ATOM     20  H   UNL     1       0.782  -1.452  -1.181  0.00  0.00    -0.084 HD
BRANCH  18  22
ATOM     21  C   UNL     1      -0.045   1.553  -0.014  0.00  0.00    -0.009 C 
ATOM     22  C   UNL     1      -0.008   0.024  -0.015  0.00  0.00    -0.043 C 
BRANCH  22  23
ATOM     23  C   UNL     1       0.726  -0.461   1.209  0.00  0.00    -0.061 A 
ATOM     24  C   UNL     1       2.109  -0.458   1.235  0.00  0.00    +0.002 A 
ATOM     25  C   UNL     1       2.773  -0.906   2.358  0.00  0.00    +0.004 A 
ATOM     26  C   UNL     1       2.065  -1.360   3.463  0.00  0.00    -0.044 A 
ATOM     27  C   UNL     1       0.689  -1.359   3.439  0.00  0.00    -0.044 A 
ATOM     28  C   UNL     1       0.021  -0.905   2.308  0.00  0.00    +0.006 A 
ATOM     29  C   UNL     1      -0.143  -1.822   4.606  0.00  0.00    +0.035 C 
ATOM     30  C   UNL     1       0.697  -2.663   5.565  0.00  0.00    +0.005 C 
ATOM     31  C   UNL     1       1.975  -1.885   5.900  0.00  0.00    +0.005 C 
ATOM     32  C   UNL     1       2.855  -1.843   4.652  0.00  0.00    +0.035 C 
ENDBRANCH  22  23
ENDBRANCH  18  22
ENDBRANCH   1  18
TORSDOF 6
