REMARK  Name = ZINC02636834
REMARK  10 active torsions:
REMARK  status: ('A' for Active; 'I' for Inactive)
REMARK    1  A    between atoms: C_1  and  C_2
REMARK    2  A    between atoms: C_3  and  C_30
REMARK    3  A    between atoms: C_7  and  N_17
REMARK    4  A    between atoms: C_9  and  C_11
REMARK    5  A    between atoms: C_11  and  N_58
REMARK    6  A    between atoms: N_17  and  C_18
REMARK    7  A    between atoms: C_18  and  C_19
REMARK    8  A    between atoms: C_19  and  C_20
REMARK    9  A    between atoms: C_23  and  S_26
REMARK   10  A    between atoms: S_26  and  N_29
REMARK                            x       y       z     vdW  Elec       q    Type
REMARK                         _______ _______ _______ _____ _____    ______ ____
ROOT
ATOM      1  C   UNL     1       1.341   8.109   0.156  0.00  0.00    +0.045 C 
ATOM      2  C   UNL     1       1.323   8.604   1.580  0.00  0.00    -0.028 A 
ATOM      3  C   UNL     1       1.658   9.872   1.862  0.00  0.00    -0.008 A 
ATOM      4  S   UNL     1       1.485   9.964   3.634  0.00  0.00    -0.074 S 
ATOM      5  C   UNL     1       0.967   8.298   3.948  0.00  0.00    +0.114 A 
ATOM      6  C   UNL     1       0.943   7.713   2.662  0.00  0.00    +0.051 A 
ATOM      7  C   UNL     1       0.553   6.347   2.621  0.00  0.00    +0.131 A 
ATOM      8  N   UNL     1       0.242   5.731   3.750  0.00  0.00    -0.219 NA
ATOM      9  C   UNL     1       0.292   6.340   4.921  0.00  0.00    +0.116 A 
ATOM     10  N   UNL     1       0.646   7.606   5.023  0.00  0.00    -0.227 NA
ATOM     11  C   UNL     1       2.081  10.959   0.908  0.00  0.00    +0.052 C 
ENDROOT
BRANCH   7  12
ATOM     12  N   UNL     1       0.494   5.671   1.416  0.00  0.00    -0.328 N 
ATOM     13  H   UNL     1       0.636   6.150   0.584  0.00  0.00    +0.147 HD
BRANCH  12  14
ATOM     14  C   UNL     1       0.216   4.233   1.395  0.00  0.00    +0.107 C 
BRANCH  14  15
ATOM     15  C   UNL     1       0.206   3.737  -0.052  0.00  0.00    +0.054 C 
BRANCH  15  16
ATOM     16  C   UNL     1      -0.080   2.257  -0.074  0.00  0.00    -0.046 A 
ATOM     17  C   UNL     1      -1.384   1.806  -0.154  0.00  0.00    +0.005 A 
ATOM     18  C   UNL     1      -1.646   0.449  -0.174  0.00  0.00    +0.029 A 
ATOM     19  C   UNL     1      -0.604  -0.457  -0.115  0.00  0.00    +0.105 A 
ATOM     20  C   UNL     1       0.700  -0.006  -0.035  0.00  0.00    +0.029 A 
ATOM     21  C   UNL     1       0.962   1.351  -0.016  0.00  0.00    +0.005 A 
BRANCH  19  22
ATOM     22  S   UNL     1      -0.938  -2.187  -0.139  0.00  0.00    +0.056 S 
ATOM     23  O   UNL     1       0.172  -2.824   0.477  0.00  0.00    -0.153 OA
ATOM     24  O   UNL     1      -2.269  -2.350   0.333  0.00  0.00    -0.153 OA
BRANCH  22  25
ATOM     25  N   UNL     1      -0.937  -2.663  -1.725  0.00  0.00    -0.204 NA
ATOM     26  H   UNL     1      -0.670  -3.566  -1.960  0.00  0.00    +0.144 HD
ATOM     27  H   UNL     1      -1.204  -2.040  -2.419  0.00  0.00    +0.144 HD
ENDBRANCH  22  25
ENDBRANCH  19  22
ENDBRANCH  15  16
ENDBRANCH  14  15
ENDBRANCH  12  14
ENDBRANCH   7  12
BRANCH   9  28
ATOM     28  C   UNL     1      -0.071   5.573   6.167  0.00  0.00    -0.001 C 
BRANCH  28  34
ATOM     29  C   UNL     1      -1.860   7.094   6.759  0.00  0.00    -0.050 C 
ATOM     30  C   UNL     1      -3.375   7.200   6.958  0.00  0.00    +0.141 C 
ATOM     31  O   UNL     1      -3.783   6.277   7.972  0.00  0.00    -0.383 OA
ATOM     32  C   UNL     1      -3.459   4.916   7.676  0.00  0.00    +0.141 C 
ATOM     33  C   UNL     1      -1.945   4.787   7.484  0.00  0.00    -0.050 C 
ATOM     34  N   UNL     1      -1.526   5.700   6.400  0.00  0.00    +0.387 N 
ATOM     35  H   UNL     1      -2.025   5.448   5.539  0.00  0.00    -0.081 HD
ENDBRANCH  28  34
ENDBRANCH   9  28
TORSDOF 8
