REMARK  Name = ZINC40645193
REMARK  8 active torsions:
REMARK  status: ('A' for Active; 'I' for Inactive)
REMARK    1  A    between atoms: C_1  and  C_2
REMARK    2  A    between atoms: C_2  and  C_28
REMARK    3  A    between atoms: C_4  and  N_10
REMARK    4  A    between atoms: C_6  and  C_8
REMARK    5  A    between atoms: C_6  and  C_9
REMARK    6  A    between atoms: C_12  and  N_25
REMARK    7  A    between atoms: C_13  and  N_17
REMARK    8  A    between atoms: N_17  and  C_18
REMARK                            x       y       z     vdW  Elec       q    Type
REMARK                         _______ _______ _______ _____ _____    ______ ____
ROOT
ATOM      1  N   UNL     1       2.843  -1.069  -2.426  0.00  0.00    -0.324 N 
ATOM      2  C   UNL     1       3.906  -0.433  -3.048  0.00  0.00    +0.155 A 
ATOM      3  C   UNL     1       4.428  -0.930  -4.238  0.00  0.00    +0.205 A 
ATOM      4  C   UNL     1       5.495  -0.256  -4.822  0.00  0.00    +0.159 A 
ATOM      5  N   UNL     1       5.975   0.835  -4.226  0.00  0.00    -0.218 NA
ATOM      6  C   UNL     1       5.453   1.274  -3.099  0.00  0.00    +0.225 A 
ATOM      7  N   UNL     1       4.439   0.666  -2.518  0.00  0.00    -0.218 NA
ATOM      8  H   UNL     1       2.460  -1.869  -2.818  0.00  0.00    +0.148 HD
ENDROOT
BRANCH   1  12
ATOM      9  C   UNL     1      -0.020   1.048   0.167  0.00  0.00    -0.010 C 
ATOM     10  C   UNL     1       0.255  -0.455   0.281  0.00  0.00    -0.072 C 
ATOM     11  C   UNL     1       0.840  -0.974  -1.028  0.00  0.00    +0.009 C 
ATOM     12  C   UNL     1       2.296  -0.532  -1.174  0.00  0.00    +0.069 C 
ATOM     13  C   UNL     1       3.086  -1.099   0.006  0.00  0.00    +0.009 C 
ATOM     14  C   UNL     1       2.519  -0.582   1.324  0.00  0.00    -0.072 C 
ATOM     15  N   UNL     1       1.081  -0.754   1.438  0.00  0.00    +0.386 N 
ATOM     16  C   UNL     1       2.922   0.882   1.522  0.00  0.00    -0.010 C 
ATOM     17  C   UNL     1       3.181  -1.393   2.461  0.00  0.00    -0.010 C 
ATOM     18  C   UNL     1      -1.110  -1.152   0.485  0.00  0.00    -0.010 C 
ATOM     19  H   UNL     1       0.751  -0.185   2.224  0.00  0.00    -0.084 HD
ATOM     20  H   UNL     1       0.896  -1.722   1.722  0.00  0.00    -0.084 HD
ENDBRANCH   1  12
BRANCH   3  21
ATOM     21  N   UNL     1       3.863  -2.146  -4.866  0.00  0.00    +0.063 N 
ATOM     22  O   UNL     1       2.961  -2.050  -5.664  0.00  0.00    -0.126 OA
ATOM     23  O   UNL     1       4.304  -3.235  -4.580  0.00  0.00    -0.126 OA
ENDBRANCH   3  21
BRANCH   4  24
ATOM     24  N   UNL     1       6.052  -0.711  -6.008  0.00  0.00    -0.297 N 
ATOM     25  H   UNL     1       5.646  -1.456  -6.480  0.00  0.00    +0.154 HD
BRANCH  24  26
ATOM     26  C   UNL     1       7.197  -0.097  -6.525  0.00  0.00    +0.032 A 
ATOM     27  C   UNL     1       7.351   0.045  -7.898  0.00  0.00    +0.024 A 
ATOM     28  C   UNL     1       8.482   0.653  -8.405  0.00  0.00    +0.017 A 
ATOM     29  C   UNL     1       9.463   1.119  -7.547  0.00  0.00    +0.018 A 
ATOM     30  C   UNL     1       9.312   0.978  -6.179  0.00  0.00    +0.017 A 
ATOM     31  C   UNL     1       8.180   0.376  -5.666  0.00  0.00    +0.024 A 
ATOM     32 BR   UNL     1      11.011   1.950  -8.246  0.00  0.00    -0.050 Br
ENDBRANCH  24  26
ENDBRANCH   4  24
TORSDOF 4
