REMARK  Name = ZINC50138249
REMARK  9 active torsions:
REMARK  status: ('A' for Active; 'I' for Inactive)
REMARK    1  A    between atoms: C_1  and  C_2
REMARK    2  A    between atoms: C_2  and  C_4
REMARK    3  A    between atoms: C_2  and  N_16
REMARK    4  A    between atoms: C_6  and  C_9
REMARK    5  A    between atoms: N_19  and  C_20
REMARK    6  A    between atoms: C_20  and  C_21
REMARK    7  A    between atoms: C_21  and  C_22
REMARK    8  A    between atoms: C_22  and  N_23
REMARK    9  A    between atoms: N_23  and  C_24
REMARK                            x       y       z     vdW  Elec       q    Type
REMARK                         _______ _______ _______ _____ _____    ______ ____
ROOT
ATOM      1  N   UNL     1       0.711  -0.489   1.189  0.00  0.00    -0.288 N 
ATOM      2  C   UNL     1       2.054  -0.600   1.174  0.00  0.00    +0.300 C 
ATOM      3  O   UNL     1       2.677  -0.297   0.175  0.00  0.00    -0.253 OA
ATOM      4  N   UNL     1       2.706  -1.046   2.266  0.00  0.00    -0.299 N 
ATOM      5  H   UNL     1       0.213  -0.731   1.986  0.00  0.00    +0.151 HD
ATOM      6  H   UNL     1       2.208  -1.288   3.062  0.00  0.00    +0.150 HD
ENDROOT
BRANCH   1   8
ATOM      7  C   UNL     1      -0.019   1.526   0.010  0.00  0.00    +0.038 C 
ATOM      8  C   UNL     1       0.002  -0.004   0.002  0.00  0.00    +0.160 C 
BRANCH   8   9
ATOM      9  C   UNL     1      -1.412  -0.526   0.013  0.00  0.00    +0.248 A 
ATOM     10  N   UNL     1      -2.039  -1.045  -1.004  0.00  0.00    -0.190 NA
ATOM     11  C   UNL     1      -3.284  -1.405  -0.642  0.00  0.00    +0.202 A 
ATOM     12  N   UNL     1      -3.453  -1.111   0.624  0.00  0.00    -0.056 NA
ATOM     13  O   UNL     1      -2.233  -0.539   1.071  0.00  0.00    -0.336 OA
BRANCH  11  14
ATOM     14  C   UNL     1      -4.296  -2.030  -1.528  0.00  0.00    +0.023 A 
ATOM     15  C   UNL     1      -3.988  -2.298  -2.861  0.00  0.00    +0.014 A 
ATOM     16  C   UNL     1      -4.932  -2.880  -3.682  0.00  0.00    +0.039 A 
ATOM     17  C   UNL     1      -6.185  -3.199  -3.183  0.00  0.00    +0.123 A 
ATOM     18  C   UNL     1      -6.495  -2.934  -1.858  0.00  0.00    +0.039 A 
ATOM     19  C   UNL     1      -5.555  -2.357  -1.029  0.00  0.00    +0.014 A 
ATOM     20  F   UNL     1      -7.106  -3.769  -3.989  0.00  0.00    -0.205 F 
ENDBRANCH  11  14
ENDBRANCH   8   9
ENDBRANCH   1   8
BRANCH   4  21
ATOM     21  C   UNL     1       4.166  -1.166   2.249  0.00  0.00    +0.104 C 
BRANCH  21  22
ATOM     22  C   UNL     1       4.649  -1.692   3.602  0.00  0.00    -0.000 C 
BRANCH  22  23
ATOM     23  C   UNL     1       6.174  -1.817   3.585  0.00  0.00    -0.081 C 
BRANCH  23  24
ATOM     24  N   UNL     1       6.639  -2.321   4.884  0.00  0.00    +0.381 N 
ATOM     25  H   UNL     1       6.362  -1.680   5.612  0.00  0.00    -0.086 HD
ATOM     26  H   UNL     1       6.229  -3.227   5.059  0.00  0.00    -0.086 HD
BRANCH  24  27
ATOM     27  C   UNL     1       8.103  -2.442   4.867  0.00  0.00    -0.072 C 
ATOM     28  C   UNL     1       8.515  -3.506   3.849  0.00  0.00    -0.016 C 
ATOM     29  C   UNL     1      10.040  -3.632   3.832  0.00  0.00    -0.002 C 
ATOM     30  C   UNL     1      10.534  -4.037   5.222  0.00  0.00    -0.000 C 
ATOM     31  C   UNL     1      10.122  -2.973   6.240  0.00  0.00    -0.002 C 
ATOM     32  C   UNL     1       8.597  -2.847   6.258  0.00  0.00    -0.016 C 
ENDBRANCH  24  27
ENDBRANCH  23  24
ENDBRANCH  22  23
ENDBRANCH  21  22
ENDBRANCH   4  21
TORSDOF 8
