REMARK  Name = ZINC32138996
REMARK  9 active torsions:
REMARK  status: ('A' for Active; 'I' for Inactive)
REMARK    1  A    between atoms: C_1  and  C_2
REMARK    2  A    between atoms: C_2  and  O_3
REMARK    3  A    between atoms: O_3  and  C_4
REMARK    4  A    between atoms: C_7  and  N_10
REMARK    5  A    between atoms: C_16  and  C_17
REMARK    6  A    between atoms: C_19  and  O_26
REMARK    7  A    between atoms: C_20  and  O_24
REMARK    8  A    between atoms: O_24  and  C_25
REMARK    9  A    between atoms: O_26  and  C_27
REMARK                            x       y       z     vdW  Elec       q    Type
REMARK                         _______ _______ _______ _____ _____    ______ ____
ROOT
ATOM      1  N   UNL     1       1.341   0.038   6.085  0.00  0.00    -0.226 NA
ATOM      2  C   UNL     1       1.702  -1.206   6.297  0.00  0.00    +0.166 C 
ATOM      3  N   UNL     1       1.370  -2.330   5.571  0.00  0.00    -0.260 N 
ATOM      4  C   UNL     1       1.827  -3.520   5.924  0.00  0.00    +0.256 C 
ATOM      5  O   UNL     1       1.548  -4.522   5.292  0.00  0.00    -0.269 OA
ATOM      6  C   UNL     1       2.688  -3.578   7.121  0.00  0.00    +0.078 C 
ATOM      7  C   UNL     1       3.282  -4.650   7.703  0.00  0.00    +0.028 C 
ATOM      8  S   UNL     1       2.736  -1.856   7.599  0.00  0.00    -0.049 S 
ATOM      9  H   UNL     1       0.718  -2.243   4.689  0.00  0.00    +0.157 HD
ENDROOT
BRANCH   7  10
ATOM     10  C   UNL     1       3.247  -5.959   7.040  0.00  0.00    -0.019 A 
ATOM     11  C   UNL     1       3.054  -7.124   7.793  0.00  0.00    +0.057 A 
ATOM     12  C   UNL     1       3.017  -8.352   7.163  0.00  0.00    +0.163 A 
ATOM     13  C   UNL     1       3.181  -8.432   5.780  0.00  0.00    +0.175 A 
ATOM     14  C   UNL     1       3.377  -7.279   5.032  0.00  0.00    +0.059 A 
ATOM     15  C   UNL     1       3.411  -6.048   5.652  0.00  0.00    +0.026 A 
ATOM     16  I   UNL     1       3.623  -7.410   2.956  0.00  0.00    -0.040 I 
BRANCH  13  17
ATOM     17  O   UNL     1       3.149  -9.642   5.163  0.00  0.00    -0.490 OA
ATOM     18  C   UNL     1       4.392 -10.333   5.025  0.00  0.00    +0.277 C 
ENDBRANCH  13  17
BRANCH  12  19
ATOM     19  O   UNL     1       2.825  -9.484   7.891  0.00  0.00    -0.491 OA
ATOM     20  C   UNL     1       2.664  -9.328   9.302  0.00  0.00    +0.277 C 
ENDBRANCH  12  19
ENDBRANCH   7  10
BRANCH   1  24
ATOM     21  C   UNL     1      -1.100   0.968   2.872  0.00  0.00    +0.121 A 
ATOM     22  C   UNL     1      -0.028   0.104   2.699  0.00  0.00    +0.048 A 
ATOM     23  C   UNL     1       0.791  -0.204   3.765  0.00  0.00    +0.031 A 
ATOM     24  C   UNL     1       0.533   0.346   5.022  0.00  0.00    +0.067 A 
ATOM     25  C   UNL     1      -0.550   1.211   5.193  0.00  0.00    +0.031 A 
ATOM     26  C   UNL     1      -1.360   1.518   4.120  0.00  0.00    +0.048 A 
BRANCH  21  27
ATOM     27  O   UNL     1      -1.902   1.273   1.817  0.00  0.00    -0.492 OA
BRANCH  27  29
ATOM     28  C   UNL     1      -2.583   1.131  -0.498  0.00  0.00    +0.048 C 
ATOM     29  C   UNL     1      -1.578   0.673   0.561  0.00  0.00    +0.225 C 
ENDBRANCH  27  29
ENDBRANCH  21  27
ENDBRANCH   1  24
TORSDOF 6
