REMARK  Name = ZINC27343890
REMARK  9 active torsions:
REMARK  status: ('A' for Active; 'I' for Inactive)
REMARK    1  A    between atoms: C_1  and  C_2
REMARK    2  A    between atoms: C_5  and  C_8
REMARK    3  A    between atoms: C_8  and  C_34
REMARK    4  A    between atoms: N_11  and  C_15
REMARK    5  A    between atoms: C_15  and  C_16
REMARK    6  A    between atoms: N_18  and  C_19
REMARK    7  A    between atoms: C_19  and  C_20
REMARK    8  A    between atoms: C_20  and  C_22
REMARK    9  A    between atoms: C_20  and  N_29
REMARK                            x       y       z     vdW  Elec       q    Type
REMARK                         _______ _______ _______ _____ _____    ______ ____
ROOT
ATOM      1  C   UNL     1      -1.357  -7.483  -3.666  0.00  0.00    +0.231 C 
ATOM      2  O   UNL     1      -0.220  -7.868  -3.841  0.00  0.00    -0.274 OA
ATOM      3  N   UNL     1      -2.374  -8.367  -3.655  0.00  0.00    -0.315 N 
ATOM      4  H   UNL     1      -3.405  -8.018  -3.496  0.00  0.00    +0.149 HD
ENDROOT
BRANCH   1   5
ATOM      5  C   UNL     1      -1.632  -6.016  -3.459  0.00  0.00    +0.213 C 
BRANCH   5   9
ATOM      6  C   UNL     1       1.444  -4.078  -4.221  0.00  0.00    +0.135 C 
ATOM      7  C   UNL     1       0.154  -4.753  -4.642  0.00  0.00    +0.251 C 
ATOM      8  O   UNL     1      -0.309  -4.816  -5.761  0.00  0.00    -0.272 OA
ATOM      9  N   UNL     1      -0.372  -5.270  -3.514  0.00  0.00    -0.215 N 
ATOM     10  C   UNL     1       0.399  -5.017  -2.450  0.00  0.00    +0.310 C 
ATOM     11  O   UNL     1       0.133  -5.382  -1.321  0.00  0.00    -0.252 OA
ATOM     12  N   UNL     1       1.501  -4.314  -2.768  0.00  0.00    -0.281 N 
ATOM     13  C   UNL     1       2.642  -4.721  -4.921  0.00  0.00    +0.047 C 
ATOM     14  H   UNL     1       2.347  -3.929  -2.180  0.00  0.00    +0.152 HD
BRANCH   6  19
ATOM     15  C   UNL     1       1.235   1.585  -5.351  0.00  0.00    +0.044 C 
ATOM     16  C   UNL     1       1.290   0.108  -5.057  0.00  0.00    -0.050 A 
ATOM     17  C   UNL     1       0.584  -0.780  -5.846  0.00  0.00    +0.004 A 
ATOM     18  C   UNL     1       0.638  -2.135  -5.578  0.00  0.00    +0.006 A 
ATOM     19  C   UNL     1       1.390  -2.601  -4.516  0.00  0.00    -0.015 A 
ATOM     20  C   UNL     1       2.092  -1.712  -3.724  0.00  0.00    +0.006 A 
ATOM     21  C   UNL     1       2.042  -0.357  -3.994  0.00  0.00    +0.004 A 
ENDBRANCH   6  19
ENDBRANCH   5   9
ENDBRANCH   1   5
BRANCH   3  22
ATOM     22  C   UNL     1      -2.106  -9.793  -3.856  0.00  0.00    +0.093 C 
BRANCH  22  23
ATOM     23  C   UNL     1      -3.422 -10.572  -3.799  0.00  0.00    -0.019 C 
BRANCH  23  24
ATOM     24  C   UNL     1      -3.147 -12.039  -4.009  0.00  0.00    -0.041 A 
ATOM     25  C   UNL     1      -3.424 -12.626  -5.229  0.00  0.00    +0.003 A 
ATOM     26  C   UNL     1      -3.172 -13.972  -5.422  0.00  0.00    +0.000 A 
ATOM     27  C   UNL     1      -2.643 -14.730  -4.394  0.00  0.00    +0.001 A 
ATOM     28  C   UNL     1      -2.366 -14.144  -3.174  0.00  0.00    +0.020 A 
ATOM     29  C   UNL     1      -2.613 -12.796  -2.982  0.00  0.00    +0.043 A 
ATOM     30 CL   UNL     1      -2.258 -12.057  -1.452  0.00  0.00    -0.083 Cl
ENDBRANCH  23  24
BRANCH  23  31
ATOM     31  N   UNL     1      -4.324 -10.087  -4.853  0.00  0.00    +0.385 N 
ATOM     32  C   UNL     1      -3.623 -10.010  -6.160  0.00  0.00    -0.078 C 
ATOM     33  C   UNL     1      -4.784 -10.012  -7.186  0.00  0.00    -0.020 C 
ATOM     34  C   UNL     1      -5.801 -10.990  -6.555  0.00  0.00    -0.020 C 
ATOM     35  C   UNL     1      -5.453 -11.021  -5.055  0.00  0.00    -0.078 C 
ATOM     36  H   UNL     1      -4.673  -9.099  -4.517  0.00  0.00    -0.081 HD
ENDBRANCH  23  31
ENDBRANCH  22  23
ENDBRANCH   3  22
TORSDOF 7
