REMARK  Name = ZINC19731597
REMARK  5 active torsions:
REMARK  status: ('A' for Active; 'I' for Inactive)
REMARK    1  A    between atoms: C_9  and  C_12
REMARK    2  A    between atoms: C_17  and  O_20
REMARK    3  A    between atoms: O_20  and  C_21
REMARK    4  A    between atoms: C_25  and  C_27
REMARK    5  A    between atoms: C_27  and  N_28
REMARK                            x       y       z     vdW  Elec       q    Type
REMARK                         _______ _______ _______ _____ _____    ______ ____
ROOT
ATOM      1  C   UNL     1      -0.278   5.725  -1.309  0.00  0.00    +0.121 A 
ATOM      2  C   UNL     1      -1.492   6.183  -0.818  0.00  0.00    +0.045 A 
ATOM      3  C   UNL     1      -2.407   5.289  -0.297  0.00  0.00    +0.004 A 
ATOM      4  C   UNL     1      -2.116   3.938  -0.269  0.00  0.00    +0.005 A 
ATOM      5  C   UNL     1      -0.905   3.479  -0.753  0.00  0.00    -0.030 A 
ATOM      6  C   UNL     1       0.013   4.369  -1.275  0.00  0.00    +0.050 A 
ENDROOT
BRANCH   1   7
ATOM      7  O   UNL     1       0.624   6.603  -1.822  0.00  0.00    -0.489 OA
BRANCH   7  13
ATOM      8  C   UNL     1       0.531  11.705  -3.459  0.00  0.00    +0.260 C 
ATOM      9  O   UNL     1       1.557  12.343  -3.350  0.00  0.00    -0.271 OA
ATOM     10  N   UNL     1       0.291  10.668  -2.632  0.00  0.00    -0.298 N 
ATOM     11  C   UNL     1       1.263  10.298  -1.594  0.00  0.00    +0.111 C 
ATOM     12  C   UNL     1       1.602   8.811  -1.744  0.00  0.00    +0.063 C 
ATOM     13  C   UNL     1       0.309   7.993  -1.715  0.00  0.00    +0.176 C 
ATOM     14  C   UNL     1      -0.584   8.405  -2.887  0.00  0.00    +0.063 C 
ATOM     15  C   UNL     1      -0.947   9.887  -2.751  0.00  0.00    +0.111 C 
BRANCH   8  24
ATOM     16  C   UNL     1      -2.613  15.100  -7.805  0.00  0.00    +0.004 A 
ATOM     17  C   UNL     1      -1.252  15.188  -8.034  0.00  0.00    +0.004 A 
ATOM     18  C   UNL     1      -0.365  14.525  -7.208  0.00  0.00    +0.049 A 
ATOM     19  C   UNL     1      -0.838  13.768  -6.146  0.00  0.00    +0.163 A 
ATOM     20  C   UNL     1      -2.206  13.676  -5.917  0.00  0.00    +0.162 A 
ATOM     21  C   UNL     1      -3.090  14.346  -6.750  0.00  0.00    +0.049 A 
ATOM     22  O   UNL     1      -2.691  12.932  -4.886  0.00  0.00    -0.484 OA
ATOM     23  C   UNL     1      -1.764  12.580  -3.854  0.00  0.00    +0.283 C 
ATOM     24  C   UNL     1      -0.476  12.073  -4.518  0.00  0.00    +0.296 C 
ATOM     25  O   UNL     1       0.048  13.122  -5.339  0.00  0.00    -0.473 OA
ENDBRANCH   8  24
ENDBRANCH   7  13
ENDBRANCH   1   7
BRANCH   5  26
ATOM     26  C   UNL     1      -0.589   2.006  -0.717  0.00  0.00    +0.119 C 
BRANCH  26  27
ATOM     27  N   UNL     1       0.079   1.679   0.550  0.00  0.00    -0.295 NA
ATOM     28  C   UNL     1       1.400   2.319   0.629  0.00  0.00    +0.103 C 
ATOM     29  C   UNL     1       2.028   2.021   1.992  0.00  0.00    +0.122 C 
ATOM     30  N   UNL     1       2.139   0.566   2.170  0.00  0.00    -0.314 N 
ATOM     31  C   UNL     1       0.818  -0.074   2.091  0.00  0.00    +0.122 C 
ATOM     32  C   UNL     1       0.190   0.225   0.727  0.00  0.00    +0.103 C 
ATOM     33  C   UNL     1       2.771   0.257   3.368  0.00  0.00    +0.099 A 
ATOM     34  C   UNL     1       4.037   0.770   3.632  0.00  0.00    +0.042 A 
ATOM     35  C   UNL     1       4.655   0.455   4.829  0.00  0.00    +0.005 A 
ATOM     36  C   UNL     1       3.983  -0.366   5.725  0.00  0.00    +0.018 A 
ATOM     37  C   UNL     1       2.728  -0.841   5.398  0.00  0.00    +0.084 A 
ATOM     38  N   UNL     1       2.161  -0.519   4.251  0.00  0.00    -0.350 N 
ATOM     39  H   UNL     1       1.156  -0.912   4.036  0.00  0.00    +0.166 HD
ENDBRANCH  26  27
ENDBRANCH   5  26
TORSDOF 5
