REMARK  Name = ZINC39634801
REMARK  14 active torsions:
REMARK  status: ('A' for Active; 'I' for Inactive)
REMARK    1  A    between atoms: C_1  and  C_2
REMARK    2  A    between atoms: C_2  and  C_3
REMARK    3  A    between atoms: C_2  and  N_4
REMARK    4  A    between atoms: N_4  and  C_5
REMARK    5  A    between atoms: N_4  and  C_27
REMARK    6  A    between atoms: C_5  and  C_6
REMARK    7  A    between atoms: C_6  and  N_7
REMARK    8  A    between atoms: C_8  and  C_10
REMARK    9  A    between atoms: C_21  and  C_23
REMARK   10  A    between atoms: C_23  and  C_24
REMARK   11  A    between atoms: C_24  and  S_25
REMARK   12  A    between atoms: S_25  and  C_26
REMARK   13  A    between atoms: C_27  and  C_28
REMARK   14  A    between atoms: C_27  and  C_29
REMARK                            x       y       z     vdW  Elec       q    Type
REMARK                         _______ _______ _______ _____ _____    ______ ____
ROOT
ATOM      1  C   UNL     1      -4.902   0.761  -4.351  0.00  0.00    +0.100 C 
ATOM      2  C   UNL     1      -4.034   1.779  -5.123  0.00  0.00    +0.121 C 
ATOM      3  N   UNL     1      -4.966   2.876  -5.476  0.00  0.00    -0.300 N 
ATOM      4  C   UNL     1      -5.827   3.028  -4.279  0.00  0.00    +0.115 C 
ATOM      5  C   UNL     1      -6.078   1.585  -3.798  0.00  0.00    -0.004 C 
ATOM      6  C   UNL     1      -7.398   1.064  -4.359  0.00  0.00    -0.010 C 
ATOM      7  C   UNL     1      -8.555   1.861  -3.751  0.00  0.00    -0.082 C 
ATOM      8  N   UNL     1      -8.533   1.723  -2.290  0.00  0.00    +0.379 N 
ATOM      9  C   UNL     1      -7.301   2.310  -1.750  0.00  0.00    -0.082 C 
ATOM     10  C   UNL     1      -6.090   1.532  -2.273  0.00  0.00    -0.010 C 
ATOM     11  C   UNL     1      -5.019   3.576  -6.626  0.00  0.00    +0.216 C 
ATOM     12  O   UNL     1      -5.847   4.452  -6.765  0.00  0.00    -0.276 OA
ATOM     13  H   UNL     1      -9.331   2.198  -1.896  0.00  0.00    -0.086 HD
ATOM     14  H   UNL     1      -8.573   0.745  -2.045  0.00  0.00    -0.086 HD
ENDROOT
BRANCH   1  16
ATOM     15  N   UNL     1      -4.397  -1.101  -2.804  0.00  0.00    -0.317 N 
ATOM     16  C   UNL     1      -4.115   0.148  -3.222  0.00  0.00    +0.218 C 
ATOM     17  O   UNL     1      -3.226   0.779  -2.690  0.00  0.00    -0.275 OA
ATOM     18  H   UNL     1      -5.108  -1.606  -3.229  0.00  0.00    +0.149 HD
BRANCH  15  19
ATOM     19  C   UNL     1      -3.631  -1.698  -1.706  0.00  0.00    +0.085 C 
BRANCH  19  20
ATOM     20  C   UNL     1      -4.149  -3.111  -1.431  0.00  0.00    -0.059 C 
BRANCH  20  21
ATOM     21  N   UNL     1      -3.401  -3.697  -0.312  0.00  0.00    +0.384 N 
ATOM     22  H   UNL     1      -2.413  -3.667  -0.515  0.00  0.00    -0.081 HD
BRANCH  21  24
ATOM     23  C   UNL     1      -3.560  -5.883  -1.405  0.00  0.00    -0.014 C 
ATOM     24  C   UNL     1      -3.819  -5.093  -0.121  0.00  0.00    -0.074 C 
ATOM     25  C   UNL     1      -3.021  -5.711   1.029  0.00  0.00    -0.014 C 
ENDBRANCH  21  24
BRANCH  21  26
ATOM     26  C   UNL     1      -3.673  -2.933   0.913  0.00  0.00    -0.074 C 
ATOM     27  C   UNL     1      -4.969  -3.436   1.552  0.00  0.00    -0.014 C 
ATOM     28  C   UNL     1      -2.515  -3.116   1.896  0.00  0.00    -0.014 C 
ENDBRANCH  21  26
ENDBRANCH  20  21
ENDBRANCH  19  20
ENDBRANCH  15  19
ENDBRANCH   1  16
BRANCH  11  29
ATOM     29  C   UNL     1      -4.050   3.272  -7.739  0.00  0.00    +0.106 C 
BRANCH  29  30
ATOM     30  C   UNL     1      -4.323   4.203  -8.922  0.00  0.00    +0.078 C 
BRANCH  30  31
ATOM     31  S   UNL     1      -3.157   3.837 -10.262  0.00  0.00    -0.164 S 
ATOM     32  C   UNL     1      -3.608   5.011 -11.570  0.00  0.00    +0.084 C 
ENDBRANCH  30  31
ENDBRANCH  29  30
ENDBRANCH  11  29
TORSDOF 9
