REMARK  Name = ZINC03329001
REMARK  12 active torsions:
REMARK  status: ('A' for Active; 'I' for Inactive)
REMARK    1  A    between atoms: C_1  and  C_2
REMARK    2  A    between atoms: C_5  and  O_28
REMARK    3  A    between atoms: C_6  and  N_8
REMARK    4  A    between atoms: C_9  and  C_11
REMARK    5  A    between atoms: C_11  and  O_12
REMARK    6  A    between atoms: O_12  and  N_13
REMARK    7  A    between atoms: C_14  and  C_16
REMARK    8  A    between atoms: C_16  and  C_17
REMARK    9  A    between atoms: N_19  and  C_20
REMARK   10  A    between atoms: C_25  and  O_26
REMARK   11  A    between atoms: O_26  and  C_27
REMARK   12  A    between atoms: O_28  and  C_29
REMARK                            x       y       z     vdW  Elec       q    Type
REMARK                         _______ _______ _______ _____ _____    ______ ____
ROOT
ATOM      1  N   UNL     1       0.482  -2.575   7.226  0.00  0.00    -0.253 N 
ATOM      2  C   UNL     1       0.586  -1.810   8.357  0.00  0.00    +0.107 C 
ATOM      3  N   UNL     1       0.569  -0.519   8.268  0.00  0.00    -0.387 N 
ATOM      4  H   UNL     1       0.495  -3.543   7.293  0.00  0.00    +0.195 HD
ATOM      5  H   UNL     1       0.642   0.023   9.069  0.00  0.00    +0.157 HD
ATOM      6  H   UNL     1       0.482  -0.094   7.401  0.00  0.00    +0.157 HD
ENDROOT
BRANCH   1   7
ATOM      7  O   UNL     1       0.356  -1.954   5.960  0.00  0.00    -0.264 OA
BRANCH   7   8
ATOM      8  C   UNL     1       0.258  -2.873   4.869  0.00  0.00    +0.288 C 
BRANCH   8  10
ATOM      9  N   UNL     1       0.021  -2.770   2.409  0.00  0.00    -0.281 N 
ATOM     10  C   UNL     1       0.129  -2.107   3.578  0.00  0.00    +0.246 C 
ATOM     11  O   UNL     1       0.122  -0.894   3.590  0.00  0.00    -0.273 OA
ATOM     12  H   UNL     1      -0.055  -3.737   2.405  0.00  0.00    +0.155 HD
BRANCH   9  18
ATOM     13  C   UNL     1       1.253   1.245  -0.149  0.00  0.00    +0.044 C 
ATOM     14  C   UNL     1       0.607  -0.114  -0.069  0.00  0.00    -0.048 A 
ATOM     15  C   UNL     1       0.012  -0.662  -1.190  0.00  0.00    +0.007 A 
ATOM     16  C   UNL     1      -0.583  -1.908  -1.123  0.00  0.00    +0.048 A 
ATOM     17  C   UNL     1      -0.583  -2.613   0.070  0.00  0.00    +0.141 A 
ATOM     18  C   UNL     1       0.018  -2.062   1.200  0.00  0.00    +0.076 A 
ATOM     19  C   UNL     1       0.617  -0.813   1.123  0.00  0.00    +0.030 A 
BRANCH  17  20
ATOM     20  O   UNL     1      -1.167  -3.838   0.138  0.00  0.00    -0.493 OA
ATOM     21  C   UNL     1      -1.764  -4.340  -1.060  0.00  0.00    +0.277 C 
ENDBRANCH  17  20
ENDBRANCH   9  18
ENDBRANCH   8  10
ENDBRANCH   7   8
ENDBRANCH   1   7
BRANCH   2  22
ATOM     22  C   UNL     1       0.719  -2.470   9.705  0.00  0.00    +0.169 C 
BRANCH  22  23
ATOM     23  C   UNL     1       2.178  -2.681  10.018  0.00  0.00    +0.225 C 
ATOM     24  O   UNL     1       3.026  -2.330   9.225  0.00  0.00    -0.275 OA
ATOM     25  N   UNL     1       2.541  -3.261  11.180  0.00  0.00    -0.282 N 
ATOM     26  H   UNL     1       1.863  -3.615  11.778  0.00  0.00    +0.155 HD
BRANCH  25  27
ATOM     27  C   UNL     1       3.896  -3.353  11.524  0.00  0.00    +0.076 A 
ATOM     28  C   UNL     1       4.810  -2.452  10.997  0.00  0.00    +0.027 A 
ATOM     29  C   UNL     1       6.146  -2.544  11.338  0.00  0.00    +0.002 A 
ATOM     30  C   UNL     1       6.575  -3.533  12.204  0.00  0.00    +0.004 A 
ATOM     31  C   UNL     1       5.670  -4.434  12.734  0.00  0.00    +0.047 A 
ATOM     32  C   UNL     1       4.328  -4.345  12.401  0.00  0.00    +0.141 A 
BRANCH  32  33
ATOM     33  O   UNL     1       3.436  -5.227  12.926  0.00  0.00    -0.493 OA
ATOM     34  C   UNL     1       3.951  -6.217  13.818  0.00  0.00    +0.277 C 
ENDBRANCH  32  33
ENDBRANCH  25  27
ENDBRANCH  22  23
ENDBRANCH   2  22
TORSDOF 9
