REMARK  Name = ZINC61812956
REMARK  6 active torsions:
REMARK  status: ('A' for Active; 'I' for Inactive)
REMARK    1  A    between atoms: C_1  and  C_2
REMARK    2  A    between atoms: C_2  and  C_4
REMARK    3  A    between atoms: C_2  and  N_11
REMARK    4  A    between atoms: N_11  and  C_12
REMARK    5  A    between atoms: C_16  and  C_18
REMARK    6  A    between atoms: C_18  and  N_20
REMARK                            x       y       z     vdW  Elec       q    Type
REMARK                         _______ _______ _______ _____ _____    ______ ____
ROOT
ATOM      1  C   UNL     1      -2.073  -0.647  -1.183  0.00  0.00    +0.031 A 
ATOM      2  C   UNL     1      -1.482  -0.311  -2.400  0.00  0.00    +0.040 A 
ATOM      3  C   UNL     1      -2.206  -0.458  -3.567  0.00  0.00    +0.085 A 
ATOM      4  N   UNL     1      -3.443  -0.910  -3.545  0.00  0.00    -0.359 N 
ATOM      5  C   UNL     1      -4.048  -1.242  -2.409  0.00  0.00    +0.069 A 
ATOM      6  C   UNL     1      -3.381  -1.128  -1.193  0.00  0.00    +0.051 A 
ATOM      7  H   UNL     1      -3.927  -1.002  -4.381  0.00  0.00    +0.165 HD
ENDROOT
BRANCH   1   8
ATOM      8  N   UNL     1      -1.372  -0.511   0.012  0.00  0.00    -0.337 N 
ATOM      9  H   UNL     1      -1.794  -0.752   0.852  0.00  0.00    +0.147 HD
BRANCH   8  11
ATOM     10  C   UNL     1      -0.019   1.526   0.010  0.00  0.00    +0.033 C 
ATOM     11  C   UNL     1       0.002  -0.004   0.002  0.00  0.00    +0.098 C 
BRANCH  11  12
ATOM     12  C   UNL     1       0.731  -0.503   1.223  0.00  0.00    -0.028 A 
ATOM     13  C   UNL     1       0.081  -0.558   2.442  0.00  0.00    +0.006 A 
ATOM     14  C   UNL     1       0.749  -1.017   3.562  0.00  0.00    +0.015 A 
ATOM     15  C   UNL     1       2.068  -1.420   3.463  0.00  0.00    +0.018 A 
ATOM     16  C   UNL     1       2.718  -1.365   2.243  0.00  0.00    +0.015 A 
ATOM     17  C   UNL     1       2.048  -0.911   1.123  0.00  0.00    +0.006 A 
ATOM     18 BR   UNL     1       2.983  -2.046   4.995  0.00  0.00    -0.050 Br
ENDBRANCH  11  12
ENDBRANCH   8  11
ENDBRANCH   1   8
BRANCH   5  19
ATOM     19  C   UNL     1      -5.439  -1.743  -2.438  0.00  0.00    +0.093 C 
ATOM     20  S   UNL     1      -5.940  -2.943  -1.326  0.00  0.00    -0.034 S 
BRANCH  19  21
ATOM     21  N   UNL     1      -6.312  -1.254  -3.341  0.00  0.00    -0.351 N 
ATOM     22  H   UNL     1      -6.028  -0.574  -3.972  0.00  0.00    +0.143 HD
ATOM     23  H   UNL     1      -7.225  -1.583  -3.360  0.00  0.00    +0.143 HD
ENDBRANCH  19  21
ENDBRANCH   5  19
TORSDOF 5
