REMARK  Name = ZINC66233258
REMARK  9 active torsions:
REMARK  status: ('A' for Active; 'I' for Inactive)
REMARK    1  A    between atoms: C_1  and  N_2
REMARK    2  A    between atoms: C_6  and  C_7
REMARK    3  A    between atoms: C_7  and  C_8
REMARK    4  A    between atoms: C_8  and  N_9
REMARK    5  A    between atoms: N_12  and  C_13
REMARK    6  A    between atoms: C_13  and  C_14
REMARK    7  A    between atoms: C_14  and  N_15
REMARK    8  A    between atoms: N_15  and  C_16
REMARK    9  A    between atoms: C_21  and  C_22
REMARK                            x       y       z     vdW  Elec       q    Type
REMARK                         _______ _______ _______ _____ _____    ______ ____
ROOT
ATOM      1  N   UNL     1       1.477   0.145   4.428  0.00  0.00    -0.299 N 
ATOM      2  C   UNL     1       2.645   0.268   5.090  0.00  0.00    +0.300 C 
ATOM      3  O   UNL     1       3.692   0.012   4.529  0.00  0.00    -0.253 OA
ATOM      4  N   UNL     1       2.651   0.677   6.375  0.00  0.00    -0.298 N 
ATOM      5  H   UNL     1       0.642   0.350   4.875  0.00  0.00    +0.150 HD
ATOM      6  H   UNL     1       1.815   0.882   6.822  0.00  0.00    +0.150 HD
ENDROOT
BRANCH   1   7
ATOM      7  C   UNL     1       1.471  -0.299   3.032  0.00  0.00    +0.113 C 
BRANCH   7   8
ATOM      8  C   UNL     1       0.030  -0.354   2.521  0.00  0.00    +0.091 C 
BRANCH   8  14
ATOM      9  C   UNL     1      -0.018   1.461   0.010  0.00  0.00    +0.150 C 
ATOM     10  N   UNL     1       0.002  -0.004   0.002  0.00  0.00    -0.339 N 
ATOM     11  C   UNL     1       0.009  -0.810  -1.104  0.00  0.00    +0.104 A 
ATOM     12  C   UNL     1       0.029  -2.081  -0.660  0.00  0.00    +0.101 A 
ATOM     13  N   UNL     1       0.034  -2.052   0.681  0.00  0.00    -0.350 N 
ATOM     14  C   UNL     1       0.023  -0.811   1.085  0.00  0.00    +0.088 A 
ATOM     15  H   UNL     1       0.048  -2.831   1.260  0.00  0.00    +0.166 HD
ENDBRANCH   8  14
ENDBRANCH   7   8
ENDBRANCH   1   7
BRANCH   4  16
ATOM     16  C   UNL     1       3.919   0.811   7.095  0.00  0.00    +0.124 C 
BRANCH  16  17
ATOM     17  C   UNL     1       3.647   1.287   8.523  0.00  0.00    +0.120 C 
BRANCH  17  18
ATOM     18  N   UNL     1       4.916   1.421   9.243  0.00  0.00    -0.341 N 
ATOM     19  H   UNL     1       5.752   1.216   8.796  0.00  0.00    +0.146 HD
BRANCH  18  20
ATOM     20  C   UNL     1       4.922   1.843  10.568  0.00  0.00    +0.048 A 
ATOM     21  C   UNL     1       3.727   2.131  11.214  0.00  0.00    +0.024 A 
ATOM     22  C   UNL     1       3.734   2.549  12.530  0.00  0.00    +0.005 A 
ATOM     23  C   UNL     1       4.928   2.684  13.217  0.00  0.00    +0.040 A 
ATOM     24  C   UNL     1       6.127   2.402  12.594  0.00  0.00    +0.142 A 
ATOM     25  C   UNL     1       6.136   1.973  11.261  0.00  0.00    +0.108 A 
ATOM     26  F   UNL     1       7.290   2.537  13.269  0.00  0.00    -0.204 F 
BRANCH  25  27
ATOM     27  C   UNL     1       7.374   1.672  10.609  0.00  0.00    +0.104 C 
ATOM     28  N   UNL     1       8.357   1.434  10.091  0.00  0.00    -0.191 NA
ENDBRANCH  25  27
ENDBRANCH  18  20
ENDBRANCH  17  18
ENDBRANCH  16  17
ENDBRANCH   4  16
TORSDOF 8
