REMARK  Name = ZINC49189879
REMARK  8 active torsions:
REMARK  status: ('A' for Active; 'I' for Inactive)
REMARK    1  A    between atoms: C_1  and  C_2
REMARK    2  A    between atoms: C_2  and  C_4
REMARK    3  A    between atoms: C_2  and  N_10
REMARK    4  A    between atoms: C_4  and  N_5
REMARK    5  A    between atoms: N_10  and  C_11
REMARK    6  A    between atoms: C_11  and  C_12
REMARK    7  A    between atoms: C_11  and  C_13
REMARK    8  A    between atoms: C_11  and  C_20
REMARK                            x       y       z     vdW  Elec       q    Type
REMARK                         _______ _______ _______ _____ _____    ______ ____
ROOT
ATOM      1  N   UNL     1      -0.065   0.165  -1.400  0.00  0.00    +0.393 N 
ATOM      2  H   UNL     1       0.527   0.680  -2.034  0.00  0.00    -0.084 HD
ATOM      3  H   UNL     1       0.333  -0.747  -1.234  0.00  0.00    -0.084 HD
ENDROOT
BRANCH   1   5
ATOM      4  C   UNL     1      -1.109   2.087  -0.299  0.00  0.00    -0.016 C 
ATOM      5  C   UNL     1      -0.169   0.892  -0.127  0.00  0.00    -0.090 C 
BRANCH   5   6
ATOM      6  C   UNL     1       1.216   1.388   0.292  0.00  0.00    -0.095 C 
BRANCH   6   7
ATOM      7  N   UNL     1       2.111   0.239   0.483  0.00  0.00    +0.379 N 
ATOM      8  C   UNL     1       2.659  -0.207  -0.824  0.00  0.00    -0.079 C 
ATOM      9  C   UNL     1       3.941  -0.979  -0.425  0.00  0.00    -0.020 C 
ATOM     10  C   UNL     1       4.492  -0.149   0.757  0.00  0.00    -0.020 C 
ATOM     11  C   UNL     1       3.281   0.634   1.297  0.00  0.00    -0.079 C 
ATOM     12  H   UNL     1       1.615  -0.518   0.930  0.00  0.00    -0.082 HD
ENDBRANCH   6   7
ENDBRANCH   5   6
ENDBRANCH   1   5
BRANCH   1  13
ATOM     13  C   UNL     1      -1.402   0.016  -1.990  0.00  0.00    +0.060 C 
ATOM     14  C   UNL     1      -1.808   1.325  -2.670  0.00  0.00    +0.007 C 
BRANCH  13  15
ATOM     15  C   UNL     1      -1.380  -1.094  -3.009  0.00  0.00    -0.034 A 
ATOM     16  C   UNL     1      -1.703  -0.829  -4.327  0.00  0.00    +0.004 A 
ATOM     17  C   UNL     1      -1.683  -1.847  -5.261  0.00  0.00    +0.000 A 
ATOM     18  C   UNL     1      -1.339  -3.131  -4.879  0.00  0.00    +0.001 A 
ATOM     19  C   UNL     1      -1.016  -3.396  -3.562  0.00  0.00    +0.015 A 
ATOM     20  C   UNL     1      -1.031  -2.377  -2.627  0.00  0.00    +0.020 A 
ATOM     21 BR   UNL     1      -0.582  -2.739  -0.826  0.00  0.00    -0.050 Br
ENDBRANCH  13  15
BRANCH  13  22
ATOM     22  C   UNL     1      -2.395  -0.317  -0.906  0.00  0.00    +0.349 C 
ATOM     23  O   UNL     1      -2.025  -0.890   0.104  0.00  0.00    -0.248 OA
ATOM     24  O   UNL     1      -3.568  -0.012  -1.040  0.00  0.00    -0.248 OA
ENDBRANCH  13  22
ENDBRANCH   1  13
TORSDOF 6
