REMARK  Name = ZINC64979198
REMARK  7 active torsions:
REMARK  status: ('A' for Active; 'I' for Inactive)
REMARK    1  A    between atoms: C_1  and  N_2
REMARK    2  A    between atoms: N_2  and  C_3
REMARK    3  A    between atoms: N_2  and  C_4
REMARK    4  A    between atoms: C_7  and  N_10
REMARK    5  A    between atoms: C_12  and  C_23
REMARK    6  A    between atoms: C_23  and  O_25
REMARK    7  A    between atoms: O_25  and  C_26
REMARK                            x       y       z     vdW  Elec       q    Type
REMARK                         _______ _______ _______ _____ _____    ______ ____
ROOT
ATOM      1  N   UNL     1      -4.782  -2.854   0.032  0.00  0.00    -0.272 N 
ATOM      2  C   UNL     1      -4.689  -4.197  -0.070  0.00  0.00    +0.115 C 
ATOM      3  C   UNL     1      -5.654  -5.055   0.317  0.00  0.00    +0.191 C 
ATOM      4  S   UNL     1      -7.155  -4.404   0.987  0.00  0.00    +0.035 S 
ATOM      5  O   UNL     1      -8.223  -4.993   0.257  0.00  0.00    -0.164 OA
ATOM      6  O   UNL     1      -7.050  -4.496   2.401  0.00  0.00    -0.164 OA
ATOM      7  C   UNL     1      -7.140  -2.686   0.580  0.00  0.00    +0.116 A 
ATOM      8  C   UNL     1      -5.951  -2.111   0.150  0.00  0.00    +0.066 A 
ATOM      9  C   UNL     1      -5.937  -0.757  -0.173  0.00  0.00    +0.064 A 
ATOM     10  C   UNL     1      -7.090  -0.004  -0.057  0.00  0.00    +0.125 A 
ATOM     11  C   UNL     1      -8.266  -0.590   0.382  0.00  0.00    +0.040 A 
ATOM     12  C   UNL     1      -8.288  -1.933   0.692  0.00  0.00    +0.032 A 
ATOM     13  F   UNL     1      -7.070   1.310  -0.372  0.00  0.00    -0.205 F 
ENDROOT
BRANCH   1  17
ATOM     14  C   UNL     1      -1.200  -0.720   0.010  0.00  0.00    +0.029 A 
ATOM     15  C   UNL     1      -1.792  -1.095  -1.189  0.00  0.00    +0.025 A 
ATOM     16  C   UNL     1      -2.978  -1.801  -1.182  0.00  0.00    +0.025 A 
ATOM     17  C   UNL     1      -3.579  -2.137   0.025  0.00  0.00    +0.038 A 
ATOM     18  C   UNL     1      -2.986  -1.762   1.224  0.00  0.00    +0.025 A 
ATOM     19  C   UNL     1      -1.797  -1.061   1.216  0.00  0.00    +0.025 A 
BRANCH  14  21
ATOM     20  C   UNL     1       0.630   0.386   1.267  0.00  0.00    +0.129 C 
ATOM     21  N   UNL     1       0.002  -0.004   0.002  0.00  0.00    -0.336 N 
ATOM     22  C   UNL     1       0.632   0.356  -1.271  0.00  0.00    +0.129 C 
ENDBRANCH  14  21
ENDBRANCH   1  17
BRANCH   3  23
ATOM     23  C   UNL     1      -5.469  -6.449   0.189  0.00  0.00    +0.359 C 
ATOM     24  O   UNL     1      -6.348  -7.214   0.542  0.00  0.00    -0.243 OA
BRANCH  23  25
ATOM     25  O   UNL     1      -4.319  -6.933  -0.325  0.00  0.00    -0.464 OA
ATOM     26  C   UNL     1      -4.200  -8.353  -0.425  0.00  0.00    +0.280 C 
ENDBRANCH  23  25
ENDBRANCH   3  23
TORSDOF 4
