REMARK  Name = ZINC67311090
REMARK  11 active torsions:
REMARK  status: ('A' for Active; 'I' for Inactive)
REMARK    1  A    between atoms: C_1  and  C_2
REMARK    2  A    between atoms: C_5  and  N_11
REMARK    3  A    between atoms: C_7  and  C_8
REMARK    4  A    between atoms: N_14  and  C_15
REMARK    5  A    between atoms: N_14  and  C_23
REMARK    6  A    between atoms: C_15  and  C_16
REMARK    7  A    between atoms: C_16  and  C_17
REMARK    8  A    between atoms: C_23  and  C_24
REMARK    9  A    between atoms: C_24  and  N_25
REMARK   10  A    between atoms: N_25  and  C_26
REMARK   11  A    between atoms: N_25  and  C_27
REMARK                            x       y       z     vdW  Elec       q    Type
REMARK                         _______ _______ _______ _____ _____    ______ ____
ROOT
ATOM      1  N   UNL     1       0.146  -4.331   0.193  0.00  0.00    -0.269 N 
ATOM      2  C   UNL     1       0.211  -5.126  -0.893  0.00  0.00    +0.306 C 
ATOM      3  O   UNL     1       0.135  -4.643  -2.006  0.00  0.00    -0.252 OA
ATOM      4  N   UNL     1       0.360  -6.457  -0.745  0.00  0.00    -0.287 N 
ATOM      5  H   UNL     1       0.132  -4.722   1.081  0.00  0.00    +0.156 HD
ENDROOT
BRANCH   1  10
ATOM      6  C   UNL     1      -0.023   1.319  -0.404  0.00  0.00    +0.044 C 
ATOM      7  C   UNL     1       0.020  -0.180  -0.248  0.00  0.00    -0.038 A 
ATOM      8  C   UNL     1       0.696  -0.744   0.815  0.00  0.00    +0.006 A 
ATOM      9  C   UNL     1       0.738  -2.118   0.962  0.00  0.00    +0.023 A 
ATOM     10  C   UNL     1       0.100  -2.940   0.040  0.00  0.00    +0.036 A 
ATOM     11  C   UNL     1      -0.582  -2.383  -1.030  0.00  0.00    +0.036 A 
ATOM     12  C   UNL     1      -0.629  -0.996  -1.175  0.00  0.00    +0.041 A 
BRANCH  12  13
ATOM     13  C   UNL     1      -1.359  -0.394  -2.311  0.00  0.00    +0.242 C 
ATOM     14  O   UNL     1      -1.346   0.811  -2.472  0.00  0.00    -0.270 OA
ATOM     15  N   UNL     1      -2.039  -1.181  -3.169  0.00  0.00    -0.325 N 
ATOM     16  H   UNL     1      -2.050  -2.142  -3.041  0.00  0.00    +0.145 HD
ATOM     17  H   UNL     1      -2.518  -0.785  -3.914  0.00  0.00    +0.145 HD
ENDBRANCH  12  13
ENDBRANCH   1  10
BRANCH   4  18
ATOM     18  C   UNL     1       0.431  -7.322  -1.925  0.00  0.00    +0.114 C 
BRANCH  18  19
ATOM     19  C   UNL     1       1.889  -7.466  -2.366  0.00  0.00    +0.054 C 
BRANCH  19  20
ATOM     20  C   UNL     1       1.962  -8.355  -3.580  0.00  0.00    -0.046 A 
ATOM     21  C   UNL     1       2.109  -9.721  -3.429  0.00  0.00    +0.004 A 
ATOM     22  C   UNL     1       2.176 -10.537  -4.542  0.00  0.00    +0.000 A 
ATOM     23  C   UNL     1       2.094  -9.987  -5.808  0.00  0.00    +0.000 A 
ATOM     24  C   UNL     1       1.946  -8.621  -5.960  0.00  0.00    +0.000 A 
ATOM     25  C   UNL     1       1.875  -7.806  -4.846  0.00  0.00    +0.004 A 
ENDBRANCH  19  20
ENDBRANCH  18  19
ENDBRANCH   4  18
BRANCH   4  26
ATOM     26  C   UNL     1       0.452  -7.040   0.596  0.00  0.00    +0.091 C 
BRANCH  26  27
ATOM     27  C   UNL     1      -0.949  -7.400   1.093  0.00  0.00    -0.060 C 
BRANCH  27  28
ATOM     28  N   UNL     1      -0.857  -7.984   2.438  0.00  0.00    +0.377 N 
ATOM     29  C   UNL     1      -0.360  -6.971   3.378  0.00  0.00    -0.097 C 
ATOM     30  C   UNL     1      -2.187  -8.439   2.866  0.00  0.00    -0.097 C 
ATOM     31  H   UNL     1      -0.222  -8.768   2.421  0.00  0.00    -0.083 HD
ENDBRANCH  27  28
ENDBRANCH  26  27
ENDBRANCH   4  26
TORSDOF 8
