REMARK  Name = ZINC42438559
REMARK  4 active torsions:
REMARK  status: ('A' for Active; 'I' for Inactive)
REMARK    1  A    between atoms: C_1  and  C_2
REMARK    2  A    between atoms: C_6  and  C_19
REMARK    3  A    between atoms: N_9  and  C_10
REMARK    4  A    between atoms: C_16  and  O_18
REMARK                            x       y       z     vdW  Elec       q    Type
REMARK                         _______ _______ _______ _____ _____    ______ ____
ROOT
ATOM      1  C   UNL     1      -0.067   1.732   0.589  0.00  0.00    -0.013 C 
ATOM      2  C   UNL     1      -0.088   0.245   0.229  0.00  0.00    -0.071 C 
ATOM      3  C   UNL     1      -1.512  -0.296   0.380  0.00  0.00    -0.015 C 
ATOM      4  C   UNL     1      -1.528  -1.784   0.019  0.00  0.00    +0.009 C 
ATOM      5  C   UNL     1      -0.527  -2.526   0.909  0.00  0.00    +0.058 C 
ATOM      6  C   UNL     1       0.860  -1.903   0.738  0.00  0.00    -0.065 C 
ATOM      7  N   UNL     1       0.815  -0.488   1.125  0.00  0.00    +0.385 N 
ATOM      8  H   UNL     1       0.481  -0.410   2.074  0.00  0.00    -0.081 HD
ENDROOT
BRANCH   7   9
ATOM      9  C   UNL     1       2.164   0.086   1.034  0.00  0.00    -0.039 C 
ATOM     10  C   UNL     1       2.763  -0.235  -0.337  0.00  0.00    -0.013 C 
ATOM     11  C   UNL     1       4.168   0.362  -0.432  0.00  0.00    -0.001 C 
ATOM     12  C   UNL     1       5.052  -0.237   0.664  0.00  0.00    +0.002 C 
ATOM     13  C   UNL     1       4.453   0.084   2.035  0.00  0.00    +0.030 C 
ATOM     14  C   UNL     1       3.048  -0.513   2.130  0.00  0.00    +0.101 C 
BRANCH  14  15
ATOM     15  O   UNL     1       3.120  -1.931   1.962  0.00  0.00    -0.393 OA
ATOM     16  H   UNL     1       3.665  -2.378   2.623  0.00  0.00    +0.210 HD
ENDBRANCH  14  15
ENDBRANCH   7   9
BRANCH   5  17
ATOM     17  C   UNL     1      -0.480  -3.979   0.510  0.00  0.00    +0.212 C 
ATOM     18  O   UNL     1       0.562  -4.470   0.130  0.00  0.00    -0.276 OA
ATOM     19  N   UNL     1      -1.595  -4.733   0.576  0.00  0.00    -0.329 N 
ATOM     20  H   UNL     1      -2.429  -4.340   0.881  0.00  0.00    +0.145 HD
ATOM     21  H   UNL     1      -1.565  -5.668   0.320  0.00  0.00    +0.145 HD
ENDBRANCH   5  17
TORSDOF 3
