REMARK  Name = ZINC10228396
REMARK  12 active torsions:
REMARK  status: ('A' for Active; 'I' for Inactive)
REMARK    1  A    between atoms: C_1  and  C_2
REMARK    2  A    between atoms: C_2  and  C_3
REMARK    3  A    between atoms: C_3  and  C_4
REMARK    4  A    between atoms: C_4  and  N_5
REMARK    5  A    between atoms: C_6  and  N_36
REMARK    6  A    between atoms: C_7  and  N_14
REMARK    7  A    between atoms: N_14  and  C_15
REMARK    8  A    between atoms: C_20  and  C_22
REMARK    9  A    between atoms: C_22  and  N_72
REMARK   10  A    between atoms: C_26  and  C_28
REMARK   11  A    between atoms: C_32  and  O_34
REMARK   12  A    between atoms: O_34  and  C_35
REMARK                            x       y       z     vdW  Elec       q    Type
REMARK                         _______ _______ _______ _____ _____    ______ ____
ROOT
ATOM      1  N   UNL     1       2.415   1.418  -0.028  0.00  0.00    -0.263 N 
ATOM      2  C   UNL     1       2.622   0.087  -0.108  0.00  0.00    +0.204 C 
ATOM      3  O   UNL     1       3.745  -0.360  -0.003  0.00  0.00    -0.277 OA
ENDROOT
BRANCH   1   6
ATOM      4  N   UNL     1      -1.033   2.171   0.995  0.00  0.00    -0.280 N 
ATOM      5  C   UNL     1       0.245   1.663   1.024  0.00  0.00    +0.127 A 
ATOM      6  C   UNL     1       1.100   1.929  -0.026  0.00  0.00    +0.140 A 
ATOM      7  C   UNL     1       0.637   2.720  -1.095  0.00  0.00    +0.277 A 
ATOM      8  O   UNL     1       1.371   2.970  -2.036  0.00  0.00    -0.266 OA
ATOM      9  N   UNL     1      -0.622   3.197  -1.071  0.00  0.00    -0.273 N 
ATOM     10  H   UNL     1      -0.952   3.759  -1.830  0.00  0.00    +0.173 HD
ATOM     11  C   UNL     1      -1.441   2.927  -0.040  0.00  0.00    +0.331 A 
ATOM     12  O   UNL     1      -2.573   3.372  -0.044  0.00  0.00    -0.246 OA
BRANCH   5  13
ATOM     13  N   UNL     1       0.664   0.895   2.084  0.00  0.00    -0.343 N 
ATOM     14  H   UNL     1       1.539   0.476   2.064  0.00  0.00    +0.144 HD
ATOM     15  H   UNL     1       0.085   0.770   2.852  0.00  0.00    +0.144 HD
ENDBRANCH   5  13
BRANCH   4  16
ATOM     16  C   UNL     1      -1.953   1.890   2.100  0.00  0.00    +0.128 C 
BRANCH  16  17
ATOM     17  C   UNL     1      -1.817   2.980   3.166  0.00  0.00    +0.021 C 
BRANCH  17  19
ATOM     18  C   UNL     1      -2.643   3.776   5.385  0.00  0.00    +0.004 C 
ATOM     19  C   UNL     1      -2.778   2.687   4.320  0.00  0.00    -0.002 C 
ENDBRANCH  17  19
ENDBRANCH  16  17
ENDBRANCH   4  16
ENDBRANCH   1   6
BRANCH   1  20
ATOM     20  C   UNL     1       3.556   2.333   0.057  0.00  0.00    +0.082 C 
ATOM     21  C   UNL     1       4.543   2.055  -1.096  0.00  0.00    +0.023 C 
ATOM     22  C   UNL     1       5.940   2.264  -0.460  0.00  0.00    +0.002 C 
ATOM     23  C   UNL     1       5.759   1.675   0.962  0.00  0.00    +0.002 C 
ATOM     24  C   UNL     1       4.330   2.092   1.365  0.00  0.00    +0.023 C 
ENDBRANCH   1  20
BRANCH   2  25
ATOM     25  C   UNL     1       1.458  -0.844  -0.328  0.00  0.00    +0.020 C 
BRANCH  25  30
ATOM     26  C   UNL     1       2.303  -2.598   1.119  0.00  0.00    -0.077 C 
ATOM     27  C   UNL     1       1.463  -3.829   1.516  0.00  0.00    -0.020 C 
ATOM     28  C   UNL     1       1.069  -4.440   0.145  0.00  0.00    -0.013 C 
ATOM     29  C   UNL     1       0.874  -3.170  -0.719  0.00  0.00    -0.037 C 
ATOM     30  N   UNL     1       1.936  -2.250  -0.263  0.00  0.00    +0.390 N 
ATOM     31  H   UNL     1       2.758  -2.353  -0.869  0.00  0.00    -0.080 HD
BRANCH  29  32
ATOM     32  C   UNL     1       1.064  -3.494  -2.178  0.00  0.00    -0.057 A 
ATOM     33  C   UNL     1       2.336  -3.694  -2.682  0.00  0.00    +0.002 A 
ATOM     34  C   UNL     1       2.513  -3.993  -4.020  0.00  0.00    +0.004 A 
ATOM     35  C   UNL     1       1.419  -4.091  -4.858  0.00  0.00    +0.045 A 
ATOM     36  C   UNL     1       0.142  -3.890  -4.355  0.00  0.00    +0.120 A 
ATOM     37  C   UNL     1      -0.034  -3.596  -3.011  0.00  0.00    +0.047 A 
BRANCH  36  38
ATOM     38  O   UNL     1      -0.936  -3.986  -5.177  0.00  0.00    -0.495 OA
ATOM     39  C   UNL     1      -0.681  -4.297  -6.548  0.00  0.00    +0.277 C 
ENDBRANCH  36  38
ENDBRANCH  29  32
ENDBRANCH  25  30
ENDBRANCH   2  25
TORSDOF 10
