REMARK  Name = ZINC58436566
REMARK  9 active torsions:
REMARK  status: ('A' for Active; 'I' for Inactive)
REMARK    1  A    between atoms: C_1  and  C_2
REMARK    2  A    between atoms: C_2  and  C_4
REMARK    3  A    between atoms: C_2  and  N_14
REMARK    4  A    between atoms: C_8  and  S_10
REMARK    5  A    between atoms: S_10  and  N_13
REMARK    6  A    between atoms: N_17  and  C_18
REMARK    7  A    between atoms: C_18  and  C_19
REMARK    8  A    between atoms: C_19  and  C_21
REMARK    9  A    between atoms: C_19  and  N_26
REMARK                            x       y       z     vdW  Elec       q    Type
REMARK                         _______ _______ _______ _____ _____    ______ ____
ROOT
ATOM      1  N   UNL     1       0.768  -0.468  -1.203  0.00  0.00    -0.293 N 
ATOM      2  C   UNL     1       0.094  -0.499  -2.369  0.00  0.00    +0.300 C 
ATOM      3  O   UNL     1      -1.040  -0.066  -2.428  0.00  0.00    -0.253 OA
ATOM      4  N   UNL     1       0.677  -1.011  -3.471  0.00  0.00    -0.301 N 
ATOM      5  H   UNL     1       1.673  -0.814  -1.156  0.00  0.00    +0.151 HD
ATOM      6  H   UNL     1       1.583  -1.357  -3.424  0.00  0.00    +0.150 HD
ENDROOT
BRANCH   1   8
ATOM      7  C   UNL     1       0.323   1.607   0.014  0.00  0.00    +0.033 C 
ATOM      8  C   UNL     1       0.134   0.088  -0.005  0.00  0.00    +0.102 C 
BRANCH   8   9
ATOM      9  C   UNL     1       0.766  -0.512   1.224  0.00  0.00    -0.026 A 
ATOM     10  C   UNL     1       2.134  -0.713   1.269  0.00  0.00    +0.005 A 
ATOM     11  C   UNL     1       2.714  -1.263   2.396  0.00  0.00    +0.002 A 
ATOM     12  C   UNL     1       1.928  -1.613   3.478  0.00  0.00    +0.028 A 
ATOM     13  C   UNL     1       0.561  -1.412   3.433  0.00  0.00    +0.105 A 
ATOM     14  C   UNL     1      -0.019  -0.857   2.307  0.00  0.00    +0.034 A 
BRANCH  13  15
ATOM     15  S   UNL     1      -0.441  -1.859   4.811  0.00  0.00    +0.056 S 
ATOM     16  O   UNL     1      -1.752  -2.074   4.308  0.00  0.00    -0.153 OA
ATOM     17  O   UNL     1       0.274  -2.857   5.527  0.00  0.00    -0.153 OA
BRANCH  15  18
ATOM     18  N   UNL     1      -0.527  -0.536   5.804  0.00  0.00    -0.204 NA
ATOM     19  H   UNL     1      -0.065   0.282   5.562  0.00  0.00    +0.144 HD
ATOM     20  H   UNL     1      -1.039  -0.579   6.627  0.00  0.00    +0.144 HD
ENDBRANCH  15  18
ENDBRANCH  13  15
ENDBRANCH   8   9
ENDBRANCH   1   8
BRANCH   4  21
ATOM     21  C   UNL     1      -0.055  -1.045  -4.739  0.00  0.00    +0.095 C 
BRANCH  21  22
ATOM     22  C   UNL     1       0.863  -1.571  -5.845  0.00  0.00    -0.013 C 
BRANCH  22  23
ATOM     23  N   UNL     1       0.173  -1.482  -7.138  0.00  0.00    +0.386 N 
ATOM     24  C   UNL     1      -0.126  -0.063  -7.462  0.00  0.00    -0.078 C 
ATOM     25  C   UNL     1      -0.303  -0.081  -9.002  0.00  0.00    -0.020 C 
ATOM     26  C   UNL     1       0.767  -1.097  -9.461  0.00  0.00    -0.020 C 
ATOM     27  C   UNL     1       1.056  -1.965  -8.222  0.00  0.00    -0.078 C 
ATOM     28  H   UNL     1      -0.679  -2.022  -7.117  0.00  0.00    -0.081 HD
ENDBRANCH  22  23
BRANCH  22  29
ATOM     29  C   UNL     1       1.216  -3.009  -5.562  0.00  0.00    -0.022 A 
ATOM     30  C   UNL     1       2.344  -3.518  -5.009  0.00  0.00    +0.009 A 
ATOM     31  C   UNL     1       2.451  -4.886  -4.843  0.00  0.00    +0.008 A 
ATOM     32  C   UNL     1       1.425  -5.678  -5.239  0.00  0.00    +0.045 A 
ATOM     33  S   UNL     1       0.255  -4.483  -5.863  0.00  0.00    -0.103 S 
ENDBRANCH  22  29
ENDBRANCH  21  22
ENDBRANCH   4  21
TORSDOF 8
