REMARK  Name = ZINC16269263
REMARK  7 active torsions:
REMARK  status: ('A' for Active; 'I' for Inactive)
REMARK    1  A    between atoms: C_1  and  C_2
REMARK    2  A    between atoms: C_4  and  C_26
REMARK    3  A    between atoms: C_6  and  O_8
REMARK    4  A    between atoms: O_8  and  C_9
REMARK    5  A    between atoms: C_9  and  C_11
REMARK    6  A    between atoms: C_9  and  C_12
REMARK    7  A    between atoms: N_14  and  N_15
REMARK                            x       y       z     vdW  Elec       q    Type
REMARK                         _______ _______ _______ _____ _____    ______ ____
ROOT
ATOM      1  C   UNL     1      -0.437  -2.785   4.706  0.00  0.00    +0.273 C 
ATOM      2  O   UNL     1      -0.823  -3.922   4.533  0.00  0.00    -0.270 OA
ATOM      3  N   UNL     1      -0.540  -2.216   5.924  0.00  0.00    -0.202 N 
ATOM      4  H   UNL     1      -0.231  -1.307   6.062  0.00  0.00    +0.177 HD
ENDROOT
BRANCH   3   5
ATOM      5  N   UNL     1      -1.092  -2.938   6.990  0.00  0.00    -0.162 NA
ATOM      6  C   UNL     1      -1.192  -2.385   8.174  0.00  0.00    +0.158 C 
ATOM      7  C   UNL     1      -1.744  -3.022   9.387  0.00  0.00    +0.029 A 
ATOM      8  C   UNL     1      -2.285  -4.267   9.676  0.00  0.00    +0.012 A 
ATOM      9  C   UNL     1      -2.720  -4.543  10.958  0.00  0.00    +0.001 A 
ATOM     10  C   UNL     1      -2.622  -3.586  11.957  0.00  0.00    +0.001 A 
ATOM     11  C   UNL     1      -2.087  -2.342  11.687  0.00  0.00    +0.012 A 
ATOM     12  C   UNL     1      -1.643  -2.046  10.402  0.00  0.00    +0.023 A 
ATOM     13  C   UNL     1      -1.038  -0.866   9.768  0.00  0.00    +0.103 C 
ATOM     14  N   UNL     1      -0.800  -1.125   8.505  0.00  0.00    -0.326 N 
ATOM     15  N   UNL     1      -0.757   0.327  10.405  0.00  0.00    -0.344 N 
ATOM     16  H   UNL     1      -0.962   0.433  11.347  0.00  0.00    +0.144 HD
ATOM     17  H   UNL     1      -0.356   1.058   9.910  0.00  0.00    +0.144 HD
ATOM     18  H   UNL     1      -0.399  -0.497   7.884  0.00  0.00    +0.169 HD
ENDBRANCH   3   5
BRANCH   1  19
ATOM     19  C   UNL     1       0.157  -2.008   3.560  0.00  0.00    +0.257 C 
ATOM     20  C   UNL     1       1.631  -1.717   3.850  0.00  0.00    +0.062 C 
BRANCH  19  21
ATOM     21  O   UNL     1       0.051  -2.775   2.359  0.00  0.00    -0.480 OA
BRANCH  21  27
ATOM     22  C   UNL     1      -0.422  -2.783  -2.499  0.00  0.00    +0.044 C 
ATOM     23  C   UNL     1      -0.189  -2.057  -1.200  0.00  0.00    -0.047 A 
ATOM     24  C   UNL     1       0.012  -0.689  -1.200  0.00  0.00    +0.007 A 
ATOM     25  C   UNL     1       0.226  -0.019  -0.009  0.00  0.00    -0.047 A 
ATOM     26  C   UNL     1       0.240  -0.715   1.184  0.00  0.00    +0.049 A 
ATOM     27  C   UNL     1       0.038  -2.088   1.187  0.00  0.00    +0.122 A 
ATOM     28  C   UNL     1      -0.182  -2.757  -0.009  0.00  0.00    +0.049 A 
ATOM     29  C   UNL     1       0.445   1.472  -0.013  0.00  0.00    +0.044 C 
ENDBRANCH  21  27
ENDBRANCH  19  21
ENDBRANCH   1  19
TORSDOF 4
