REMARK  Name = ZINC04299453
REMARK  6 active torsions:
REMARK  status: ('A' for Active; 'I' for Inactive)
REMARK    1  A    between atoms: C_3  and  N_9
REMARK    2  A    between atoms: N_12  and  C_13
REMARK    3  A    between atoms: C_13  and  C_14
REMARK    4  A    between atoms: C_14  and  N_15
REMARK    5  A    between atoms: N_15  and  C_16
REMARK    6  A    between atoms: C_19  and  C_21
REMARK                            x       y       z     vdW  Elec       q    Type
REMARK                         _______ _______ _______ _____ _____    ______ ____
ROOT
ATOM      1  C   UNL     1      -3.062   3.925   6.881  0.00  0.00    +0.124 C 
ENDROOT
BRANCH   1   5
ATOM      2  N   UNL     1      -2.377   4.889  10.362  0.00  0.00    -0.268 N 
ATOM      3  C   UNL     1      -3.030   4.640   9.210  0.00  0.00    +0.304 C 
ATOM      4  O   UNL     1      -4.231   4.815   9.142  0.00  0.00    -0.253 OA
ATOM      5  N   UNL     1      -2.352   4.196   8.133  0.00  0.00    -0.298 N 
ATOM      6  H   UNL     1      -1.431   4.688  10.437  0.00  0.00    +0.156 HD
ATOM      7  H   UNL     1      -1.393   4.056   8.187  0.00  0.00    +0.150 HD
BRANCH   2  10
ATOM      8  C   UNL     1      -5.064   5.638  12.760  0.00  0.00    +0.003 A 
ATOM      9  C   UNL     1      -4.388   5.095  11.684  0.00  0.00    +0.025 A 
ATOM     10  C   UNL     1      -3.063   5.438  11.452  0.00  0.00    +0.055 A 
ATOM     11  C   UNL     1      -2.418   6.324  12.307  0.00  0.00    +0.080 A 
ATOM     12  C   UNL     1      -3.102   6.869  13.379  0.00  0.00    +0.061 A 
ATOM     13  C   UNL     1      -4.422   6.523  13.606  0.00  0.00    +0.021 A 
ATOM     14 CL   UNL     1      -2.300   7.981  14.443  0.00  0.00    -0.082 Cl
ATOM     15 CL   UNL     1      -0.759   6.751  12.025  0.00  0.00    -0.080 Cl
ENDBRANCH   2  10
ENDBRANCH   1   5
BRANCH   1  16
ATOM     16  C   UNL     1      -2.067   3.437   5.826  0.00  0.00    +0.121 C 
BRANCH  16  17
ATOM     17  N   UNL     1      -2.778   3.166   4.574  0.00  0.00    -0.329 N 
ATOM     18  H   UNL     1      -3.736   3.306   4.519  0.00  0.00    +0.147 HD
BRANCH  17  19
ATOM     19  C   UNL     1      -2.078   2.709   3.463  0.00  0.00    +0.096 A 
ATOM     20  C   UNL     1      -0.704   2.510   3.547  0.00  0.00    +0.042 A 
ATOM     21  C   UNL     1      -0.020   2.055   2.434  0.00  0.00    +0.017 A 
ATOM     22  C   UNL     1      -0.737   1.812   1.270  0.00  0.00    +0.071 A 
ATOM     23  C   UNL     1      -2.099   2.036   1.255  0.00  0.00    +0.096 A 
ATOM     24  N   UNL     1      -2.804   2.478   2.331  0.00  0.00    -0.349 N 
ATOM     25  H   UNL     1      -3.819   2.628   2.293  0.00  0.00    +0.167 HD
BRANCH  22  26
ATOM     26  C   UNL     1      -0.034   1.315   0.033  0.00  0.00    +0.419 C 
ATOM     27  F   UNL     1      -0.020  -0.084   0.035  0.00  0.00    -0.166 F 
ATOM     28  F   UNL     1       1.280   1.794   0.019  0.00  0.00    -0.166 F 
ATOM     29  F   UNL     1      -0.709   1.773  -1.103  0.00  0.00    -0.166 F 
ENDBRANCH  22  26
ENDBRANCH  17  19
ENDBRANCH  16  17
ENDBRANCH   1  16
TORSDOF 6
