REMARK  Name = ZINC23667566
REMARK  12 active torsions:
REMARK  status: ('A' for Active; 'I' for Inactive)
REMARK    1  A    between atoms: C_1  and  C_2
REMARK    2  A    between atoms: C_2  and  N_3
REMARK    3  A    between atoms: N_3  and  C_4
REMARK    4  A    between atoms: C_5  and  N_20
REMARK    5  A    between atoms: N_6  and  C_13
REMARK    6  A    between atoms: C_13  and  C_14
REMARK    7  A    between atoms: C_21  and  C_23
REMARK    8  A    between atoms: C_23  and  N_24
REMARK    9  A    between atoms: N_24  and  C_25
REMARK   10  A    between atoms: N_24  and  C_26
REMARK   11  A    between atoms: C_26  and  C_28
REMARK   12  A    between atoms: C_26  and  C_29
REMARK                            x       y       z     vdW  Elec       q    Type
REMARK                         _______ _______ _______ _____ _____    ______ ____
ROOT
ATOM      1  N   UNL     1       4.650   7.739  -2.398  0.00  0.00    -0.266 N 
ATOM      2  C   UNL     1       3.481   7.286  -1.900  0.00  0.00    +0.203 C 
ATOM      3  O   UNL     1       2.432   7.748  -2.297  0.00  0.00    -0.277 OA
ENDROOT
BRANCH   1   4
ATOM      4  C   UNL     1       4.652   8.683  -3.447  0.00  0.00    +0.140 A 
ATOM      5  C   UNL     1       4.115   8.365  -4.678  0.00  0.00    +0.128 A 
ATOM      6  N   UNL     1       4.127   9.308  -5.679  0.00  0.00    -0.276 N 
ATOM      7  C   UNL     1       4.664  10.523  -5.464  0.00  0.00    +0.331 A 
ATOM      8  O   UNL     1       4.669  11.341  -6.364  0.00  0.00    -0.246 OA
ATOM      9  N   UNL     1       5.196  10.849  -4.273  0.00  0.00    -0.273 N 
ATOM     10  H   UNL     1       5.629  11.848  -4.119  0.00  0.00    +0.173 HD
ATOM     11  C   UNL     1       5.205   9.963  -3.257  0.00  0.00    +0.277 A 
ATOM     12  O   UNL     1       5.689  10.269  -2.180  0.00  0.00    -0.266 OA
BRANCH   5  13
ATOM     13  N   UNL     1       3.572   7.122  -4.899  0.00  0.00    -0.343 N 
ATOM     14  H   UNL     1       3.146   6.876  -5.883  0.00  0.00    +0.144 HD
ATOM     15  H   UNL     1       3.562   6.375  -4.093  0.00  0.00    +0.144 HD
ENDBRANCH   5  13
BRANCH   6  16
ATOM     16  C   UNL     1       3.557   8.986  -6.990  0.00  0.00    +0.163 C 
BRANCH  16  17
ATOM     17  C   UNL     1       4.626   8.393  -7.871  0.00  0.00    -0.028 A 
ATOM     18  C   UNL     1       5.396   9.215  -8.672  0.00  0.00    +0.005 A 
ATOM     19  C   UNL     1       6.380   8.672  -9.477  0.00  0.00    +0.000 A 
ATOM     20  C   UNL     1       6.587   7.306  -9.488  0.00  0.00    +0.000 A 
ATOM     21  C   UNL     1       5.814   6.482  -8.691  0.00  0.00    +0.000 A 
ATOM     22  C   UNL     1       4.833   7.026  -7.883  0.00  0.00    +0.005 A 
ENDBRANCH  16  17
ENDBRANCH   6  16
ENDBRANCH   1   4
BRANCH   1  24
ATOM     23  C   UNL     1       6.417   6.073  -2.690  0.00  0.00    +0.025 C 
ATOM     24  C   UNL     1       5.918   7.251  -1.850  0.00  0.00    +0.110 C 
ENDBRANCH   1  24
BRANCH   2  25
ATOM     25  C   UNL     1       3.478   6.205  -0.849  0.00  0.00    +0.020 C 
BRANCH  25  26
ATOM     26  N   UNL     1       2.093   5.890  -0.475  0.00  0.00    +0.388 N 
ATOM     27  C   UNL     1       1.457   7.032   0.196  0.00  0.00    -0.095 C 
ATOM     28  H   UNL     1       1.532   5.685  -1.398  0.00  0.00    -0.081 HD
BRANCH  26  29
ATOM     29  C   UNL     1       2.036   4.687   0.365  0.00  0.00    -0.040 C 
ATOM     30  C   UNL     1       0.575   4.346   0.669  0.00  0.00    -0.008 C 
BRANCH  29  31
ATOM     31  C   UNL     1       2.679   3.535  -0.363  0.00  0.00    -0.058 A 
ATOM     32  C   UNL     1       2.348   3.279  -1.680  0.00  0.00    +0.005 A 
ATOM     33  C   UNL     1       2.937   2.223  -2.350  0.00  0.00    +0.041 A 
ATOM     34  C   UNL     1       3.864   1.424  -1.704  0.00  0.00    +0.158 A 
ATOM     35  C   UNL     1       4.192   1.677  -0.381  0.00  0.00    +0.159 A 
ATOM     36  C   UNL     1       3.600   2.735   0.288  0.00  0.00    +0.043 A 
ATOM     37  F   UNL     1       5.092   0.895   0.254  0.00  0.00    -0.202 F 
ATOM     38  F   UNL     1       4.445   0.396  -2.360  0.00  0.00    -0.202 F 
ENDBRANCH  29  31
ENDBRANCH  26  29
ENDBRANCH  25  26
ENDBRANCH   2  25
TORSDOF 9
