REMARK  Name = ZINC49163116
REMARK  7 active torsions:
REMARK  status: ('A' for Active; 'I' for Inactive)
REMARK    1  A    between atoms: C_1  and  C_2
REMARK    2  A    between atoms: C_2  and  C_3
REMARK    3  A    between atoms: C_2  and  C_4
REMARK    4  A    between atoms: C_4  and  N_5
REMARK    5  A    between atoms: N_8  and  N_9
REMARK    6  A    between atoms: C_10  and  C_12
REMARK    7  A    between atoms: C_12  and  N_13
REMARK                            x       y       z     vdW  Elec       q    Type
REMARK                         _______ _______ _______ _____ _____    ______ ____
ROOT
ATOM      1  N   UNL     1      -3.316   0.589  -3.555  0.00  0.00    -0.235 N 
ATOM      2  C   UNL     1      -3.934   0.943  -4.699  0.00  0.00    +0.213 C 
ATOM      3  O   UNL     1      -5.087   0.620  -4.891  0.00  0.00    -0.276 OA
ATOM      4  H   UNL     1      -2.394   0.848  -3.402  0.00  0.00    +0.173 HD
ENDROOT
BRANCH   1   8
ATOM      5  N   UNL     1      -2.105  -0.148  -1.230  0.00  0.00    -0.298 N 
ATOM      6  C   UNL     1      -3.387  -0.508  -1.443  0.00  0.00    +0.316 C 
ATOM      7  O   UNL     1      -3.985  -1.153  -0.604  0.00  0.00    -0.251 OA
ATOM      8  N   UNL     1      -4.005  -0.154  -2.587  0.00  0.00    -0.218 N 
ATOM      9  H   UNL     1      -1.628   0.366  -1.901  0.00  0.00    +0.150 HD
ATOM     10  H   UNL     1      -4.927  -0.413  -2.741  0.00  0.00    +0.174 HD
BRANCH   5  11
ATOM     11  C   UNL     1      -1.433  -0.534   0.013  0.00  0.00    +0.108 C 
BRANCH  11  13
ATOM     12  C   UNL     1      -0.019   1.526   0.010  0.00  0.00    +0.009 C 
ATOM     13  C   UNL     1       0.002  -0.004   0.002  0.00  0.00    -0.000 C 
ATOM     14  C   UNL     1       0.742  -0.511   1.242  0.00  0.00    +0.009 C 
ENDBRANCH  11  13
ENDBRANCH   5  11
ENDBRANCH   1   8
BRANCH   2  15
ATOM     15  C   UNL     1      -3.193   1.742  -5.740  0.00  0.00    +0.020 C 
BRANCH  15  16
ATOM     16  N   UNL     1      -4.079   1.998  -6.883  0.00  0.00    +0.388 N 
ATOM     17  C   UNL     1      -4.441   0.723  -7.505  0.00  0.00    -0.055 C 
ATOM     18  C   UNL     1      -5.624   0.926  -8.459  0.00  0.00    +0.147 C 
ATOM     19  S   UNL     1      -5.104   2.052  -9.790  0.00  0.00    -0.034 S 
ATOM     20  O   UNL     1      -4.061   1.430 -10.529  0.00  0.00    -0.174 OA
ATOM     21  O   UNL     1      -6.263   2.508 -10.475  0.00  0.00    -0.174 OA
ATOM     22  C   UNL     1      -4.400   3.437  -8.845  0.00  0.00    +0.147 C 
ATOM     23  C   UNL     1      -3.393   2.874  -7.836  0.00  0.00    -0.055 C 
ATOM     24  H   UNL     1      -4.917   2.456  -6.556  0.00  0.00    -0.081 HD
ENDBRANCH  15  16
ENDBRANCH   2  15
TORSDOF 5
