REMARK  Name = ZINC13363047
REMARK  13 active torsions:
REMARK  status: ('A' for Active; 'I' for Inactive)
REMARK    1  A    between atoms: C_1  and  C_2
REMARK    2  A    between atoms: C_2  and  O_3
REMARK    3  A    between atoms: O_3  and  C_4
REMARK    4  A    between atoms: C_7  and  N_10
REMARK    5  A    between atoms: C_11  and  C_13
REMARK    6  A    between atoms: C_13  and  S_14
REMARK    7  A    between atoms: S_14  and  C_15
REMARK    8  A    between atoms: C_23  and  O_25
REMARK    9  A    between atoms: O_25  and  C_26
REMARK   10  A    between atoms: C_26  and  C_27
REMARK   11  A    between atoms: C_26  and  C_28
REMARK   12  A    between atoms: C_26  and  C_29
REMARK   13  A    between atoms: C_31  and  C_32
REMARK                            x       y       z     vdW  Elec       q    Type
REMARK                         _______ _______ _______ _____ _____    ______ ____
ROOT
ATOM      1  C   UNL     1       3.851  -6.557  -0.522  0.00  0.00    +0.121 C 
ATOM      2  N   UNL     1       2.687  -7.136  -0.505  0.00  0.00    -0.245 NA
ATOM      3  C   UNL     1       2.913  -8.578  -0.634  0.00  0.00    +0.156 C 
ATOM      4  C   UNL     1       2.236  -9.104  -1.899  0.00  0.00    +0.073 C 
ATOM      5  C   UNL     1       0.727  -8.854  -1.808  0.00  0.00    +0.115 C 
ATOM      6  N   UNL     1       0.225  -9.441  -0.558  0.00  0.00    -0.267 N 
ATOM      7  C   UNL     1       0.863  -9.058   0.709  0.00  0.00    +0.115 C 
ATOM      8  C   UNL     1       2.370  -9.306   0.596  0.00  0.00    +0.073 C 
ATOM      9  C   UNL     1      -0.801 -10.315  -0.573  0.00  0.00    +0.403 C 
ATOM     10  O   UNL     1      -1.207 -10.793   0.467  0.00  0.00    -0.226 OA
ATOM     11  N   UNL     1       4.364  -8.766  -0.728  0.00  0.00    -0.251 NA
ATOM     12  C   UNL     1       4.912  -7.583  -0.668  0.00  0.00    +0.106 C 
ENDROOT
BRANCH  12  13
ATOM     13  C   UNL     1       6.355  -7.310  -0.732  0.00  0.00    +0.040 A 
ATOM     14  C   UNL     1       7.407  -8.201  -0.866  0.00  0.00    +0.018 A 
ATOM     15  C   UNL     1       8.675  -7.672  -0.899  0.00  0.00    +0.008 A 
ATOM     16  C   UNL     1       8.834  -6.327  -0.799  0.00  0.00    +0.046 A 
ATOM     17  S   UNL     1       7.207  -5.744  -0.664  0.00  0.00    -0.095 S 
ENDBRANCH  12  13
BRANCH   1  18
ATOM     18  S   UNL     1       4.126  -4.821  -0.398  0.00  0.00    -0.095 S 
BRANCH  18  19
ATOM     19  C   UNL     1       2.417  -4.241  -0.258  0.00  0.00    +0.172 C 
BRANCH  19  21
ATOM     20  N   UNL     1       1.234  -2.083  -0.020  0.00  0.00    -0.285 N 
ATOM     21  C   UNL     1       2.405  -2.739  -0.137  0.00  0.00    +0.227 C 
ATOM     22  O   UNL     1       3.449  -2.122  -0.144  0.00  0.00    -0.275 OA
ATOM     23  H   UNL     1       0.405  -2.580   0.062  0.00  0.00    +0.155 HD
BRANCH  20  27
ATOM     24  C   UNL     1       1.173   2.087  -0.017  0.00  0.00    +0.121 A 
ATOM     25  C   UNL     1       2.117   1.408  -0.773  0.00  0.00    +0.047 A 
ATOM     26  C   UNL     1       2.138   0.027  -0.775  0.00  0.00    +0.027 A 
ATOM     27  C   UNL     1       1.213  -0.681  -0.019  0.00  0.00    +0.034 A 
ATOM     28  C   UNL     1       0.269  -0.001   0.738  0.00  0.00    +0.027 A 
ATOM     29  C   UNL     1       0.249   1.379   0.739  0.00  0.00    +0.047 A 
BRANCH  24  30
ATOM     30  O   UNL     1       1.153   3.446  -0.015  0.00  0.00    -0.492 OA
BRANCH  30  32
ATOM     31  C   UNL     1       0.288   5.599   0.662  0.00  0.00    +0.048 C 
ATOM     32  C   UNL     1       0.154   4.080   0.786  0.00  0.00    +0.225 C 
ENDBRANCH  30  32
ENDBRANCH  24  30
ENDBRANCH  20  27
ENDBRANCH  19  21
ENDBRANCH  18  19
ENDBRANCH   1  18
BRANCH   9  33
ATOM     33  O   UNL     1      -1.377 -10.658  -1.741  0.00  0.00    -0.445 OA
BRANCH  33  34
ATOM     34  C   UNL     1      -2.477 -11.604  -1.682  0.00  0.00    +0.107 C 
ATOM     35  C   UNL     1      -3.602 -11.024  -0.823  0.00  0.00    +0.055 C 
ATOM     36  C   UNL     1      -2.998 -11.869  -3.095  0.00  0.00    +0.055 C 
ATOM     37  C   UNL     1      -1.988 -12.915  -1.064  0.00  0.00    +0.055 C 
ENDBRANCH  33  34
ENDBRANCH   9  33
TORSDOF 9
