REMARK  Name = ZINC35712185
REMARK  14 active torsions:
REMARK  status: ('A' for Active; 'I' for Inactive)
REMARK    1  A    between atoms: C_1  and  C_2
REMARK    2  A    between atoms: C_2  and  C_3
REMARK    3  A    between atoms: C_3  and  N_4
REMARK    4  A    between atoms: C_5  and  C_37
REMARK    5  A    between atoms: C_6  and  C_30
REMARK    6  A    between atoms: C_7  and  C_12
REMARK    7  A    between atoms: C_16  and  N_18
REMARK    8  A    between atoms: N_21  and  C_22
REMARK    9  A    between atoms: C_26  and  C_28
REMARK   10  A    between atoms: C_30  and  O_32
REMARK   11  A    between atoms: O_32  and  C_33
REMARK   12  A    between atoms: C_33  and  C_34
REMARK   13  A    between atoms: C_34  and  C_35
REMARK   14  A    between atoms: C_34  and  C_36
REMARK                            x       y       z     vdW  Elec       q    Type
REMARK                         _______ _______ _______ _____ _____    ______ ____
ROOT
ATOM      1  C   UNL     1       1.060  -5.622  -2.318  0.00  0.00    -0.021 A 
ATOM      2  C   UNL     1       1.332  -4.890  -3.460  0.00  0.00    +0.006 A 
ATOM      3  C   UNL     1       1.908  -5.503  -4.557  0.00  0.00    +0.002 A 
ATOM      4  C   UNL     1       2.214  -6.849  -4.516  0.00  0.00    +0.023 A 
ATOM      5  C   UNL     1       1.942  -7.587  -3.371  0.00  0.00    +0.035 A 
ATOM      6  C   UNL     1       1.369  -6.967  -2.269  0.00  0.00    +0.029 A 
ENDROOT
BRANCH   1  10
ATOM      7  N   UNL     1       0.359  -2.228  -0.639  0.00  0.00    -0.259 N 
ATOM      8  C   UNL     1       1.424  -2.929  -0.148  0.00  0.00    +0.024 C 
ATOM      9  C   UNL     1       1.532  -4.260  -0.344  0.00  0.00    +0.078 C 
ATOM     10  C   UNL     1       0.431  -4.950  -1.125  0.00  0.00    +0.144 C 
ATOM     11  N   UNL     1      -0.673  -4.104  -1.610  0.00  0.00    -0.288 N 
ATOM     12  C   UNL     1      -0.642  -2.787  -1.331  0.00  0.00    +0.307 C 
ATOM     13  O   UNL     1      -1.550  -2.081  -1.723  0.00  0.00    -0.252 OA
ATOM     14  C   UNL     1       2.496  -2.203   0.623  0.00  0.00    +0.061 C 
ATOM     15  H   UNL     1      -1.406  -4.488  -2.116  0.00  0.00    +0.151 HD
BRANCH   9  16
ATOM     16  C   UNL     1       2.634  -4.987   0.163  0.00  0.00    +0.339 C 
ATOM     17  O   UNL     1       2.753  -6.170  -0.094  0.00  0.00    -0.245 OA
BRANCH  16  18
ATOM     18  O   UNL     1       3.554  -4.368   0.932  0.00  0.00    -0.461 OA
BRANCH  18  19
ATOM     19  C   UNL     1       4.699  -5.133   1.317  0.00  0.00    +0.235 C 
BRANCH  19  20
ATOM     20  C   UNL     1       5.560  -4.312   2.279  0.00  0.00    +0.020 C 
ATOM     21  C   UNL     1       4.768  -4.027   3.556  0.00  0.00    +0.010 C 
ATOM     22  C   UNL     1       6.825  -5.099   2.628  0.00  0.00    +0.010 C 
ENDBRANCH  19  20
ENDBRANCH  18  19
ENDBRANCH  16  18
ENDBRANCH   9  16
BRANCH   7  23
ATOM     23  C   UNL     1       0.307  -0.785  -0.390  0.00  0.00    +0.114 C 
BRANCH  23  25
ATOM     24  C   UNL     1       1.078   1.453  -1.189  0.00  0.00    +0.005 C 
ATOM     25  C   UNL     1       1.133  -0.054  -1.450  0.00  0.00    +0.016 C 
ENDBRANCH  23  25
ENDBRANCH   7  23
ENDBRANCH   1  10
BRANCH   5  26
ATOM     26  N   UNL     1       2.251  -8.951  -3.327  0.00  0.00    -0.269 N 
ATOM     27  C   UNL     1       1.462  -9.798  -2.637  0.00  0.00    +0.308 C 
ATOM     28  O   UNL     1       0.435  -9.393  -2.126  0.00  0.00    -0.252 OA
ATOM     29  N   UNL     1       1.810 -11.095  -2.514  0.00  0.00    -0.269 N 
ATOM     30  H   UNL     1       3.032  -9.287  -3.793  0.00  0.00    +0.156 HD
ATOM     31  H   UNL     1       2.661 -11.403  -2.862  0.00  0.00    +0.156 HD
BRANCH  29  32
ATOM     32  C   UNL     1       0.943 -11.995  -1.883  0.00  0.00    +0.036 A 
ATOM     33  C   UNL     1       1.458 -13.039  -1.123  0.00  0.00    +0.023 A 
ATOM     34  C   UNL     1       0.607 -13.931  -0.499  0.00  0.00    +0.003 A 
ATOM     35  C   UNL     1      -0.760 -13.792  -0.626  0.00  0.00    +0.019 A 
ATOM     36  C   UNL     1      -1.288 -12.746  -1.387  0.00  0.00    +0.054 A 
ATOM     37  C   UNL     1      -0.428 -11.843  -2.013  0.00  0.00    +0.042 A 
BRANCH  36  38
ATOM     38  C   UNL     1      -2.706 -12.599  -1.520  0.00  0.00    +0.099 C 
ATOM     39  N   UNL     1      -3.831 -12.483  -1.626  0.00  0.00    -0.191 NA
ENDBRANCH  36  38
ENDBRANCH  29  32
ENDBRANCH   5  26
TORSDOF 10
