REMARK  Name = ZINC04505674
REMARK  2 active torsions:
REMARK  status: ('A' for Active; 'I' for Inactive)
REMARK    1  A    between atoms: C_6  and  S_11
REMARK    2  A    between atoms: S_11  and  N_14
REMARK                            x       y       z     vdW  Elec       q    Type
REMARK                         _______ _______ _______ _____ _____    ______ ____
ROOT
ATOM      1  N   UNL     1       1.048   8.184   1.616  0.00  0.00    -0.176 NA
ATOM      2  C   UNL     1      -0.212   8.390   2.342  0.00  0.00    +0.113 C 
ATOM      3  C   UNL     1      -0.175   7.556   3.631  0.00  0.00    +0.065 C 
ATOM      4  C   UNL     1       1.079   7.916   4.430  0.00  0.00    +0.120 C 
ATOM      5  C   UNL     1       2.326   7.588   3.607  0.00  0.00    +0.065 C 
ATOM      6  C   UNL     1       2.316   8.419   2.320  0.00  0.00    +0.113 C 
ATOM      7  C   UNL     1       1.104   7.100   5.731  0.00  0.00    +0.127 C 
ATOM      8  C   UNL     1       2.351   7.512   6.492  0.00  0.00    +0.170 C 
ATOM      9  O   UNL     1       3.032   6.704   7.087  0.00  0.00    -0.292 OA
ATOM     10  C   UNL     1       2.690   8.946   6.472  0.00  0.00    +0.059 A 
ATOM     11  C   UNL     1       3.666   9.461   7.327  0.00  0.00    +0.015 A 
ATOM     12  C   UNL     1       3.968  10.805   7.285  0.00  0.00    +0.001 A 
ATOM     13  C   UNL     1       3.307  11.641   6.399  0.00  0.00    +0.004 A 
ATOM     14  C   UNL     1       2.340  11.143   5.548  0.00  0.00    +0.046 A 
ATOM     15  C   UNL     1       2.019   9.793   5.575  0.00  0.00    +0.132 A 
ATOM     16  O   UNL     1       1.065   9.307   4.746  0.00  0.00    -0.484 OA
ENDROOT
BRANCH   1  17
ATOM     17  S   UNL     1       1.040   7.702   0.031  0.00  0.00    +0.061 S 
ATOM     18  O   UNL     1       2.275   8.128  -0.529  0.00  0.00    -0.153 OA
ATOM     19  O   UNL     1      -0.216   8.094  -0.506  0.00  0.00    -0.153 OA
BRANCH  17  25
ATOM     20  C   UNL     1      -0.013   1.076   0.008  0.00  0.00    +0.001 A 
ATOM     21  C   UNL     1      -1.235   1.746   0.017  0.00  0.00    +0.001 A 
ATOM     22  C   UNL     1      -1.288   3.106   0.030  0.00  0.00    +0.008 A 
ATOM     23  C   UNL     1      -0.096   3.849   0.023  0.00  0.00    -0.016 A 
ATOM     24  C   UNL     1      -0.111   5.254   0.030  0.00  0.00    +0.037 A 
ATOM     25  C   UNL     1       1.064   5.940   0.022  0.00  0.00    +0.106 A 
ATOM     26  C   UNL     1       2.286   5.270   0.007  0.00  0.00    +0.029 A 
ATOM     27  C   UNL     1       2.340   3.910  -0.000  0.00  0.00    +0.010 A 
ATOM     28  C   UNL     1       1.147   3.167   0.008  0.00  0.00    -0.018 A 
ATOM     29  C   UNL     1       1.163   1.762   0.000  0.00  0.00    +0.008 A 
ENDBRANCH  17  25
ENDBRANCH   1  17
TORSDOF 2
