REMARK  Name = ZINC37278061
REMARK  7 active torsions:
REMARK  status: ('A' for Active; 'I' for Inactive)
REMARK    1  A    between atoms: C_1  and  C_2
REMARK    2  A    between atoms: C_2  and  C_4
REMARK    3  A    between atoms: C_2  and  N_14
REMARK    4  A    between atoms: C_7  and  S_10
REMARK    5  A    between atoms: S_10  and  N_13
REMARK    6  A    between atoms: N_14  and  C_15
REMARK    7  A    between atoms: C_15  and  C_16
REMARK                            x       y       z     vdW  Elec       q    Type
REMARK                         _______ _______ _______ _____ _____    ______ ____
ROOT
ATOM      1  C   UNL     1      -0.019   1.526   0.010  0.00  0.00    -0.009 C 
ATOM      2  C   UNL     1       0.002  -0.004   0.002  0.00  0.00    -0.043 C 
ENDROOT
BRANCH   2   3
ATOM      3  C   UNL     1       0.707  -0.490  -1.238  0.00  0.00    -0.062 A 
ATOM      4  C   UNL     1       0.038  -0.522  -2.447  0.00  0.00    +0.004 A 
ATOM      5  C   UNL     1       0.685  -0.967  -3.584  0.00  0.00    +0.029 A 
ATOM      6  C   UNL     1       2.002  -1.381  -3.513  0.00  0.00    +0.105 A 
ATOM      7  C   UNL     1       2.672  -1.349  -2.304  0.00  0.00    +0.029 A 
ATOM      8  C   UNL     1       2.026  -0.899  -1.167  0.00  0.00    +0.004 A 
BRANCH   6   9
ATOM      9  S   UNL     1       2.826  -1.951  -4.962  0.00  0.00    +0.056 S 
ATOM     10  O   UNL     1       3.882  -2.794  -4.524  0.00  0.00    -0.153 OA
ATOM     11  O   UNL     1       1.815  -2.397  -5.855  0.00  0.00    -0.153 OA
BRANCH   9  12
ATOM     12  N   UNL     1       3.535  -0.633  -5.671  0.00  0.00    -0.204 NA
ATOM     13  H   UNL     1       3.443   0.244  -5.267  0.00  0.00    +0.144 HD
ATOM     14  H   UNL     1       4.043  -0.738  -6.491  0.00  0.00    +0.144 HD
ENDBRANCH   9  12
ENDBRANCH   6   9
ENDBRANCH   2   3
BRANCH   2  15
ATOM     15  N   UNL     1      -1.376  -0.512   0.012  0.00  0.00    +0.388 N 
ATOM     16  H   UNL     1      -1.888  -0.113  -0.760  0.00  0.00    -0.084 HD
ATOM     17  H   UNL     1      -1.364  -1.518  -0.076  0.00  0.00    -0.084 HD
BRANCH  15  18
ATOM     18  C   UNL     1      -2.026  -0.140   1.276  0.00  0.00    -0.006 C 
BRANCH  18  19
ATOM     19  C   UNL     1      -3.440  -0.661   1.287  0.00  0.00    +0.090 A 
ATOM     20  C   UNL     1      -3.832  -1.862   1.750  0.00  0.00    +0.044 A 
ATOM     21  C   UNL     1      -5.232  -1.934   1.567  0.00  0.00    +0.056 A 
ATOM     22  C   UNL     1      -5.612  -0.773   1.002  0.00  0.00    +0.165 A 
ATOM     23  O   UNL     1      -4.523  -0.004   0.840  0.00  0.00    -0.456 OA
ATOM     24  I   UNL     1      -7.571  -0.251   0.474  0.00  0.00    -0.001 I 
ENDBRANCH  18  19
ENDBRANCH  15  18
ENDBRANCH   2  15
TORSDOF 6
