REMARK  Name = ZINC39448860
REMARK  7 active torsions:
REMARK  status: ('A' for Active; 'I' for Inactive)
REMARK    1  A    between atoms: C_1  and  N_2
REMARK    2  A    between atoms: N_2  and  C_3
REMARK    3  A    between atoms: N_2  and  C_4
REMARK    4  A    between atoms: C_7  and  C_10
REMARK    5  A    between atoms: C_15  and  S_17
REMARK    6  A    between atoms: S_17  and  C_18
REMARK    7  A    between atoms: C_18  and  C_19
REMARK                            x       y       z     vdW  Elec       q    Type
REMARK                         _______ _______ _______ _____ _____    ______ ____
ROOT
ATOM      1  C   UNL     1      -4.870  -2.906   0.033  0.00  0.00    +0.200 C 
ATOM      2  N   UNL     1      -4.691  -4.180  -0.673  0.00  0.00    -0.336 N 
ATOM      3  C   UNL     1      -4.960  -4.273  -1.948  0.00  0.00    +0.190 C 
ATOM      4  N   UNL     1      -5.446  -3.236  -2.650  0.00  0.00    -0.195 NA
ATOM      5  C   UNL     1      -5.911  -2.160  -2.039  0.00  0.00    +0.159 C 
ATOM      6  N   UNL     1      -5.911  -2.134  -0.663  0.00  0.00    -0.300 N 
ATOM      7  N   UNL     1      -4.737  -5.472  -2.594  0.00  0.00    -0.329 N 
ATOM      8  H   UNL     1      -4.386  -6.230  -2.101  0.00  0.00    +0.145 HD
ATOM      9  H   UNL     1      -4.931  -5.557  -3.540  0.00  0.00    +0.145 HD
ATOM     10  H   UNL     1      -6.574  -1.626  -0.169  0.00  0.00    +0.150 HD
ATOM     11  H   UNL     1      -4.371  -4.958  -0.190  0.00  0.00    +0.164 HD
ENDROOT
BRANCH   1  15
ATOM     12  C   UNL     1      -1.198  -0.719   0.010  0.00  0.00    +0.029 A 
ATOM     13  C   UNL     1      -1.181  -2.108   0.008  0.00  0.00    +0.023 A 
ATOM     14  C   UNL     1      -2.369  -2.812   0.016  0.00  0.00    +0.009 A 
ATOM     15  C   UNL     1      -3.575  -2.135   0.025  0.00  0.00    -0.007 A 
ATOM     16  C   UNL     1      -3.596  -0.752   0.027  0.00  0.00    +0.009 A 
ATOM     17  C   UNL     1      -2.411  -0.042   0.025  0.00  0.00    +0.023 A 
BRANCH  12  19
ATOM     18  C   UNL     1      -0.018   1.461   0.010  0.00  0.00    +0.129 C 
ATOM     19  N   UNL     1       0.002  -0.004   0.002  0.00  0.00    -0.336 N 
ATOM     20  C   UNL     1       1.281  -0.719  -0.014  0.00  0.00    +0.129 C 
ENDBRANCH  12  19
ENDBRANCH   1  15
BRANCH   5  21
ATOM     21  S   UNL     1      -6.516  -0.789  -2.965  0.00  0.00    -0.081 S 
BRANCH  21  22
ATOM     22  C   UNL     1      -6.307  -1.300  -4.693  0.00  0.00    +0.173 C 
BRANCH  22  23
ATOM     23  C   UNL     1      -6.793  -0.203  -5.604  0.00  0.00    +0.234 C 
ATOM     24  O   UNL     1      -7.237   0.823  -5.134  0.00  0.00    -0.274 OA
ATOM     25  N   UNL     1      -6.735  -0.361  -6.941  0.00  0.00    -0.239 N 
ATOM     26  C   UNL     1      -6.231  -1.540  -7.508  0.00  0.00    +0.044 A 
ATOM     27  C   UNL     1      -6.825  -2.744  -7.144  0.00  0.00    +0.024 A 
ATOM     28  C   UNL     1      -6.396  -3.932  -7.697  0.00  0.00    +0.002 A 
ATOM     29  C   UNL     1      -5.369  -3.912  -8.623  0.00  0.00    +0.000 A 
ATOM     30  C   UNL     1      -4.772  -2.723  -8.972  0.00  0.00    +0.005 A 
ATOM     31  C   UNL     1      -5.178  -1.511  -8.409  0.00  0.00    -0.025 A 
ATOM     32  C   UNL     1      -4.362  -0.312  -8.835  0.00  0.00    +0.042 C 
ATOM     33  C   UNL     1      -4.779   0.975  -8.145  0.00  0.00    +0.042 C 
ATOM     34  C   UNL     1      -6.203   1.342  -8.479  0.00  0.00    -0.025 A 
ATOM     35  C   UNL     1      -7.181   0.645  -7.809  0.00  0.00    +0.044 A 
ATOM     36  C   UNL     1      -8.521   0.931  -8.003  0.00  0.00    +0.024 A 
ATOM     37  C   UNL     1      -8.864   1.920  -8.911  0.00  0.00    +0.002 A 
ATOM     38  C   UNL     1      -7.883   2.604  -9.606  0.00  0.00    +0.000 A 
ATOM     39  C   UNL     1      -6.529   2.318  -9.392  0.00  0.00    +0.005 A 
ENDBRANCH  22  23
ENDBRANCH  21  22
ENDBRANCH   5  21
TORSDOF 5
