REMARK  Name = ZINC15420495
REMARK  12 active torsions:
REMARK  status: ('A' for Active; 'I' for Inactive)
REMARK    1  A    between atoms: C_1  and  C_2
REMARK    2  A    between atoms: C_2  and  N_61
REMARK    3  A    between atoms: C_3  and  C_4
REMARK    4  A    between atoms: C_3  and  N_61
REMARK    5  A    between atoms: N_6  and  C_7
REMARK    6  A    between atoms: C_7  and  C_8
REMARK    7  A    between atoms: C_13  and  C_14
REMARK    8  A    between atoms: C_13  and  N_61
REMARK    9  A    between atoms: N_16  and  C_17
REMARK   10  A    between atoms: C_22  and  C_23
REMARK   11  A    between atoms: N_25  and  C_26
REMARK   12  A    between atoms: C_26  and  C_27
REMARK                            x       y       z     vdW  Elec       q    Type
REMARK                         _______ _______ _______ _____ _____    ______ ____
ROOT
ATOM      1  C   UNL     1       0.053   1.093  -0.190  0.00  0.00    +0.201 C 
ATOM      2  O   UNL     1       0.201  -0.059  -0.539  0.00  0.00    -0.278 OA
ATOM      3  N   UNL     1      -1.187   1.595  -0.030  0.00  0.00    -0.286 N 
ATOM      4  H   UNL     1      -1.306   2.494   0.314  0.00  0.00    +0.155 HD
ENDROOT
BRANCH   3   5
ATOM      5  C   UNL     1      -2.299   0.823  -0.358  0.00  0.00    +0.045 A 
ATOM      6  C   UNL     1      -2.288  -0.547  -0.133  0.00  0.00    +0.024 A 
ATOM      7  C   UNL     1      -3.393  -1.310  -0.454  0.00  0.00    +0.002 A 
ATOM      8  C   UNL     1      -4.514  -0.719  -1.013  0.00  0.00    +0.001 A 
ATOM      9  C   UNL     1      -4.541   0.639  -1.249  0.00  0.00    +0.015 A 
ATOM     10  C   UNL     1      -3.433   1.424  -0.924  0.00  0.00    +0.058 A 
BRANCH  10  11
ATOM     11  C   UNL     1      -3.454   2.878  -1.174  0.00  0.00    +0.246 C 
ATOM     12  O   UNL     1      -2.453   3.542  -0.990  0.00  0.00    -0.270 OA
ATOM     13  N   UNL     1      -4.585   3.470  -1.608  0.00  0.00    -0.307 N 
ATOM     14  H   UNL     1      -5.384   2.941  -1.756  0.00  0.00    +0.149 HD
BRANCH  13  15
ATOM     15  C   UNL     1      -4.606   4.914  -1.857  0.00  0.00    +0.139 C 
BRANCH  15  16
ATOM     16  C   UNL     1      -5.978   5.321  -2.331  0.00  0.00    -0.030 A 
ATOM     17  C   UNL     1      -6.270   5.323  -3.682  0.00  0.00    +0.005 A 
ATOM     18  C   UNL     1      -7.529   5.692  -4.116  0.00  0.00    +0.000 A 
ATOM     19  C   UNL     1      -8.493   6.069  -3.200  0.00  0.00    +0.000 A 
ATOM     20  C   UNL     1      -8.199   6.073  -1.850  0.00  0.00    +0.000 A 
ATOM     21  C   UNL     1      -6.942   5.699  -1.415  0.00  0.00    +0.005 A 
ENDBRANCH  15  16
ENDBRANCH  13  15
ENDBRANCH  10  11
ENDBRANCH   3   5
BRANCH   1  22
ATOM     22  C   UNL     1       1.257   1.965   0.059  0.00  0.00    +0.020 C 
BRANCH  22  23
ATOM     23  N   UNL     1       2.479   1.167  -0.173  0.00  0.00    +0.391 N 
ATOM     24  H   UNL     1       2.418   0.297   0.369  0.00  0.00    -0.080 HD
BRANCH  23  26
ATOM     25  C   UNL     1       2.767   2.101  -2.444  0.00  0.00    -0.017 C 
ATOM     26  C   UNL     1       2.598   0.831  -1.607  0.00  0.00    -0.081 C 
ENDBRANCH  23  26
BRANCH  23  27
ATOM     27  C   UNL     1       3.669   1.926   0.268  0.00  0.00    +0.019 C 
BRANCH  27  28
ATOM     28  C   UNL     1       4.834   0.976   0.382  0.00  0.00    +0.197 C 
ATOM     29  O   UNL     1       4.691  -0.195   0.101  0.00  0.00    -0.278 OA
ATOM     30  N   UNL     1       6.034   1.428   0.796  0.00  0.00    -0.312 N 
ATOM     31  H   UNL     1       6.148   2.365   1.020  0.00  0.00    +0.149 HD
BRANCH  30  32
ATOM     32  C   UNL     1       7.166   0.505   0.906  0.00  0.00    +0.146 C 
BRANCH  32  33
ATOM     33  C   UNL     1       8.381   1.256   1.386  0.00  0.00    +0.007 A 
ATOM     34  C   UNL     1       8.801   1.479   2.655  0.00  0.00    +0.013 A 
ATOM     35  C   UNL     1       9.962   2.200   2.861  0.00  0.00    +0.008 A 
ATOM     36  C   UNL     1      10.641   2.672   1.787  0.00  0.00    +0.045 A 
ATOM     37  S   UNL     1       9.638   2.089   0.430  0.00  0.00    -0.100 S 
ENDBRANCH  32  33
ENDBRANCH  30  32
ENDBRANCH  27  28
ENDBRANCH  23  27
ENDBRANCH  22  23
ENDBRANCH   1  22
TORSDOF 11
