REMARK  Name = ZINC67293346
REMARK  5 active torsions:
REMARK  status: ('A' for Active; 'I' for Inactive)
REMARK    1  A    between atoms: C_8  and  C_10
REMARK    2  A    between atoms: C_15  and  O_32
REMARK    3  A    between atoms: N_20  and  C_21
REMARK    4  A    between atoms: C_25  and  O_27
REMARK    5  A    between atoms: O_27  and  C_28
REMARK                            x       y       z     vdW  Elec       q    Type
REMARK                         _______ _______ _______ _____ _____    ______ ____
ROOT
ATOM      1  C   UNL     1       0.168  -4.203   0.239  0.00  0.00    +0.098 A 
ATOM      2  C   UNL     1      -1.006  -4.942   0.236  0.00  0.00    +0.030 A 
ATOM      3  C   UNL     1      -0.909  -6.355   0.316  0.00  0.00    +0.018 A 
ATOM      4  C   UNL     1      -2.043  -7.157   0.115  0.00  0.00    +0.015 A 
ATOM      5  C   UNL     1      -1.929  -8.515   0.154  0.00  0.00    +0.046 A 
ATOM      6  C   UNL     1      -0.695  -9.115   0.399  0.00  0.00    +0.120 A 
ATOM      7  C   UNL     1       0.432  -8.339   0.620  0.00  0.00    +0.092 A 
ATOM      8  C   UNL     1       0.334  -6.958   0.591  0.00  0.00    +0.141 A 
ATOM      9  O   UNL     1       1.421  -6.189   0.848  0.00  0.00    -0.438 OA
ATOM     10  C   UNL     1       1.440  -4.950   0.287  0.00  0.00    +0.212 A 
ATOM     11  N   UNL     1       2.552  -4.434  -0.192  0.00  0.00    -0.325 N 
ATOM     12  H   UNL     1       2.526  -3.597  -0.681  0.00  0.00    +0.169 HD
ENDROOT
BRANCH   1  20
ATOM     13  C   UNL     1       0.153   1.414  -0.145  0.00  0.00    +0.005 A 
ATOM     14  C   UNL     1       1.234   2.077   0.420  0.00  0.00    +0.020 A 
ATOM     15  C   UNL     1       2.285   1.343   0.932  0.00  0.00    +0.113 A 
ATOM     16  N   UNL     1       2.273   0.025   0.890  0.00  0.00    -0.240 NA
ATOM     17  C   UNL     1       1.262  -0.644   0.360  0.00  0.00    +0.125 A 
ATOM     18  C   UNL     1       0.169   0.031  -0.174  0.00  0.00    +0.044 A 
ATOM     19  N   UNL     1       1.291  -2.037   0.337  0.00  0.00    -0.266 N 
ATOM     20  C   UNL     1       0.147  -2.733   0.190  0.00  0.00    +0.254 C 
ATOM     21  O   UNL     1      -0.905  -2.145   0.018  0.00  0.00    -0.270 OA
ATOM     22  H   UNL     1       2.136  -2.505   0.427  0.00  0.00    +0.157 HD
ENDBRANCH   1  20
BRANCH  11  23
ATOM     23  C   UNL     1       3.743  -5.077  -0.000  0.00  0.00    +0.045 A 
ATOM     24  C   UNL     1       4.062  -5.602   1.255  0.00  0.00    +0.026 A 
ATOM     25  C   UNL     1       5.265  -6.251   1.444  0.00  0.00    +0.006 A 
ATOM     26  C   UNL     1       6.157  -6.384   0.396  0.00  0.00    +0.046 A 
ATOM     27  C   UNL     1       5.849  -5.865  -0.855  0.00  0.00    +0.132 A 
ATOM     28  C   UNL     1       4.642  -5.218  -1.059  0.00  0.00    +0.071 A 
BRANCH  27  29
ATOM     29  O   UNL     1       6.730  -5.998  -1.881  0.00  0.00    -0.406 OA
BRANCH  29  30
ATOM     30  C   UNL     1       7.953  -6.683  -1.602  0.00  0.00    +0.575 C 
ATOM     31  F   UNL     1       7.671  -7.985  -1.176  0.00  0.00    -0.133 F 
ATOM     32  F   UNL     1       8.736  -6.729  -2.760  0.00  0.00    -0.133 F 
ATOM     33  F   UNL     1       8.648  -6.003  -0.596  0.00  0.00    -0.133 F 
ENDBRANCH  29  30
ENDBRANCH  27  29
ENDBRANCH  11  23
BRANCH   6  34
ATOM     34  O   UNL     1      -0.597 -10.468   0.423  0.00  0.00    -0.507 OA
ATOM     35  H   UNL     1      -0.397 -10.863  -0.437  0.00  0.00    +0.292 HD
ENDBRANCH   6  34
TORSDOF 5
