REMARK  Name = ZINC66703413
REMARK  10 active torsions:
REMARK  status: ('A' for Active; 'I' for Inactive)
REMARK    1  A    between atoms: C_1  and  C_2
REMARK    2  A    between atoms: C_2  and  O_3
REMARK    3  A    between atoms: O_3  and  C_4
REMARK    4  A    between atoms: C_4  and  C_5
REMARK    5  A    between atoms: N_7  and  N_8
REMARK    6  A    between atoms: N_11  and  C_12
REMARK    7  A    between atoms: C_12  and  C_13
REMARK    8  A    between atoms: C_17  and  C_19
REMARK    9  A    between atoms: C_19  and  N_20
REMARK   10  A    between atoms: N_23  and  C_26
REMARK                            x       y       z     vdW  Elec       q    Type
REMARK                         _______ _______ _______ _____ _____    ______ ____
ROOT
ATOM      1  C   UNL     1      -4.293  -7.686   0.002  0.00  0.00    +0.141 C 
ENDROOT
BRANCH   1   5
ATOM      2  N   UNL     1      -4.564  -4.019   0.024  0.00  0.00    -0.218 N 
ATOM      3  C   UNL     1      -4.896  -5.325   0.020  0.00  0.00    +0.316 C 
ATOM      4  O   UNL     1      -6.066  -5.654   0.030  0.00  0.00    -0.251 OA
ATOM      5  N   UNL     1      -3.931  -6.266   0.006  0.00  0.00    -0.294 N 
ATOM      6  H   UNL     1      -5.258  -3.341   0.034  0.00  0.00    +0.174 HD
ATOM      7  H   UNL     1      -2.998  -6.003  -0.002  0.00  0.00    +0.151 HD
BRANCH   2  10
ATOM      8  C   UNL     1      -2.883  -2.333   0.017  0.00  0.00    +0.255 C 
ATOM      9  O   UNL     1      -3.751  -1.486   0.030  0.00  0.00    -0.272 OA
ATOM     10  N   UNL     1      -3.215  -3.639   0.013  0.00  0.00    -0.231 N 
ATOM     11  H   UNL     1      -2.521  -4.316   0.003  0.00  0.00    +0.173 HD
BRANCH   8  12
ATOM     12  C   UNL     1      -1.432  -1.925   0.005  0.00  0.00    +0.256 C 
BRANCH  12  13
ATOM     13  O   UNL     1      -1.339  -0.499   0.012  0.00  0.00    -0.371 OA
BRANCH  13  15
ATOM     14  C   UNL     1      -0.019   1.526   0.010  0.00  0.00    +0.034 C 
ATOM     15  C   UNL     1       0.002  -0.004   0.002  0.00  0.00    +0.157 C 
ENDBRANCH  13  15
ENDBRANCH  12  13
ENDBRANCH   8  12
ENDBRANCH   2  10
ENDBRANCH   1   5
BRANCH   1  16
ATOM     16  C   UNL     1      -3.040  -8.523  -0.015  0.00  0.00    -0.030 A 
ATOM     17  C   UNL     1      -2.473  -8.896  -1.220  0.00  0.00    +0.005 A 
ATOM     18  C   UNL     1      -1.324  -9.663  -1.235  0.00  0.00    +0.001 A 
ATOM     19  C   UNL     1      -0.741 -10.058  -0.045  0.00  0.00    +0.005 A 
ATOM     20  C   UNL     1      -1.306  -9.685   1.160  0.00  0.00    -0.033 A 
ATOM     21  C   UNL     1      -2.454  -8.913   1.175  0.00  0.00    +0.010 A 
BRANCH  20  22
ATOM     22  C   UNL     1      -0.671 -10.116   2.456  0.00  0.00    +0.119 C 
BRANCH  22  23
ATOM     23  N   UNL     1       0.306  -9.104   2.883  0.00  0.00    -0.302 NA
ATOM     24  C   UNL     1       1.439  -9.040   1.949  0.00  0.00    +0.066 C 
ATOM     25  C   UNL     1       2.401  -7.937   2.394  0.00  0.00    -0.064 C 
ATOM     26  N   UNL     1       2.880  -8.224   3.753  0.00  0.00    +0.379 N 
ATOM     27  C   UNL     1       1.740  -8.261   4.678  0.00  0.00    -0.064 C 
ATOM     28  C   UNL     1       0.772  -9.367   4.252  0.00  0.00    +0.066 C 
ATOM     29  C   UNL     1       3.818  -7.174   4.173  0.00  0.00    -0.096 C 
ATOM     30  H   UNL     1       3.349  -9.117   3.762  0.00  0.00    -0.082 HD
ENDBRANCH  22  23
ENDBRANCH  20  22
ENDBRANCH   1  16
TORSDOF 8
