REMARK  Name = ZINC08791146
REMARK  7 active torsions:
REMARK  status: ('A' for Active; 'I' for Inactive)
REMARK    1  A    between atoms: C_1  and  C_2
REMARK    2  A    between atoms: C_17  and  C_19
REMARK    3  A    between atoms: C_19  and  C_21
REMARK    4  A    between atoms: C_19  and  O_22
REMARK    5  A    between atoms: N_25  and  C_28
REMARK    6  A    between atoms: C_28  and  C_29
REMARK    7  A    between atoms: C_29  and  C_30
REMARK                            x       y       z     vdW  Elec       q    Type
REMARK                         _______ _______ _______ _____ _____    ______ ____
ROOT
ATOM      1  C   UNL     1       5.876   5.376  -0.100  0.00  0.00    +0.044 C 
ATOM      2  C   UNL     1       4.555   5.668   0.565  0.00  0.00    -0.049 A 
ATOM      3  C   UNL     1       3.589   4.681   0.651  0.00  0.00    +0.008 A 
ATOM      4  C   UNL     1       2.382   4.949   1.259  0.00  0.00    -0.026 A 
ATOM      5  C   UNL     1       2.119   6.208   1.790  0.00  0.00    +0.054 A 
ATOM      6  C   UNL     1       3.097   7.197   1.698  0.00  0.00    +0.063 A 
ATOM      7  C   UNL     1       4.306   6.923   1.089  0.00  0.00    +0.025 A 
ATOM      8 CL   UNL     1       2.796   8.776   2.353  0.00  0.00    -0.082 Cl
ATOM      9  N   UNL     1       0.839   6.238   2.348  0.00  0.00    -0.285 N 
ATOM     10  C   UNL     1       0.204   5.056   2.228  0.00  0.00    +0.211 C 
ATOM     11  O   UNL     1      -0.912   4.790   2.620  0.00  0.00    -0.277 OA
ATOM     12  C   UNL     1       1.150   4.129   1.516  0.00  0.00    +0.050 C 
ATOM     13  C   UNL     1       0.542   3.603   0.192  0.00  0.00    +0.088 C 
ATOM     14  C   UNL     1       1.077   2.147   0.091  0.00  0.00    +0.075 C 
ATOM     15  C   UNL     1       1.958   1.945   1.342  0.00  0.00    -0.028 C 
ATOM     16  C   UNL     1      -0.173   1.306   0.219  0.00  0.00    +0.224 C 
ATOM     17  O   UNL     1      -0.207   0.095   0.198  0.00  0.00    -0.275 OA
ATOM     18  N   UNL     1      -1.236   2.107   0.352  0.00  0.00    -0.241 N 
ATOM     19  C   UNL     1      -0.950   3.414   0.355  0.00  0.00    +0.225 C 
ATOM     20  O   UNL     1      -1.761   4.309   0.465  0.00  0.00    -0.275 OA
ATOM     21  H   UNL     1       0.452   7.020   2.773  0.00  0.00    +0.155 HD
ATOM     22  N   UNL     1       1.459   2.941   2.292  0.00  0.00    +0.396 N 
ATOM     23  H   UNL     1       0.614   2.593   2.760  0.00  0.00    -0.083 HD
ATOM     24  H   UNL     1       2.177   3.153   2.994  0.00  0.00    -0.083 HD
ENDROOT
BRANCH  15  25
ATOM     25  C   UNL     1       1.795   0.523   1.883  0.00  0.00    +0.098 C 
ATOM     26  C   UNL     1       2.366  -0.475   0.874  0.00  0.00    +0.036 C 
BRANCH  25  27
ATOM     27  O   UNL     1       2.497   0.402   3.122  0.00  0.00    -0.394 OA
ATOM     28  H   UNL     1       2.437  -0.476   3.524  0.00  0.00    +0.210 HD
ENDBRANCH  25  27
ENDBRANCH  15  25
BRANCH  18  29
ATOM     29  C   UNL     1      -2.602   1.595   0.490  0.00  0.00    +0.121 C 
BRANCH  29  30
ATOM     30  C   UNL     1      -2.921   1.386   1.971  0.00  0.00    +0.054 C 
BRANCH  30  31
ATOM     31  C   UNL     1      -4.326   0.859   2.112  0.00  0.00    -0.046 A 
ATOM     32  C   UNL     1      -5.384   1.738   2.252  0.00  0.00    +0.004 A 
ATOM     33  C   UNL     1      -6.673   1.255   2.377  0.00  0.00    +0.000 A 
ATOM     34  C   UNL     1      -6.904  -0.108   2.372  0.00  0.00    +0.000 A 
ATOM     35  C   UNL     1      -5.846  -0.987   2.237  0.00  0.00    +0.000 A 
ATOM     36  C   UNL     1      -4.557  -0.504   2.107  0.00  0.00    +0.004 A 
ENDBRANCH  30  31
ENDBRANCH  29  30
ENDBRANCH  18  29
TORSDOF 5
