REMARK  Name = ZINC43253138
REMARK  8 active torsions:
REMARK  status: ('A' for Active; 'I' for Inactive)
REMARK    1  A    between atoms: C_1  and  C_2
REMARK    2  A    between atoms: C_2  and  C_3
REMARK    3  A    between atoms: C_3  and  C_5
REMARK    4  A    between atoms: C_3  and  N_22
REMARK    5  A    between atoms: C_5  and  C_7
REMARK    6  A    between atoms: C_5  and  N_13
REMARK    7  A    between atoms: C_18  and  C_20
REMARK    8  A    between atoms: C_20  and  O_21
REMARK                            x       y       z     vdW  Elec       q    Type
REMARK                         _______ _______ _______ _____ _____    ______ ____
ROOT
ATOM      1  C   UNL     1       0.401  -1.911  -1.251  0.00  0.00    +0.079 C 
ENDROOT
BRANCH   1   2
ATOM      2  C   UNL     1       1.474  -2.420  -2.178  0.00  0.00    +0.007 A 
ATOM      3  C   UNL     1       2.801  -2.571  -1.946  0.00  0.00    +0.014 A 
ATOM      4  C   UNL     1       3.607  -3.061  -2.956  0.00  0.00    +0.028 A 
ATOM      5  C   UNL     1       3.046  -3.377  -4.150  0.00  0.00    +0.078 A 
ATOM      6  S   UNL     1       1.327  -2.987  -3.864  0.00  0.00    -0.080 S 
ATOM      7 CL   UNL     1       3.801  -4.005  -5.581  0.00  0.00    -0.076 Cl
ENDBRANCH   1   2
BRANCH   1   8
ATOM      8  N   UNL     1      -0.736  -2.842  -1.260  0.00  0.00    -0.291 NA
ATOM      9  C   UNL     1      -1.415  -2.830  -2.562  0.00  0.00    +0.085 C 
ATOM     10  C   UNL     1      -2.674  -3.697  -2.490  0.00  0.00    +0.015 C 
ATOM     11  C   UNL     1      -2.282  -5.128  -2.111  0.00  0.00    +0.003 C 
ATOM     12  C   UNL     1      -1.534  -5.107  -0.776  0.00  0.00    +0.021 C 
ATOM     13  C   UNL     1      -0.307  -4.199  -0.897  0.00  0.00    +0.083 C 
BRANCH  13  14
ATOM     14  C   UNL     1       0.432  -4.159   0.441  0.00  0.00    +0.174 C 
BRANCH  14  15
ATOM     15  O   UNL     1      -0.464  -3.731   1.468  0.00  0.00    -0.393 OA
ATOM     16  H   UNL     1      -0.062  -3.683   2.346  0.00  0.00    +0.209 HD
ENDBRANCH  14  15
ENDBRANCH  13  14
ENDBRANCH   1   8
BRANCH   1  17
ATOM     17  C   UNL     1      -0.066  -0.532  -1.719  0.00  0.00    -0.053 C 
BRANCH  17  18
ATOM     18  N   UNL     1       1.070   0.399  -1.710  0.00  0.00    +0.381 N 
ATOM     19  H   UNL     1       1.440   0.469  -0.773  0.00  0.00    -0.090 HD
ATOM     20  H   UNL     1       1.789   0.059  -2.330  0.00  0.00    -0.090 HD
ATOM     21  H   UNL     1       0.762   1.309  -2.019  0.00  0.00    -0.090 HD
ENDBRANCH  17  18
BRANCH  17  23
ATOM     22  C   UNL     1      -1.711   1.306  -1.315  0.00  0.00    +0.002 C 
ATOM     23  C   UNL     1      -1.156  -0.015  -0.778  0.00  0.00    -0.018 C 
ENDBRANCH  17  23
ENDBRANCH   1  17
TORSDOF 7
