REMARK  Name = ZINC39935243
REMARK  6 active torsions:
REMARK  status: ('A' for Active; 'I' for Inactive)
REMARK    1  A    between atoms: C_1  and  C_2
REMARK    2  A    between atoms: C_2  and  C_4
REMARK    3  A    between atoms: C_2  and  S_16
REMARK    4  A    between atoms: N_9  and  C_10
REMARK    5  A    between atoms: S_16  and  C_17
REMARK    6  A    between atoms: C_21  and  C_23
REMARK                            x       y       z     vdW  Elec       q    Type
REMARK                         _______ _______ _______ _____ _____    ______ ____
ROOT
ATOM      1  S   UNL     1      -1.700  -0.632   0.015  0.00  0.00    -0.084 S 
ENDROOT
BRANCH   1   2
ATOM      2  C   UNL     1      -2.384  -0.077  -1.571  0.00  0.00    +0.340 C 
ATOM      3  N   UNL     1      -2.309   1.389  -1.679  0.00  0.00    -0.219 N 
ATOM      4  N   UNL     1      -1.491   1.643  -2.790  0.00  0.00    -0.145 NA
ATOM      5  C   UNL     1      -1.095   0.518  -3.323  0.00  0.00    +0.238 C 
ATOM      6  O   UNL     1      -1.584  -0.561  -2.658  0.00  0.00    -0.443 OA
ATOM      7  H   UNL     1      -2.735   2.043  -1.103  0.00  0.00    +0.173 HD
BRANCH   5   8
ATOM      8  C   UNL     1      -0.265   0.434  -4.449  0.00  0.00    +0.043 C 
ATOM      9  C   UNL     1       0.277   1.493  -5.179  0.00  0.00    +0.008 A 
ATOM     10  C   UNL     1       0.180   2.894  -5.041  0.00  0.00    +0.010 A 
ATOM     11  C   UNL     1       0.829   3.704  -5.916  0.00  0.00    +0.001 A 
ATOM     12  C   UNL     1       1.598   3.185  -6.960  0.00  0.00    +0.002 A 
ATOM     13  C   UNL     1       1.734   1.850  -7.153  0.00  0.00    +0.026 A 
ATOM     14  C   UNL     1       1.086   0.941  -6.278  0.00  0.00    +0.043 A 
ATOM     15  N   UNL     1       1.061  -0.378  -6.251  0.00  0.00    -0.380 N 
ATOM     16  C   UNL     1       0.235  -0.824  -5.125  0.00  0.00    +0.154 C 
ATOM     17  H   UNL     1       1.520  -0.960  -6.876  0.00  0.00    +0.160 HD
ENDBRANCH   5   8
ENDBRANCH   1   2
BRANCH   1  19
ATOM     18  C   UNL     1      -0.019   1.526   0.010  0.00  0.00    +0.029 C 
ATOM     19  C   UNL     1       0.002  -0.004   0.002  0.00  0.00    +0.135 C 
BRANCH  19  20
ATOM     20  C   UNL     1       0.731  -0.503   1.223  0.00  0.00    +0.233 C 
ATOM     21  O   UNL     1       0.105  -0.891   2.186  0.00  0.00    -0.274 OA
ATOM     22  N   UNL     1       2.079  -0.519   1.244  0.00  0.00    -0.239 N 
ATOM     23  C   UNL     1       2.730  -0.965   2.336  0.00  0.00    +0.306 C 
ATOM     24  O   UNL     1       2.103  -1.354   3.301  0.00  0.00    -0.252 OA
ATOM     25  N   UNL     1       4.078  -0.981   2.357  0.00  0.00    -0.296 N 
ATOM     26  H   UNL     1       2.579  -0.208   0.473  0.00  0.00    +0.159 HD
ATOM     27  H   UNL     1       4.579  -0.670   1.586  0.00  0.00    +0.151 HD
BRANCH  25  28
ATOM     28  C   UNL     1       4.786  -1.466   3.544  0.00  0.00    +0.074 C 
ATOM     29  C   UNL     1       4.930  -0.326   4.554  0.00  0.00    +0.022 C 
ATOM     30  C   UNL     1       5.670  -0.833   5.793  0.00  0.00    +0.002 C 
ATOM     31  C   UNL     1       7.058  -1.333   5.389  0.00  0.00    +0.000 C 
ATOM     32  C   UNL     1       6.914  -2.474   4.379  0.00  0.00    +0.002 C 
ATOM     33  C   UNL     1       6.174  -1.967   3.140  0.00  0.00    +0.022 C 
ENDBRANCH  25  28
ENDBRANCH  19  20
ENDBRANCH   1  19
TORSDOF 5
