REMARK  Name = ZINC66981486
REMARK  10 active torsions:
REMARK  status: ('A' for Active; 'I' for Inactive)
REMARK    1  A    between atoms: C_1  and  C_2
REMARK    2  A    between atoms: C_5  and  C_30
REMARK    3  A    between atoms: N_8  and  C_10
REMARK    4  A    between atoms: C_10  and  C_11
REMARK    5  A    between atoms: C_11  and  C_12
REMARK    6  A    between atoms: C_12  and  C_13
REMARK    7  A    between atoms: C_13  and  N_14
REMARK    8  A    between atoms: N_17  and  C_18
REMARK    9  A    between atoms: C_20  and  N_26
REMARK   10  A    between atoms: C_27  and  C_29
REMARK                            x       y       z     vdW  Elec       q    Type
REMARK                         _______ _______ _______ _____ _____    ______ ____
ROOT
ATOM      1  N   UNL     1       6.023  -2.543   4.408  0.00  0.00    -0.299 N 
ATOM      2  C   UNL     1       7.345  -2.292   4.491  0.00  0.00    +0.304 C 
ATOM      3  O   UNL     1       7.899  -1.653   3.618  0.00  0.00    -0.253 OA
ATOM      4  N   UNL     1       8.052  -2.749   5.544  0.00  0.00    -0.267 N 
ATOM      5  H   UNL     1       5.581  -3.052   5.105  0.00  0.00    +0.150 HD
ATOM      6  H   UNL     1       7.600  -3.202   6.272  0.00  0.00    +0.156 HD
ENDROOT
BRANCH   4   7
ATOM      7  C   UNL     1       9.442  -2.569   5.585  0.00  0.00    +0.072 A 
ATOM      8  C   UNL     1      10.010  -1.422   5.050  0.00  0.00    +0.052 A 
ATOM      9  C   UNL     1      11.385  -1.247   5.093  0.00  0.00    +0.071 A 
ATOM     10  C   UNL     1      12.191  -2.221   5.672  0.00  0.00    +0.147 A 
ATOM     11  C   UNL     1      11.623  -3.364   6.204  0.00  0.00    +0.080 A 
ATOM     12  C   UNL     1      10.251  -3.538   6.168  0.00  0.00    +0.147 A 
ATOM     13  F   UNL     1       9.698  -4.653   6.694  0.00  0.00    -0.203 F 
ATOM     14  F   UNL     1      13.531  -2.050   5.714  0.00  0.00    -0.203 F 
BRANCH   9  15
ATOM     15  N   UNL     1      11.961  -0.089   4.553  0.00  0.00    -0.283 N 
ATOM     16  C   UNL     1      11.310   1.088   4.634  0.00  0.00    +0.214 C 
ATOM     17  O   UNL     1      10.191   1.132   5.100  0.00  0.00    -0.276 OA
ATOM     18  C   UNL     1      11.972   2.350   4.144  0.00  0.00    +0.109 C 
ATOM     19  H   UNL     1      12.829  -0.135   4.122  0.00  0.00    +0.155 HD
ENDBRANCH   9  15
ENDBRANCH   4   7
BRANCH   1  20
ATOM     20  C   UNL     1       5.254  -2.046   3.264  0.00  0.00    +0.105 C 
BRANCH  20  21
ATOM     21  C   UNL     1       3.791  -2.465   3.412  0.00  0.00    +0.017 C 
BRANCH  21  22
ATOM     22  C   UNL     1       2.988  -1.946   2.218  0.00  0.00    -0.017 C 
BRANCH  22  23
ATOM     23  C   UNL     1       1.524  -2.366   2.366  0.00  0.00    -0.079 C 
BRANCH  23  29
ATOM     24  C   UNL     1       0.010   1.655   0.019  0.00  0.00    +0.005 C 
ATOM     25  C   UNL     1       0.016   0.125  -0.001  0.00  0.00    -0.031 C 
ATOM     26  C   UNL     1      -1.426  -0.392   0.009  0.00  0.00    +0.003 C 
ATOM     27  C   UNL     1      -1.409  -1.922   0.067  0.00  0.00    -0.031 C 
ATOM     28  C   UNL     1      -0.624  -2.371   1.301  0.00  0.00    -0.076 C 
ATOM     29  N   UNL     1       0.753  -1.868   1.219  0.00  0.00    +0.380 N 
ATOM     30  C   UNL     1       0.749  -0.400   1.235  0.00  0.00    -0.076 C 
ATOM     31  C   UNL     1      -2.844  -2.446   0.155  0.00  0.00    +0.005 C 
ATOM     32  H   UNL     1       1.178  -2.192   0.364  0.00  0.00    -0.082 HD
ENDBRANCH  23  29
ENDBRANCH  22  23
ENDBRANCH  21  22
ENDBRANCH  20  21
ENDBRANCH   1  20
TORSDOF 7
