REMARK  Name = ZINC03876230
REMARK  5 active torsions:
REMARK  status: ('A' for Active; 'I' for Inactive)
REMARK    1  A    between atoms: C_4  and  C_7
REMARK    2  A    between atoms: C_7  and  N_8
REMARK    3  A    between atoms: P_11  and  N_22
REMARK    4  A    between atoms: N_22  and  C_23
REMARK    5  A    between atoms: C_23  and  C_24
REMARK                            x       y       z     vdW  Elec       q    Type
REMARK                         _______ _______ _______ _____ _____    ______ ____
ROOT
ATOM      1  N   UNL     1       4.152  -0.952   1.338  0.00  0.00    -0.325 N 
ATOM      2  C   UNL     1       5.340  -1.617   1.575  0.00  0.00    +0.125 C 
ATOM      3  N   UNL     1       6.074  -2.022   0.566  0.00  0.00    -0.321 N 
ATOM      4  P   UNL     1       7.467  -2.856   0.818  0.00  0.00    +0.163 P 
ATOM      5  S   UNL     1       7.129  -4.686   0.710  0.00  0.00    -0.008 S 
ATOM      6  N   UNL     1       8.037  -2.485   2.324  0.00  0.00    -0.276 N 
ATOM      7  C   UNL     1       7.056  -2.271   3.298  0.00  0.00    +0.130 A 
ATOM      8  C   UNL     1       5.777  -1.860   2.947  0.00  0.00    +0.120 A 
ATOM      9  N   UNL     1       5.075  -1.753   4.131  0.00  0.00    -0.325 N 
ATOM     10  C   UNL     1       5.928  -2.073   5.124  0.00  0.00    +0.089 A 
ATOM     11  N   UNL     1       7.098  -2.387   4.615  0.00  0.00    -0.331 N 
ATOM     12  C   UNL     1       5.226  -1.968   6.463  0.00  0.00    +0.074 C 
ATOM     13  C   UNL     1       3.960  -1.133   6.165  0.00  0.00    +0.029 C 
ATOM     14  C   UNL     1       3.746  -1.416   4.663  0.00  0.00    +0.124 C 
ATOM     15  H   UNL     1       3.610  -0.648   2.082  0.00  0.00    +0.148 HD
ATOM     16  H   UNL     1       8.985  -2.420   2.519  0.00  0.00    +0.155 HD
ATOM     17  H   UNL     1       5.791  -1.827  -0.341  0.00  0.00    +0.168 HD
ATOM     18  H   UNL     1       7.877  -2.652   5.129  0.00  0.00    +0.168 HD
ENDROOT
BRANCH   4  19
ATOM     19  N   UNL     1       8.575  -2.433  -0.315  0.00  0.00    -0.257 NA
ATOM     20  H   UNL     1       8.348  -1.778  -0.993  0.00  0.00    +0.130 HD
BRANCH  19  21
ATOM     21  C   UNL     1       9.906  -3.044  -0.302  0.00  0.00    +0.123 C 
BRANCH  21  22
ATOM     22  C   UNL     1      10.287  -3.448  -1.703  0.00  0.00    -0.033 A 
ATOM     23  C   UNL     1       9.961  -4.706  -2.173  0.00  0.00    +0.005 A 
ATOM     24  C   UNL     1      10.311  -5.076  -3.458  0.00  0.00    +0.000 A 
ATOM     25  C   UNL     1      10.986  -4.188  -4.273  0.00  0.00    +0.000 A 
ATOM     26  C   UNL     1      11.311  -2.929  -3.804  0.00  0.00    +0.000 A 
ATOM     27  C   UNL     1      10.958  -2.557  -2.520  0.00  0.00    +0.005 A 
ENDBRANCH  21  22
ENDBRANCH  19  21
ENDBRANCH   4  19
BRANCH   1  28
ATOM     28  C   UNL     1       3.711  -0.707  -0.038  0.00  0.00    +0.138 C 
BRANCH  28  32
ATOM     29  C   UNL     1      -0.017   1.378   0.010  0.00  0.00    +0.000 A 
ATOM     30  C   UNL     1       1.171   2.086   0.002  0.00  0.00    +0.000 A 
ATOM     31  C   UNL     1       2.377   1.411  -0.013  0.00  0.00    +0.005 A 
ATOM     32  C   UNL     1       2.396   0.029  -0.020  0.00  0.00    -0.030 A 
ATOM     33  C   UNL     1       1.208  -0.679  -0.012  0.00  0.00    +0.005 A 
ATOM     34  C   UNL     1       0.002  -0.004   0.002  0.00  0.00    +0.000 A 
ENDBRANCH  28  32
ENDBRANCH   1  28
TORSDOF 5
