REMARK  Name = ZINC42362313
REMARK  9 active torsions:
REMARK  status: ('A' for Active; 'I' for Inactive)
REMARK    1  A    between atoms: C_1  and  N_2
REMARK    2  A    between atoms: N_2  and  C_3
REMARK    3  A    between atoms: N_2  and  C_15
REMARK    4  A    between atoms: C_3  and  C_4
REMARK    5  A    between atoms: C_4  and  O_5
REMARK    6  A    between atoms: O_5  and  C_6
REMARK    7  A    between atoms: C_9  and  C_12
REMARK    8  A    between atoms: C_12  and  N_14
REMARK    9  A    between atoms: C_15  and  C_16
REMARK                            x       y       z     vdW  Elec       q    Type
REMARK                         _______ _______ _______ _____ _____    ______ ____
ROOT
ATOM      1  C   UNL     1       2.159  -0.053  -1.157  0.00  0.00    +0.210 C 
ENDROOT
BRANCH   1   2
ATOM      2  C   UNL     1       0.690  -0.478  -1.207  0.00  0.00    -0.037 C 
BRANCH   2   4
ATOM      3  C   UNL     1      -0.018   1.465   0.010  0.00  0.00    -0.096 C 
ATOM      4  N   UNL     1       0.002  -0.004   0.002  0.00  0.00    +0.383 N 
ATOM      5  H   UNL     1       0.490  -0.338   0.820  0.00  0.00    -0.082 HD
BRANCH   4   6
ATOM      6  C   UNL     1      -1.376  -0.512   0.012  0.00  0.00    -0.043 C 
BRANCH   6   7
ATOM      7  C   UNL     1      -2.043  -0.130   1.309  0.00  0.00    -0.056 A 
ATOM      8  C   UNL     1      -1.970  -0.965   2.408  0.00  0.00    +0.024 A 
ATOM      9  C   UNL     1      -2.582  -0.591   3.559  0.00  0.00    +0.055 A 
ATOM     10  S   UNL     1      -3.289   0.985   3.106  0.00  0.00    -0.090 S 
ATOM     11  C   UNL     1      -2.718   1.040   1.416  0.00  0.00    +0.048 A 
ATOM     12 BR   UNL     1      -2.664  -1.501   5.215  0.00  0.00    -0.043 Br
ENDBRANCH   6   7
ENDBRANCH   4   6
ENDBRANCH   2   4
ENDBRANCH   1   2
BRANCH   1  13
ATOM     13  O   UNL     1       2.809  -0.713  -0.069  0.00  0.00    -0.494 OA
BRANCH  13  14
ATOM     14  C   UNL     1       4.126  -0.445   0.116  0.00  0.00    +0.120 A 
ATOM     15  C   UNL     1       4.778   0.443  -0.732  0.00  0.00    +0.046 A 
ATOM     16  C   UNL     1       6.115   0.719  -0.547  0.00  0.00    +0.014 A 
ATOM     17  C   UNL     1       6.816   0.104   0.494  0.00  0.00    +0.003 A 
ATOM     18  C   UNL     1       6.156  -0.787   1.345  0.00  0.00    +0.014 A 
ATOM     19  C   UNL     1       4.818  -1.054   1.157  0.00  0.00    +0.046 A 
BRANCH  17  20
ATOM     20  C   UNL     1       8.247   0.396   0.695  0.00  0.00    +0.077 C 
ATOM     21  S   UNL     1       8.854   1.965   0.378  0.00  0.00    -0.035 S 
BRANCH  20  22
ATOM     22  N   UNL     1       9.078  -0.573   1.128  0.00  0.00    -0.352 N 
ATOM     23  H   UNL     1       8.734  -1.462   1.308  0.00  0.00    +0.143 HD
ATOM     24  H   UNL     1      10.019  -0.381   1.260  0.00  0.00    +0.143 HD
ENDBRANCH  20  22
ENDBRANCH  17  20
ENDBRANCH  13  14
ENDBRANCH   1  13
TORSDOF 8
