REMARK  Name = ZINC13727330
REMARK  11 active torsions:
REMARK  status: ('A' for Active; 'I' for Inactive)
REMARK    1  A    between atoms: C_1  and  C_2
REMARK    2  A    between atoms: C_2  and  O_3
REMARK    3  A    between atoms: O_3  and  C_4
REMARK    4  A    between atoms: C_7  and  C_11
REMARK    5  A    between atoms: C_11  and  N_39
REMARK    6  A    between atoms: C_12  and  C_13
REMARK    7  A    between atoms: C_12  and  N_39
REMARK    8  A    between atoms: C_13  and  C_14
REMARK    9  A    between atoms: C_14  and  C_15
REMARK   10  A    between atoms: C_15  and  C_16
REMARK   11  A    between atoms: C_16  and  O_17
REMARK                            x       y       z     vdW  Elec       q    Type
REMARK                         _______ _______ _______ _____ _____    ______ ____
ROOT
ATOM      1  C   UNL     1      -0.793   3.332   1.349  0.00  0.00    +0.148 A 
ATOM      2  C   UNL     1       0.195   4.030   2.027  0.00  0.00    +0.061 A 
ATOM      3  C   UNL     1       0.087   5.399   2.187  0.00  0.00    +0.020 A 
ATOM      4  C   UNL     1      -1.010   6.071   1.681  0.00  0.00    -0.062 A 
ATOM      5  C   UNL     1      -1.999   5.377   1.008  0.00  0.00    +0.020 A 
ATOM      6  C   UNL     1      -1.893   4.009   0.841  0.00  0.00    +0.061 A 
ATOM      7 BR   UNL     1      -3.246   3.061  -0.079  0.00  0.00    -0.046 Br
ATOM      8 BR   UNL     1       1.692   3.111   2.728  0.00  0.00    -0.046 Br
ENDROOT
BRANCH   1   9
ATOM      9  O   UNL     1      -0.688   1.987   1.186  0.00  0.00    -0.490 OA
BRANCH   9  11
ATOM     10  C   UNL     1       0.002  -0.004   0.002  0.00  0.00    +0.048 C 
ATOM     11  C   UNL     1      -0.019   1.526   0.010  0.00  0.00    +0.226 C 
ENDBRANCH   9  11
ENDBRANCH   1   9
BRANCH   4  12
ATOM     12  C   UNL     1      -1.128   7.562   1.862  0.00  0.00    -0.047 C 
BRANCH  12  13
ATOM     13  N   UNL     1      -1.843   7.841   3.122  0.00  0.00    +0.382 N 
ATOM     14  H   UNL     1      -1.318   7.435   3.906  0.00  0.00    -0.085 HD
ATOM     15  H   UNL     1      -2.778   7.420   3.081  0.00  0.00    -0.085 HD
BRANCH  13  16
ATOM     16  C   UNL     1      -1.973   9.296   3.326  0.00  0.00    -0.082 C 
BRANCH  16  17
ATOM     17  C   UNL     1      -2.717   9.554   4.638  0.00  0.00    -0.019 C 
BRANCH  17  18
ATOM     18  C   UNL     1      -2.857  11.062   4.857  0.00  0.00    +0.000 C 
BRANCH  18  19
ATOM     19  C   UNL     1      -3.600  11.319   6.169  0.00  0.00    +0.028 C 
BRANCH  19  20
ATOM     20  C   UNL     1      -3.740  12.827   6.388  0.00  0.00    +0.156 C 
BRANCH  20  21
ATOM     21  O   UNL     1      -4.435  13.068   7.614  0.00  0.00    -0.395 OA
ATOM     22  H   UNL     1      -4.560  14.005   7.817  0.00  0.00    +0.209 HD
ENDBRANCH  20  21
ENDBRANCH  19  20
ENDBRANCH  18  19
ENDBRANCH  17  18
ENDBRANCH  16  17
ENDBRANCH  13  16
ENDBRANCH  12  13
ENDBRANCH   4  12
TORSDOF 10
