REMARK  Name = ZINC20685506
REMARK  10 active torsions:
REMARK  status: ('A' for Active; 'I' for Inactive)
REMARK    1  A    between atoms: C_1  and  C_2
REMARK    2  A    between atoms: C_2  and  C_3
REMARK    3  A    between atoms: C_8  and  N_9
REMARK    4  A    between atoms: C_10  and  C_12
REMARK    5  A    between atoms: C_12  and  N_13
REMARK    6  A    between atoms: N_13  and  C_14
REMARK    7  A    between atoms: N_13  and  C_15
REMARK    8  A    between atoms: C_15  and  C_17
REMARK    9  A    between atoms: C_15  and  C_18
REMARK   10  A    between atoms: N_23  and  C_24
REMARK                            x       y       z     vdW  Elec       q    Type
REMARK                         _______ _______ _______ _____ _____    ______ ____
ROOT
ATOM      1  C   UNL     1      -8.329   0.896   2.058  0.00  0.00    +0.017 C 
ATOM      2  C   UNL     1      -8.047  -0.607   2.009  0.00  0.00    -0.004 C 
ENDROOT
BRANCH   1   3
ATOM      3  C   UNL     1      -7.026   1.653   2.047  0.00  0.00    +0.207 C 
ATOM      4  O   UNL     1      -6.686   2.288   3.022  0.00  0.00    -0.277 OA
ATOM      5  N   UNL     1      -6.238   1.622   0.955  0.00  0.00    -0.242 N 
ATOM      6  C   UNL     1      -5.072   2.299   0.945  0.00  0.00    +0.306 C 
ATOM      7  O   UNL     1      -4.732   2.936   1.922  0.00  0.00    -0.252 OA
ATOM      8  N   UNL     1      -4.284   2.268  -0.148  0.00  0.00    -0.294 N 
ATOM      9  H   UNL     1      -6.546   1.045   0.070  0.00  0.00    +0.159 HD
ATOM     10  H   UNL     1      -4.592   1.691  -1.032  0.00  0.00    +0.151 HD
BRANCH   8  11
ATOM     11  C   UNL     1      -3.017   3.004  -0.158  0.00  0.00    +0.037 C 
ATOM     12  C   UNL     1      -2.322   2.804  -1.506  0.00  0.00    +0.029 C 
ATOM     13  C   UNL     1      -0.999   3.572  -1.517  0.00  0.00    -0.008 C 
ATOM     14  C   UNL     1      -0.097   3.050  -0.396  0.00  0.00    +0.007 C 
ATOM     15  C   UNL     1      -0.792   3.250   0.952  0.00  0.00    -0.008 C 
ATOM     16  C   UNL     1      -2.115   2.482   0.963  0.00  0.00    +0.029 C 
ATOM     17  C   UNL     1      -1.065   4.739   1.169  0.00  0.00    +0.007 C 
ATOM     18  C   UNL     1      -1.967   5.261   0.049  0.00  0.00    -0.008 C 
ATOM     19  C   UNL     1      -1.272   5.062  -1.300  0.00  0.00    +0.007 C 
ATOM     20  C   UNL     1      -3.290   4.493   0.059  0.00  0.00    +0.029 C 
ENDBRANCH   8  11
ENDBRANCH   1   3
BRANCH   1  21
ATOM     21  N   UNL     1      -9.071   1.215   3.285  0.00  0.00    +0.391 N 
ATOM     22  C   UNL     1     -10.471   0.782   3.182  0.00  0.00    -0.094 C 
ATOM     23  H   UNL     1      -9.064   2.308   3.410  0.00  0.00    -0.080 HD
BRANCH  21  24
ATOM     24  C   UNL     1      -8.422   0.622   4.462  0.00  0.00    +0.020 C 
BRANCH  24  26
ATOM     25  N   UNL     1      -8.622   0.761   6.923  0.00  0.00    -0.287 N 
ATOM     26  C   UNL     1      -9.059   1.167   5.715  0.00  0.00    +0.201 C 
ATOM     27  O   UNL     1      -9.964   1.970   5.635  0.00  0.00    -0.278 OA
ATOM     28  H   UNL     1      -7.864  -0.032   6.997  0.00  0.00    +0.155 HD
BRANCH  25  34
ATOM     29  C   UNL     1      -9.013   0.699   9.306  0.00  0.00    -0.026 A 
ATOM     30  C   UNL     1      -9.519   1.282  10.451  0.00  0.00    +0.005 A 
ATOM     31  C   UNL     1     -10.146   2.512  10.383  0.00  0.00    +0.000 A 
ATOM     32  C   UNL     1     -10.268   3.163   9.169  0.00  0.00    +0.002 A 
ATOM     33  C   UNL     1      -9.760   2.587   8.021  0.00  0.00    +0.023 A 
ATOM     34  C   UNL     1      -9.134   1.349   8.085  0.00  0.00    +0.036 A 
BRANCH  29  36
ATOM     35  C   UNL     1      -6.817  -0.437   9.507  0.00  0.00    +0.009 C 
ATOM     36  C   UNL     1      -8.329  -0.642   9.381  0.00  0.00    +0.033 C 
ENDBRANCH  29  36
ENDBRANCH  25  34
ENDBRANCH  24  26
ENDBRANCH  21  24
ENDBRANCH   1  21
TORSDOF 7
