REMARK  Name = ZINC29033404
REMARK  9 active torsions:
REMARK  status: ('A' for Active; 'I' for Inactive)
REMARK    1  A    between atoms: C_1  and  C_2
REMARK    2  A    between atoms: C_4  and  C_29
REMARK    3  A    between atoms: C_8  and  N_28
REMARK    4  A    between atoms: C_9  and  C_11
REMARK    5  A    between atoms: C_11  and  O_13
REMARK    6  A    between atoms: O_13  and  C_14
REMARK    7  A    between atoms: C_14  and  C_15
REMARK    8  A    between atoms: N_17  and  C_18
REMARK    9  A    between atoms: C_23  and  N_24
REMARK                            x       y       z     vdW  Elec       q    Type
REMARK                         _______ _______ _______ _____ _____    ______ ____
ROOT
ATOM      1  C   UNL     1       4.327  10.590  -0.540  0.00  0.00    +0.348 C 
ATOM      2  O   UNL     1       4.128   9.674   0.236  0.00  0.00    -0.244 OA
ENDROOT
BRANCH   1  11
ATOM      3  C   UNL     1      -1.046  11.661   0.238  0.00  0.00    +0.044 C 
ATOM      4  C   UNL     1      -0.339  12.598  -0.707  0.00  0.00    -0.037 A 
ATOM      5  C   UNL     1      -1.020  13.632  -1.305  0.00  0.00    +0.025 A 
ATOM      6  C   UNL     1      -0.367  14.493  -2.175  0.00  0.00    +0.014 A 
ATOM      7  N   UNL     1       0.914  14.330  -2.439  0.00  0.00    -0.353 N 
ATOM      8  C   UNL     1       1.610  13.356  -1.893  0.00  0.00    +0.088 A 
ATOM      9  C   UNL     1       1.040  12.429  -0.990  0.00  0.00    +0.030 A 
ATOM     10  C   UNL     1       1.955  11.422  -0.478  0.00  0.00    +0.055 A 
ATOM     11  C   UNL     1       3.267  11.457  -0.899  0.00  0.00    +0.119 A 
ATOM     12  S   UNL     1       3.306  12.846  -2.014  0.00  0.00    -0.062 S 
ATOM     13  C   UNL     1      -1.128  15.622  -2.822  0.00  0.00    +0.063 C 
ATOM     14  H   UNL     1       1.354  14.941  -3.051  0.00  0.00    +0.166 HD
BRANCH  10  15
ATOM     15  N   UNL     1       1.520  10.452   0.413  0.00  0.00    -0.356 N 
ATOM     16  H   UNL     1       0.719  10.602   0.940  0.00  0.00    +0.142 HD
ATOM     17  H   UNL     1       2.015   9.624   0.508  0.00  0.00    +0.142 HD
ENDBRANCH  10  15
ENDBRANCH   1  11
BRANCH   1  18
ATOM     18  O   UNL     1       5.559  10.780  -1.059  0.00  0.00    -0.451 OA
BRANCH  18  19
ATOM     19  C   UNL     1       6.581   9.867  -0.652  0.00  0.00    +0.328 C 
BRANCH  19  20
ATOM     20  C   UNL     1       7.878  10.233  -1.328  0.00  0.00    +0.255 C 
ATOM     21  O   UNL     1       7.922  11.181  -2.083  0.00  0.00    -0.272 OA
ATOM     22  N   UNL     1       8.988   9.505  -1.093  0.00  0.00    -0.281 N 
ATOM     23  H   UNL     1       8.950   8.742  -0.496  0.00  0.00    +0.155 HD
BRANCH  22  24
ATOM     24  C   UNL     1      10.195   9.852  -1.710  0.00  0.00    +0.065 A 
ATOM     25  C   UNL     1      10.636  11.169  -1.684  0.00  0.00    +0.045 A 
ATOM     26  C   UNL     1      11.829  11.508  -2.294  0.00  0.00    +0.043 A 
ATOM     27  C   UNL     1      12.583  10.537  -2.931  0.00  0.00    +0.022 A 
ATOM     28  C   UNL     1      12.145   9.226  -2.958  0.00  0.00    +0.036 A 
ATOM     29  C   UNL     1      10.956   8.880  -2.345  0.00  0.00    +0.147 A 
ATOM     30 CL   UNL     1      12.382  13.153  -2.263  0.00  0.00    -0.083 Cl
BRANCH  29  31
ATOM     31  N   UNL     1      10.491   7.475  -2.370  0.00  0.00    +0.058 N 
ATOM     32  O   UNL     1      11.212   6.607  -2.805  0.00  0.00    -0.126 OA
ATOM     33  O   UNL     1       9.391   7.195  -1.956  0.00  0.00    -0.126 OA
ENDBRANCH  29  31
ENDBRANCH  22  24
ENDBRANCH  19  20
ENDBRANCH  18  19
ENDBRANCH   1  18
TORSDOF 7
