REMARK  Name = ZINC12659690
REMARK  12 active torsions:
REMARK  status: ('A' for Active; 'I' for Inactive)
REMARK    1  A    between atoms: C_1  and  C_2
REMARK    2  A    between atoms: C_7  and  C_8
REMARK    3  A    between atoms: C_8  and  C_10
REMARK    4  A    between atoms: C_10  and  C_11
REMARK    5  A    between atoms: C_18  and  O_19
REMARK    6  A    between atoms: O_19  and  C_20
REMARK    7  A    between atoms: C_26  and  N_74
REMARK    8  A    between atoms: C_27  and  C_35
REMARK    9  A    between atoms: C_27  and  C_36
REMARK   10  A    between atoms: C_29  and  C_34
REMARK   11  A    between atoms: C_31  and  C_32
REMARK   12  A    between atoms: C_31  and  C_33
REMARK                            x       y       z     vdW  Elec       q    Type
REMARK                         _______ _______ _______ _____ _____    ______ ____
ROOT
ATOM      1  C   UNL     1      -2.591   3.425   1.197  0.00  0.00    +0.162 C 
ATOM      2  O   UNL     1      -3.532   3.048   0.532  0.00  0.00    -0.292 OA
ENDROOT
BRANCH   1   9
ATOM      3  C   UNL     1      -4.916   5.131   0.858  0.00  0.00    +0.044 C 
ATOM      4  C   UNL     1      -3.729   5.590   1.664  0.00  0.00    -0.040 A 
ATOM      5  C   UNL     1      -3.734   6.833   2.257  0.00  0.00    +0.008 A 
ATOM      6  C   UNL     1      -2.654   7.269   3.018  0.00  0.00    -0.037 A 
ATOM      7  C   UNL     1      -1.538   6.468   3.149  0.00  0.00    -0.037 A 
ATOM      8  C   UNL     1      -1.518   5.217   2.548  0.00  0.00    +0.016 A 
ATOM      9  C   UNL     1      -2.615   4.761   1.814  0.00  0.00    +0.021 A 
ATOM     10  C   UNL     1      -0.305   6.887   3.899  0.00  0.00    -0.009 C 
ATOM     11  C   UNL     1      -0.368   8.305   4.434  0.00  0.00    +0.015 C 
ATOM     12  C   UNL     1      -1.763   8.757   4.823  0.00  0.00    -0.003 C 
ATOM     13  C   UNL     1      -2.745   8.623   3.667  0.00  0.00    -0.007 C 
ATOM     14  C   UNL     1      -4.161   8.835   4.220  0.00  0.00    +0.016 C 
ATOM     15  C   UNL     1      -2.459   9.707   2.624  0.00  0.00    +0.016 C 
ATOM     16  C   UNL     1      -2.290   8.011   6.049  0.00  0.00    +0.008 C 
ATOM     17  C   UNL     1      -0.030   5.900   5.037  0.00  0.00    +0.016 C 
ATOM     18  C   UNL     1       0.889   6.812   2.923  0.00  0.00    +0.016 C 
ENDBRANCH   1   9
BRANCH   1  19
ATOM     19  C   UNL     1      -1.397   2.527   1.391  0.00  0.00    +0.069 C 
BRANCH  19  20
ATOM     20  C   UNL     1      -1.583   1.247   0.573  0.00  0.00    -0.027 C 
ATOM     21  C   UNL     1      -2.898   0.610   0.939  0.00  0.00    -0.012 A 
ATOM     22  C   UNL     1      -3.736   0.073  -0.015  0.00  0.00    -0.040 A 
ATOM     23  C   UNL     1      -4.933  -0.515   0.366  0.00  0.00    +0.053 A 
ATOM     24  C   UNL     1      -5.298  -0.565   1.701  0.00  0.00    +0.170 A 
ATOM     25  C   UNL     1      -4.457  -0.021   2.666  0.00  0.00    +0.208 A 
ATOM     26  C   UNL     1      -3.259   0.566   2.282  0.00  0.00    +0.167 A 
ATOM     27  O   UNL     1      -5.032  -0.192   3.893  0.00  0.00    -0.449 OA
ATOM     28  C   UNL     1      -6.036  -1.207   3.709  0.00  0.00    +0.467 C 
ATOM     29  O   UNL     1      -6.400  -1.079   2.321  0.00  0.00    -0.452 OA
ATOM     30  C   UNL     1      -3.390   0.109  -1.482  0.00  0.00    +0.017 C 
ATOM     31  C   UNL     1      -1.899   0.395  -1.659  0.00  0.00    -0.074 C 
ATOM     32  C   UNL     1      -0.239   2.111  -1.243  0.00  0.00    -0.095 C 
ATOM     33  N   UNL     1      -1.570   1.592  -0.858  0.00  0.00    +0.383 N 
ATOM     34  H   UNL     1      -2.274   2.318  -1.035  0.00  0.00    -0.081 HD
BRANCH  26  35
ATOM     35  O   UNL     1      -2.435   1.099   3.223  0.00  0.00    -0.491 OA
ATOM     36  C   UNL     1      -1.536   0.204   3.881  0.00  0.00    +0.277 C 
ENDBRANCH  26  35
ENDBRANCH  19  20
ENDBRANCH   1  19
TORSDOF 4
