REMARK  Name = ZINC67493101
REMARK  11 active torsions:
REMARK  status: ('A' for Active; 'I' for Inactive)
REMARK    1  A    between atoms: C_1  and  C_2
REMARK    2  A    between atoms: C_2  and  C_3
REMARK    3  A    between atoms: C_3  and  N_4
REMARK    4  A    between atoms: C_10  and  N_13
REMARK    5  A    between atoms: C_14  and  C_16
REMARK    6  A    between atoms: N_18  and  C_19
REMARK    7  A    between atoms: C_19  and  C_20
REMARK    8  A    between atoms: C_25  and  C_26
REMARK    9  A    between atoms: C_26  and  N_27
REMARK   10  A    between atoms: N_27  and  C_28
REMARK   11  A    between atoms: N_27  and  C_29
REMARK                            x       y       z     vdW  Elec       q    Type
REMARK                         _______ _______ _______ _____ _____    ______ ____
ROOT
ATOM      1  N   UNL     1       3.716  -3.898   4.004  0.00  0.00    -0.278 N 
ATOM      2  C   UNL     1       3.897  -4.901   4.886  0.00  0.00    +0.303 C 
ATOM      3  O   UNL     1       2.948  -5.559   5.260  0.00  0.00    -0.265 OA
ATOM      4  H   UNL     1       4.482  -3.425   3.643  0.00  0.00    +0.155 HD
ENDROOT
BRANCH   1  11
ATOM      5  N   UNL     1       2.370  -2.124   0.150  0.00  0.00    +0.385 N 
ATOM      6  C   UNL     1       1.036  -1.790   0.697  0.00  0.00    -0.042 C 
ATOM      7  C   UNL     1       0.946  -2.510   2.024  0.00  0.00    -0.061 A 
ATOM      8  C   UNL     1      -0.134  -2.833   2.824  0.00  0.00    +0.002 A 
ATOM      9  C   UNL     1       0.061  -3.509   4.015  0.00  0.00    +0.002 A 
ATOM     10  C   UNL     1       1.337  -3.864   4.409  0.00  0.00    +0.023 A 
ATOM     11  C   UNL     1       2.424  -3.541   3.608  0.00  0.00    +0.035 A 
ATOM     12  C   UNL     1       2.226  -2.862   2.413  0.00  0.00    -0.041 A 
ATOM     13  C   UNL     1       3.192  -2.384   1.353  0.00  0.00    -0.040 C 
ATOM     14  H   UNL     1       2.321  -2.949  -0.430  0.00  0.00    -0.081 HD
BRANCH   5  15
ATOM     15  C   UNL     1       2.914  -0.991  -0.611  0.00  0.00    -0.078 C 
BRANCH  15  17
ATOM     16  C   UNL     1       2.689   0.357  -2.702  0.00  0.00    +0.002 C 
ATOM     17  C   UNL     1       2.123  -0.823  -1.910  0.00  0.00    -0.022 C 
ENDBRANCH  15  17
ENDBRANCH   5  15
ENDBRANCH   1  11
BRANCH   2  18
ATOM     18  C   UNL     1       5.265  -5.201   5.405  0.00  0.00    +0.300 C 
ATOM     19  O   UNL     1       6.214  -4.543   5.031  0.00  0.00    -0.265 OA
ATOM     20  N   UNL     1       5.446  -6.203   6.287  0.00  0.00    -0.303 N 
ATOM     21  H   UNL     1       4.688  -6.729   6.586  0.00  0.00    +0.149 HD
BRANCH  20  22
ATOM     22  C   UNL     1       6.788  -6.498   6.796  0.00  0.00    +0.140 C 
BRANCH  22  23
ATOM     23  C   UNL     1       6.740  -7.736   7.653  0.00  0.00    -0.029 A 
ATOM     24  C   UNL     1       6.684  -7.622   9.030  0.00  0.00    +0.005 A 
ATOM     25  C   UNL     1       6.639  -8.758   9.816  0.00  0.00    +0.000 A 
ATOM     26  C   UNL     1       6.651 -10.008   9.225  0.00  0.00    +0.000 A 
ATOM     27  C   UNL     1       6.707 -10.122   7.849  0.00  0.00    +0.002 A 
ATOM     28  C   UNL     1       6.747  -8.986   7.062  0.00  0.00    -0.059 A 
BRANCH  28  29
ATOM     29  C   UNL     1       6.802  -9.110   5.562  0.00  0.00    -0.043 C 
BRANCH  29  30
ATOM     30  N   UNL     1       5.452  -8.946   5.006  0.00  0.00    +0.379 N 
ATOM     31  C   UNL     1       5.524  -8.935   3.539  0.00  0.00    -0.096 C 
ATOM     32  C   UNL     1       4.603 -10.060   5.447  0.00  0.00    -0.096 C 
ATOM     33  H   UNL     1       5.059  -8.075   5.330  0.00  0.00    -0.082 HD
ENDBRANCH  29  30
ENDBRANCH  28  29
ENDBRANCH  22  23
ENDBRANCH  20  22
ENDBRANCH   2  18
TORSDOF 8
