REMARK  Name = ZINC25145828
REMARK  8 active torsions:
REMARK  status: ('A' for Active; 'I' for Inactive)
REMARK    1  A    between atoms: C_1  and  C_2
REMARK    2  A    between atoms: C_6  and  C_8
REMARK    3  A    between atoms: C_8  and  O_9
REMARK    4  A    between atoms: O_9  and  C_10
REMARK    5  A    between atoms: C_10  and  C_12
REMARK    6  A    between atoms: C_10  and  C_30
REMARK    7  A    between atoms: C_12  and  N_13
REMARK    8  A    between atoms: C_19  and  C_21
REMARK                            x       y       z     vdW  Elec       q    Type
REMARK                         _______ _______ _______ _____ _____    ______ ____
ROOT
ATOM      1  C   UNL     1      -2.584  -2.745   1.314  0.00  0.00    -0.042 C 
ENDROOT
BRANCH   1   2
ATOM      2  N   UNL     1      -2.123  -1.783   2.323  0.00  0.00    +0.384 N 
ATOM      3  C   UNL     1      -1.002  -2.329   3.099  0.00  0.00    -0.059 C 
ATOM      4  C   UNL     1      -0.436  -1.236   4.011  0.00  0.00    +0.089 C 
ATOM      5  N   UNL     1      -1.536  -0.681   4.815  0.00  0.00    -0.301 N 
ATOM      6  C   UNL     1      -2.752  -0.238   4.117  0.00  0.00    +0.089 C 
ATOM      7  C   UNL     1      -3.228  -1.370   3.200  0.00  0.00    -0.059 C 
ATOM      8  C   UNL     1      -1.432  -0.581   6.155  0.00  0.00    +0.253 C 
ATOM      9  O   UNL     1      -2.325  -0.062   6.797  0.00  0.00    -0.269 OA
ATOM     10  H   UNL     1      -1.761  -0.887   1.798  0.00  0.00    -0.082 HD
BRANCH   8  11
ATOM     11  C   UNL     1      -0.239  -1.099   6.840  0.00  0.00    +0.075 A 
ATOM     12  C   UNL     1      -0.157  -1.708   8.053  0.00  0.00    +0.029 A 
ATOM     13  C   UNL     1       1.091  -2.141   8.537  0.00  0.00    -0.010 A 
ATOM     14  C   UNL     1       1.379  -2.795   9.763  0.00  0.00    +0.009 A 
ATOM     15  C   UNL     1       2.651  -3.142  10.083  0.00  0.00    +0.001 A 
ATOM     16  C   UNL     1       3.716  -2.875   9.231  0.00  0.00    +0.001 A 
ATOM     17  C   UNL     1       3.481  -2.241   8.028  0.00  0.00    +0.015 A 
ATOM     18  C   UNL     1       2.194  -1.882   7.689  0.00  0.00    +0.020 A 
ATOM     19  S   UNL     1       1.458  -1.075   6.289  0.00  0.00    -0.084 S 
ENDBRANCH   8  11
ENDBRANCH   1   2
BRANCH   1  20
ATOM     20  C   UNL     1      -1.482  -2.960   0.274  0.00  0.00    +0.132 C 
BRANCH  20  21
ATOM     21  C   UNL     1      -1.955  -3.948  -0.761  0.00  0.00    -0.021 A 
ATOM     22  C   UNL     1      -2.709  -3.515  -1.836  0.00  0.00    +0.007 A 
ATOM     23  C   UNL     1      -3.138  -4.419  -2.789  0.00  0.00    +0.020 A 
ATOM     24  C   UNL     1      -2.822  -5.760  -2.661  0.00  0.00    +0.041 A 
ATOM     25  C   UNL     1      -2.072  -6.194  -1.583  0.00  0.00    +0.020 A 
ATOM     26  C   UNL     1      -1.639  -5.288  -0.633  0.00  0.00    +0.007 A 
ATOM     27 CL   UNL     1      -3.367  -6.898  -3.854  0.00  0.00    -0.084 Cl
ENDBRANCH  20  21
BRANCH  20  28
ATOM     28  O   UNL     1      -1.176  -1.717  -0.359  0.00  0.00    -0.369 OA
BRANCH  28  29
ATOM     29  C   UNL     1       0.179  -1.607  -0.800  0.00  0.00    +0.195 C 
BRANCH  29  35
ATOM     30  C   UNL     1       0.144   1.287  -4.882  0.00  0.00    +0.044 C 
ATOM     31  C   UNL     1       0.373   1.121  -3.402  0.00  0.00    -0.050 A 
ATOM     32  C   UNL     1       0.776   2.201  -2.639  0.00  0.00    +0.003 A 
ATOM     33  C   UNL     1       0.987   2.049  -1.282  0.00  0.00    +0.001 A 
ATOM     34  C   UNL     1       0.793   0.816  -0.686  0.00  0.00    +0.006 A 
ATOM     35  C   UNL     1       0.390  -0.264  -1.449  0.00  0.00    -0.022 A 
ATOM     36  C   UNL     1       0.184  -0.112  -2.808  0.00  0.00    +0.009 A 
ENDBRANCH  29  35
ENDBRANCH  28  29
ENDBRANCH  20  28
ENDBRANCH   1  20
TORSDOF 7
