REMARK  Name = ZINC05280915
REMARK  12 active torsions:
REMARK  status: ('A' for Active; 'I' for Inactive)
REMARK    1  A    between atoms: C_1  and  C_2
REMARK    2  A    between atoms: C_2  and  C_3
REMARK    3  A    between atoms: C_2  and  C_4
REMARK    4  A    between atoms: C_4  and  C_6
REMARK    5  A    between atoms: C_4  and  S_12
REMARK    6  A    between atoms: S_12  and  C_13
REMARK    7  A    between atoms: C_16  and  C_25
REMARK    8  A    between atoms: N_17  and  C_18
REMARK    9  A    between atoms: C_25  and  C_27
REMARK   10  A    between atoms: C_25  and  N_53
REMARK   11  A    between atoms: C_28  and  N_53
REMARK   12  A    between atoms: C_29  and  N_53
REMARK                            x       y       z     vdW  Elec       q    Type
REMARK                         _______ _______ _______ _____ _____    ______ ____
ROOT
ATOM      1  C   UNL     1      -0.228  -2.491   3.015  0.00  0.00    +0.197 A 
ATOM      2  N   UNL     1       0.233  -2.461   1.786  0.00  0.00    -0.122 NA
ATOM      3  N   UNL     1       0.370  -1.243   1.400  0.00  0.00    -0.135 NA
ATOM      4  C   UNL     1       0.008  -0.427   2.350  0.00  0.00    +0.125 A 
ATOM      5  N   UNL     1      -0.381  -1.193   3.417  0.00  0.00    -0.275 N 
ENDROOT
BRANCH   5   6
ATOM      6  C   UNL     1      -0.844  -0.740   4.661  0.00  0.00    +0.050 A 
ATOM      7  C   UNL     1       0.004  -0.033   5.503  0.00  0.00    +0.028 A 
ATOM      8  C   UNL     1      -0.456   0.416   6.725  0.00  0.00    +0.022 A 
ATOM      9  C   UNL     1      -1.757   0.154   7.116  0.00  0.00    +0.041 A 
ATOM     10  C   UNL     1      -2.603  -0.555   6.280  0.00  0.00    +0.022 A 
ATOM     11  C   UNL     1      -2.149  -1.002   5.055  0.00  0.00    +0.028 A 
ATOM     12 CL   UNL     1      -2.330   0.715   8.655  0.00  0.00    -0.084 Cl
ENDBRANCH   5   6
BRANCH   4  13
ATOM     13  C   UNL     1       0.022   1.078   2.288  0.00  0.00    -0.003 C 
ATOM     14  C   UNL     1       1.463   1.580   2.408  0.00  0.00    -0.005 C 
BRANCH  13  17
ATOM     15  C   UNL     1       0.245   1.017  -0.122  0.00  0.00    -0.096 C 
ATOM     16  C   UNL     1      -0.658   2.985   0.961  0.00  0.00    -0.096 C 
ATOM     17  N   UNL     1      -0.573   1.510   1.006  0.00  0.00    +0.382 N 
ATOM     18  H   UNL     1      -1.519   1.119   0.928  0.00  0.00    -0.082 HD
ENDBRANCH  13  17
ENDBRANCH   4  13
BRANCH   1  19
ATOM     19  S   UNL     1      -0.575  -3.932   3.969  0.00  0.00    -0.073 S 
BRANCH  19  20
ATOM     20  C   UNL     1      -0.241  -5.213   2.735  0.00  0.00    +0.143 C 
BRANCH  20  21
ATOM     21  C   UNL     1       1.232  -5.234   2.419  0.00  0.00    +0.234 C 
ATOM     22  O   UNL     1       2.033  -4.828   3.233  0.00  0.00    -0.274 OA
ATOM     23  N   UNL     1       1.659  -5.705   1.230  0.00  0.00    -0.239 N 
ATOM     24  C   UNL     1       2.977  -5.723   0.947  0.00  0.00    +0.303 C 
ATOM     25  O   UNL     1       3.780  -5.316   1.763  0.00  0.00    -0.253 OA
ATOM     26  N   UNL     1       3.404  -6.194  -0.242  0.00  0.00    -0.313 N 
ATOM     27  H   UNL     1       1.018  -6.030   0.579  0.00  0.00    +0.159 HD
ATOM     28  H   UNL     1       2.763  -6.519  -0.893  0.00  0.00    +0.146 HD
ATOM     29  H   UNL     1       4.352  -6.207  -0.446  0.00  0.00    +0.146 HD
ENDBRANCH  20  21
BRANCH  20  31
ATOM     30  C   UNL     1      -2.160  -6.557   3.606  0.00  0.00    +0.009 C 
ATOM     31  C   UNL     1      -0.663  -6.576   3.289  0.00  0.00    +0.005 C 
ATOM     32  C   UNL     1      -0.376  -7.660   2.248  0.00  0.00    +0.009 C 
ENDBRANCH  20  31
ENDBRANCH  19  20
ENDBRANCH   1  19
TORSDOF 7
