REMARK  Name = ZINC56129605
REMARK  11 active torsions:
REMARK  status: ('A' for Active; 'I' for Inactive)
REMARK    1  A    between atoms: C_1  and  C_2
REMARK    2  A    between atoms: C_2  and  C_3
REMARK    3  A    between atoms: C_2  and  C_4
REMARK    4  A    between atoms: C_2  and  N_19
REMARK    5  A    between atoms: C_4  and  N_5
REMARK    6  A    between atoms: C_6  and  C_8
REMARK    7  A    between atoms: C_8  and  N_9
REMARK    8  A    between atoms: N_12  and  C_13
REMARK    9  A    between atoms: C_13  and  C_14
REMARK   10  A    between atoms: N_19  and  C_20
REMARK   11  A    between atoms: N_19  and  C_21
REMARK                            x       y       z     vdW  Elec       q    Type
REMARK                         _______ _______ _______ _____ _____    ______ ____
ROOT
ATOM      1  C   UNL     1      -2.551  -4.195   0.004  0.00  0.00    +0.201 C 
ENDROOT
BRANCH   1   2
ATOM      2  N   UNL     1      -3.925  -4.702   0.014  0.00  0.00    -0.291 N 
ATOM      3  C   UNL     1      -4.154  -6.030   0.009  0.00  0.00    +0.300 C 
ATOM      4  O   UNL     1      -3.219  -6.808  -0.004  0.00  0.00    -0.253 OA
ATOM      5  N   UNL     1      -5.418  -6.497   0.019  0.00  0.00    -0.292 N 
ATOM      6  H   UNL     1      -4.671  -4.082   0.025  0.00  0.00    +0.151 HD
ATOM      7  H   UNL     1      -6.164  -5.877   0.029  0.00  0.00    +0.151 HD
BRANCH   5   8
ATOM      8  C   UNL     1      -5.666  -7.941   0.013  0.00  0.00    +0.180 C 
BRANCH   8   9
ATOM      9  C   UNL     1      -7.151  -8.195   0.026  0.00  0.00    +0.122 A 
ATOM     10  C   UNL     1      -7.936  -8.328  -1.058  0.00  0.00    +0.046 A 
ATOM     11  C   UNL     1      -9.250  -8.553  -0.588  0.00  0.00    +0.041 A 
ATOM     12  C   UNL     1      -9.190  -8.546   0.756  0.00  0.00    +0.195 A 
ATOM     13  O   UNL     1      -7.915  -8.334   1.122  0.00  0.00    -0.466 OA
ENDBRANCH   8   9
ENDBRANCH   5   8
ENDBRANCH   1   2
BRANCH   1  15
ATOM     14  N   UNL     1      -1.413  -1.998   0.005  0.00  0.00    -0.315 N 
ATOM     15  C   UNL     1      -2.571  -2.688   0.012  0.00  0.00    +0.230 C 
ATOM     16  O   UNL     1      -3.630  -2.096   0.025  0.00  0.00    -0.274 OA
ATOM     17  H   UNL     1      -0.567  -2.472  -0.006  0.00  0.00    +0.149 HD
BRANCH  14  18
ATOM     18  C   UNL     1      -1.433  -0.534   0.013  0.00  0.00    +0.092 C 
BRANCH  18  20
ATOM     19  C   UNL     1      -0.019   1.526   0.010  0.00  0.00    -0.008 C 
ATOM     20  C   UNL     1       0.002  -0.004   0.002  0.00  0.00    -0.056 C 
ATOM     21  C   UNL     1       0.742  -0.511   1.242  0.00  0.00    -0.008 C 
BRANCH  20  22
ATOM     22  N   UNL     1       0.690  -0.478  -1.207  0.00  0.00    +0.380 N 
ATOM     23  C   UNL     1      -0.021   0.009  -2.397  0.00  0.00    -0.096 C 
ATOM     24  C   UNL     1       2.068   0.031  -1.217  0.00  0.00    -0.096 C 
ATOM     25  H   UNL     1       0.703  -1.487  -1.212  0.00  0.00    -0.082 HD
ENDBRANCH  20  22
ENDBRANCH  18  20
ENDBRANCH  14  18
ENDBRANCH   1  15
TORSDOF 7
