REMARK  Name = ZINC32699298
REMARK  8 active torsions:
REMARK  status: ('A' for Active; 'I' for Inactive)
REMARK    1  A    between atoms: C_1  and  C_2
REMARK    2  A    between atoms: C_5  and  S_8
REMARK    3  A    between atoms: S_8  and  N_11
REMARK    4  A    between atoms: N_11  and  C_12
REMARK    5  A    between atoms: C_15  and  O_36
REMARK    6  A    between atoms: C_16  and  C_18
REMARK    7  A    between atoms: C_19  and  N_30
REMARK    8  A    between atoms: C_21  and  C_22
REMARK                            x       y       z     vdW  Elec       q    Type
REMARK                         _______ _______ _______ _____ _____    ______ ____
ROOT
ATOM      1  C   UNL     1      -3.368  -1.445   1.925  0.00  0.00    +0.049 A 
ATOM      2  C   UNL     1      -3.457  -1.202   3.291  0.00  0.00    +0.028 A 
ATOM      3  C   UNL     1      -2.452  -0.511   3.944  0.00  0.00    +0.048 A 
ATOM      4  C   UNL     1      -1.349  -0.059   3.243  0.00  0.00    +0.124 A 
ATOM      5  C   UNL     1      -1.254  -0.295   1.863  0.00  0.00    +0.023 A 
ATOM      6  C   UNL     1      -2.272  -0.995   1.208  0.00  0.00    +0.036 A 
ENDROOT
BRANCH   5   7
ATOM      7  C   UNL     1      -0.086   0.185   1.110  0.00  0.00    -0.017 C 
ATOM      8  C   UNL     1       0.041   1.424   0.591  0.00  0.00    +0.021 C 
ATOM      9  C   UNL     1       1.316   1.595  -0.100  0.00  0.00    -0.027 C 
ATOM     10  C   UNL     1       1.740   2.714  -0.722  0.00  0.00    +0.013 C 
ATOM     11  C   UNL     1       2.075   0.291   0.007  0.00  0.00    +0.041 C 
ATOM     12  C   UNL     1       1.143  -0.634   0.807  0.00  0.00    +0.042 C 
BRANCH   8  13
ATOM     13  N   UNL     1      -0.931   2.419   0.696  0.00  0.00    -0.389 NA
ATOM     14  C   UNL     1      -2.238   2.274   0.036  0.00  0.00    +0.113 C 
ATOM     15  C   UNL     1      -3.334   2.554   1.076  0.00  0.00    +0.177 C 
ATOM     16  O   UNL     1      -3.075   3.813   1.702  0.00  0.00    -0.377 OA
ATOM     17  C   UNL     1      -1.847   3.863   2.432  0.00  0.00    +0.177 C 
ATOM     18  C   UNL     1      -0.677   3.647   1.465  0.00  0.00    +0.113 C 
ATOM     19  H   UNL     1      -0.186   1.610   0.660  0.00  0.00    +0.127 HD
ENDBRANCH   8  13
BRANCH  10  20
ATOM     20  C   UNL     1       0.772   3.755  -1.103  0.00  0.00    -0.025 A 
ATOM     21  C   UNL     1      -0.410   3.408  -1.763  0.00  0.00    +0.008 A 
ATOM     22  C   UNL     1      -1.314   4.389  -2.113  0.00  0.00    +0.001 A 
ATOM     23  C   UNL     1      -1.048   5.716  -1.822  0.00  0.00    +0.000 A 
ATOM     24  C   UNL     1       0.123   6.068  -1.173  0.00  0.00    +0.001 A 
ATOM     25  C   UNL     1       1.034   5.098  -0.813  0.00  0.00    +0.008 A 
ENDBRANCH  10  20
ENDBRANCH   5   7
BRANCH   1  26
ATOM     26  N   UNL     1      -4.389  -2.146   1.273  0.00  0.00    -0.216 N 
ATOM     27  H   UNL     1      -4.791  -1.772   0.320  0.00  0.00    +0.174 HD
BRANCH  26  28
ATOM     28  S   UNL     1      -4.992  -3.538   1.937  0.00  0.00    +0.072 S 
ATOM     29  O   UNL     1      -5.355  -3.227   3.275  0.00  0.00    -0.150 OA
ATOM     30  O   UNL     1      -5.920  -4.066   0.999  0.00  0.00    -0.150 OA
BRANCH  28  35
ATOM     31  C   UNL     1      -0.433  -7.478   2.259  0.00  0.00    +0.044 C 
ATOM     32  C   UNL     1      -1.572  -6.495   2.179  0.00  0.00    -0.050 A 
ATOM     33  C   UNL     1      -1.890  -5.714   3.274  0.00  0.00    +0.005 A 
ATOM     34  C   UNL     1      -2.934  -4.811   3.200  0.00  0.00    +0.029 A 
ATOM     35  C   UNL     1      -3.661  -4.689   2.031  0.00  0.00    +0.109 A 
ATOM     36  C   UNL     1      -3.347  -5.473   0.937  0.00  0.00    +0.029 A 
ATOM     37  C   UNL     1      -2.300  -6.373   1.009  0.00  0.00    +0.005 A 
ENDBRANCH  28  35
ENDBRANCH  26  28
ENDBRANCH   1  26
BRANCH   4  38
ATOM     38  O   UNL     1      -0.360   0.615   3.888  0.00  0.00    -0.506 OA
ATOM     39  H   UNL     1       0.517   0.974   3.329  0.00  0.00    +0.292 HD
ENDBRANCH   4  38
TORSDOF 7
