REMARK  Name = ZINC19166858
REMARK  3 active torsions:
REMARK  status: ('A' for Active; 'I' for Inactive)
REMARK    1  A    between atoms: C_1  and  C_2
REMARK    2  A    between atoms: C_5  and  C_12
REMARK    3  A    between atoms: N_20  and  C_23
REMARK                            x       y       z     vdW  Elec       q    Type
REMARK                         _______ _______ _______ _____ _____    ______ ____
ROOT
ATOM      1  C   UNL     1       1.923   0.293   2.165  0.00  0.00    +0.040 C 
ATOM      2  C   UNL     1       1.445   1.696   1.786  0.00  0.00    +0.123 C 
ATOM      3  C   UNL     1       1.189   1.908   0.239  0.00  0.00    +0.129 C 
ATOM      4  C   UNL     1      -0.013   1.086   0.008  0.00  0.00    +0.117 C 
ATOM      5  N   UNL     1      -0.777   1.247   1.284  0.00  0.00    -0.231 NA
ATOM      6  N   UNL     1       0.076   1.978   2.231  0.00  0.00    -0.224 NA
ATOM      7  C   UNL     1      -0.286   3.398   2.023  0.00  0.00    +0.105 C 
ATOM      8  C   UNL     1      -1.802   3.361   1.824  0.00  0.00    +0.034 C 
ATOM      9  C   UNL     1      -1.990   2.040   1.044  0.00  0.00    +0.104 C 
ATOM     10  C   UNL     1       2.542   2.025  -0.258  0.00  0.00    +0.233 C 
ATOM     11  O   UNL     1       2.979   1.627  -1.316  0.00  0.00    -0.274 OA
ATOM     12  N   UNL     1       3.220   2.688   0.733  0.00  0.00    -0.208 N 
ATOM     13  C   UNL     1       2.522   2.741   1.906  0.00  0.00    +0.248 C 
ATOM     14  O   UNL     1       2.727   3.477   2.848  0.00  0.00    -0.273 OA
ENDROOT
BRANCH   4  15
ATOM     15  C   UNL     1      -0.803   1.613  -1.162  0.00  0.00    -0.028 A 
ATOM     16  C   UNL     1      -1.735   0.806  -1.787  0.00  0.00    +0.005 A 
ATOM     17  C   UNL     1      -2.462   1.291  -2.857  0.00  0.00    +0.000 A 
ATOM     18  C   UNL     1      -2.252   2.580  -3.309  0.00  0.00    +0.000 A 
ATOM     19  C   UNL     1      -1.316   3.386  -2.687  0.00  0.00    +0.000 A 
ATOM     20  C   UNL     1      -0.592   2.902  -1.614  0.00  0.00    +0.005 A 
ENDBRANCH   4  15
BRANCH  12  21
ATOM     21  C   UNL     1       4.493   3.250   0.561  0.00  0.00    +0.044 A 
ATOM     22  C   UNL     1       5.111   3.909   1.615  0.00  0.00    +0.024 A 
ATOM     23  C   UNL     1       6.368   4.456   1.444  0.00  0.00    +0.002 A 
ATOM     24  C   UNL     1       7.006   4.357   0.222  0.00  0.00    +0.000 A 
ATOM     25  C   UNL     1       6.391   3.706  -0.832  0.00  0.00    +0.002 A 
ATOM     26  C   UNL     1       5.137   3.152  -0.665  0.00  0.00    +0.024 A 
ENDBRANCH  12  21
TORSDOF 2
