REMARK  Name = ZINC65406136
REMARK  8 active torsions:
REMARK  status: ('A' for Active; 'I' for Inactive)
REMARK    1  A    between atoms: C_4  and  C_7
REMARK    2  A    between atoms: C_8  and  C_21
REMARK    3  A    between atoms: N_9  and  C_12
REMARK    4  A    between atoms: C_18  and  O_20
REMARK    5  A    between atoms: C_24  and  O_27
REMARK    6  A    between atoms: O_27  and  C_28
REMARK    7  A    between atoms: C_28  and  C_29
REMARK    8  A    between atoms: C_29  and  O_30
REMARK                            x       y       z     vdW  Elec       q    Type
REMARK                         _______ _______ _______ _____ _____    ______ ____
ROOT
ATOM      1  C   UNL     1       3.706  -0.671  -0.059  0.00  0.00    +0.072 A 
ATOM      2  C   UNL     1       3.991  -1.824  -0.767  0.00  0.00    +0.075 A 
ATOM      3  N   UNL     1       5.289  -2.155  -0.456  0.00  0.00    -0.326 N 
ATOM      4  C   UNL     1       5.748  -1.218   0.412  0.00  0.00    +0.175 A 
ATOM      5  N   UNL     1       4.810  -0.341   0.638  0.00  0.00    -0.345 N 
ATOM      6  H   UNL     1       4.894   0.429   1.221  0.00  0.00    +0.167 HD
ENDROOT
BRANCH   1  10
ATOM      7  C   UNL     1       0.024   1.452  -0.088  0.00  0.00    +0.000 A 
ATOM      8  C   UNL     1       0.026   0.078   0.070  0.00  0.00    +0.001 A 
ATOM      9  C   UNL     1       1.218  -0.617   0.080  0.00  0.00    +0.010 A 
ATOM     10  C   UNL     1       2.423   0.069  -0.069  0.00  0.00    +0.000 A 
ATOM     11  C   UNL     1       2.415   1.454  -0.228  0.00  0.00    +0.010 A 
ATOM     12  C   UNL     1       1.216   2.138  -0.237  0.00  0.00    +0.001 A 
ENDBRANCH   1  10
BRANCH   3  13
ATOM     13  C   UNL     1       6.038  -3.306  -0.967  0.00  0.00    +0.117 C 
ATOM     14  C   UNL     1       7.279  -2.815  -1.716  0.00  0.00    +0.028 C 
ATOM     15  C   UNL     1       8.061  -4.017  -2.250  0.00  0.00    +0.002 C 
ATOM     16  C   UNL     1       8.490  -4.906  -1.081  0.00  0.00    +0.003 C 
ATOM     17  C   UNL     1       7.249  -5.397  -0.331  0.00  0.00    +0.033 C 
ATOM     18  C   UNL     1       6.467  -4.195   0.202  0.00  0.00    +0.137 C 
BRANCH  18  19
ATOM     19  O   UNL     1       5.309  -4.653   0.902  0.00  0.00    -0.390 OA
ATOM     20  H   UNL     1       5.506  -5.223   1.658  0.00  0.00    +0.210 HD
ENDBRANCH  18  19
ENDBRANCH   3  13
BRANCH   2  21
ATOM     21  C   UNL     1       3.084  -2.553  -1.676  0.00  0.00    +0.001 A 
ATOM     22  C   UNL     1       2.849  -3.916  -1.486  0.00  0.00    +0.013 A 
ATOM     23  C   UNL     1       2.001  -4.593  -2.337  0.00  0.00    +0.046 A 
ATOM     24  C   UNL     1       1.381  -3.921  -3.381  0.00  0.00    +0.121 A 
ATOM     25  C   UNL     1       1.611  -2.565  -3.574  0.00  0.00    +0.046 A 
ATOM     26  C   UNL     1       2.453  -1.879  -2.725  0.00  0.00    +0.013 A 
BRANCH  24  27
ATOM     27  O   UNL     1       0.546  -4.592  -4.218  0.00  0.00    -0.490 OA
BRANCH  27  28
ATOM     28  C   UNL     1      -0.059  -3.840  -5.272  0.00  0.00    +0.256 C 
BRANCH  28  29
ATOM     29  C   UNL     1      -0.958  -4.757  -6.102  0.00  0.00    +0.196 C 
BRANCH  29  30
ATOM     30  O   UNL     1      -2.043  -5.218  -5.295  0.00  0.00    -0.392 OA
ATOM     31  H   UNL     1      -2.655  -5.806  -5.758  0.00  0.00    +0.210 HD
ENDBRANCH  29  30
ENDBRANCH  28  29
ENDBRANCH  27  28
ENDBRANCH  24  27
ENDBRANCH   2  21
TORSDOF 8
