REMARK  Name = ZINC63363192
REMARK  7 active torsions:
REMARK  status: ('A' for Active; 'I' for Inactive)
REMARK    1  A    between atoms: C_6  and  S_10
REMARK    2  A    between atoms: S_10  and  C_11
REMARK    3  A    between atoms: C_11  and  C_12
REMARK    4  A    between atoms: N_14  and  N_15
REMARK    5  A    between atoms: N_15  and  C_16
REMARK    6  A    between atoms: C_16  and  N_18
REMARK    7  A    between atoms: N_18  and  C_19
REMARK                            x       y       z     vdW  Elec       q    Type
REMARK                         _______ _______ _______ _____ _____    ______ ____
ROOT
ATOM      1  C   UNL     1       3.313  -2.560  -4.211  0.00  0.00    +0.239 C 
ATOM      2  O   UNL     1       4.002  -3.557  -4.234  0.00  0.00    -0.273 OA
ATOM      3  N   UNL     1       2.897  -2.000  -5.364  0.00  0.00    -0.234 N 
ATOM      4  H   UNL     1       2.346  -1.202  -5.346  0.00  0.00    +0.173 HD
ENDROOT
BRANCH   3   5
ATOM      5  N   UNL     1       3.262  -2.571  -6.591  0.00  0.00    -0.246 N 
ATOM      6  H   UNL     1       3.813  -3.369  -6.609  0.00  0.00    +0.172 HD
BRANCH   5   7
ATOM      7  C   UNL     1       2.846  -2.012  -7.745  0.00  0.00    +0.147 C 
ATOM      8  S   UNL     1       3.292  -2.710  -9.243  0.00  0.00    -0.017 S 
BRANCH   7   9
ATOM      9  N   UNL     1       2.080  -0.903  -7.718  0.00  0.00    -0.323 N 
ATOM     10  H   UNL     1       1.828  -0.508  -6.869  0.00  0.00    +0.148 HD
BRANCH   9  11
ATOM     11  C   UNL     1       1.629  -0.295  -8.973  0.00  0.00    +0.072 C 
ATOM     12  C   UNL     1       2.714   0.644  -9.503  0.00  0.00    +0.022 C 
ATOM     13  C   UNL     1       2.242   1.279 -10.813  0.00  0.00    +0.002 C 
ATOM     14  C   UNL     1       0.958   2.073 -10.562  0.00  0.00    +0.000 C 
ATOM     15  C   UNL     1      -0.126   1.133 -10.031  0.00  0.00    +0.002 C 
ATOM     16  C   UNL     1       0.345   0.498  -8.721  0.00  0.00    +0.022 C 
ENDBRANCH   9  11
ENDBRANCH   7   9
ENDBRANCH   5   7
ENDBRANCH   3   5
BRANCH   1  17
ATOM     17  C   UNL     1       2.921  -1.946  -2.892  0.00  0.00    +0.170 C 
BRANCH  17  18
ATOM     18  S   UNL     1       3.629  -2.921  -1.536  0.00  0.00    -0.106 S 
BRANCH  18  24
ATOM     19  C   UNL     1      -0.016   1.344   0.009  0.00  0.00    +0.002 A 
ATOM     20  C   UNL     1       1.158   2.118   0.002  0.00  0.00    +0.002 A 
ATOM     21  C   UNL     1       2.389   1.570  -0.013  0.00  0.00    +0.027 A 
ATOM     22  C   UNL     1       2.533   0.108  -0.022  0.00  0.00    +0.061 A 
ATOM     23  N   UNL     1       3.569  -0.680  -0.036  0.00  0.00    -0.355 N 
ATOM     24  C   UNL     1       3.071  -2.062  -0.039  0.00  0.00    +0.236 C 
ATOM     25  N   UNL     1       1.606  -1.974  -0.024  0.00  0.00    -0.355 N 
ATOM     26  C   UNL     1       1.290  -0.712  -0.014  0.00  0.00    +0.061 A 
ATOM     27  C   UNL     1       0.002  -0.004   0.002  0.00  0.00    +0.027 A 
ATOM     28  H   UNL     1       4.499  -0.405  -0.045  0.00  0.00    +0.162 HD
ATOM     29  H   UNL     1       0.987  -2.721  -0.022  0.00  0.00    +0.162 HD
ENDBRANCH  18  24
ENDBRANCH  17  18
ENDBRANCH   1  17
TORSDOF 7
