REMARK  Name = ZINC62075771
REMARK  4 active torsions:
REMARK  status: ('A' for Active; 'I' for Inactive)
REMARK    1  A    between atoms: C_1  and  O_2
REMARK    2  A    between atoms: O_2  and  C_3
REMARK    3  A    between atoms: C_6  and  S_10
REMARK    4  A    between atoms: S_10  and  N_13
REMARK                            x       y       z     vdW  Elec       q    Type
REMARK                         _______ _______ _______ _____ _____    ______ ____
ROOT
ATOM      1  N   UNL     1       4.212  -2.825  -4.181  0.00  0.00    -0.172 NA
ATOM      2  C   UNL     1       5.218  -1.792  -4.478  0.00  0.00    +0.114 C 
ATOM      3  C   UNL     1       5.766  -1.275  -3.149  0.00  0.00    +0.052 C 
ATOM      4  C   UNL     1       6.127  -2.418  -2.237  0.00  0.00    -0.038 A 
ATOM      5  C   UNL     1       7.012  -2.156  -1.198  0.00  0.00    +0.053 A 
ATOM      6  C   UNL     1       7.380  -3.155  -0.316  0.00  0.00    +0.167 A 
ATOM      7  C   UNL     1       6.858  -4.437  -0.471  0.00  0.00    +0.167 A 
ATOM      8  C   UNL     1       5.980  -4.694  -1.508  0.00  0.00    +0.054 A 
ATOM      9  C   UNL     1       5.618  -3.688  -2.394  0.00  0.00    -0.025 A 
ATOM     10  C   UNL     1       4.676  -4.045  -3.512  0.00  0.00    +0.145 C 
ATOM     11  O   UNL     1       7.363  -5.236   0.513  0.00  0.00    -0.453 OA
ATOM     12  C   UNL     1       8.514  -4.537   1.022  0.00  0.00    +0.466 C 
ATOM     13  O   UNL     1       8.216  -3.152   0.764  0.00  0.00    -0.453 OA
ENDROOT
BRANCH   1  14
ATOM     14  S   UNL     1       2.619  -2.616  -4.581  0.00  0.00    +0.061 S 
ATOM     15  O   UNL     1       2.052  -3.915  -4.687  0.00  0.00    -0.153 OA
ATOM     16  O   UNL     1       2.588  -1.682  -5.652  0.00  0.00    -0.153 OA
BRANCH  14  20
ATOM     17  C   UNL     1       0.606  -0.607  -1.056  0.00  0.00    +0.138 A 
ATOM     18  C   UNL     1       1.173   0.160  -2.062  0.00  0.00    +0.049 A 
ATOM     19  C   UNL     1       1.787  -0.455  -3.136  0.00  0.00    +0.032 A 
ATOM     20  C   UNL     1       1.836  -1.835  -3.209  0.00  0.00    +0.107 A 
ATOM     21  C   UNL     1       1.271  -2.603  -2.208  0.00  0.00    +0.052 A 
ATOM     22  C   UNL     1       0.661  -1.992  -1.128  0.00  0.00    +0.084 A 
ATOM     23 CL   UNL     1      -0.042  -2.957   0.133  0.00  0.00    -0.080 Cl
BRANCH  17  25
ATOM     24  C   UNL     1      -0.017   1.425   0.010  0.00  0.00    +0.277 C 
ATOM     25  O   UNL     1       0.002  -0.004   0.002  0.00  0.00    -0.494 OA
ENDBRANCH  17  25
ENDBRANCH  14  20
ENDBRANCH   1  14
TORSDOF 3
