REMARK  Name = ZINC39630342
REMARK  11 active torsions:
REMARK  status: ('A' for Active; 'I' for Inactive)
REMARK    1  A    between atoms: C_1  and  C_2
REMARK    2  A    between atoms: C_2  and  C_3
REMARK    3  A    between atoms: C_3  and  C_4
REMARK    4  A    between atoms: C_4  and  C_5
REMARK    5  A    between atoms: C_5  and  C_7
REMARK    6  A    between atoms: C_5  and  C_8
REMARK    7  A    between atoms: C_12  and  C_21
REMARK    8  A    between atoms: N_23  and  C_24
REMARK    9  A    between atoms: C_24  and  C_25
REMARK   10  A    between atoms: C_25  and  C_26
REMARK   11  A    between atoms: C_26  and  N_27
REMARK                            x       y       z     vdW  Elec       q    Type
REMARK                         _______ _______ _______ _____ _____    ______ ____
ROOT
ATOM      1  C   UNL     1       1.076  -3.920  -2.715  0.00  0.00    +0.218 C 
ATOM      2  O   UNL     1       0.370  -4.582  -1.983  0.00  0.00    -0.275 OA
ATOM      3  N   UNL     1       1.827  -4.526  -3.655  0.00  0.00    -0.300 N 
ATOM      4  C   UNL     1       2.827  -3.908  -4.557  0.00  0.00    +0.121 C 
ATOM      5  C   UNL     1       3.978  -4.936  -4.627  0.00  0.00    +0.100 C 
ATOM      6  C   UNL     1       3.323  -6.283  -4.277  0.00  0.00    -0.004 C 
ATOM      7  C   UNL     1       1.843  -5.964  -4.018  0.00  0.00    +0.115 C 
ATOM      8  C   UNL     1       3.458  -7.255  -5.445  0.00  0.00    -0.010 C 
ATOM      9  C   UNL     1       2.851  -8.605  -5.052  0.00  0.00    -0.082 C 
ATOM     10  N   UNL     1       3.544  -9.130  -3.869  0.00  0.00    +0.379 N 
ATOM     11  C   UNL     1       3.331  -8.234  -2.726  0.00  0.00    -0.082 C 
ATOM     12  C   UNL     1       3.959  -6.869  -3.020  0.00  0.00    -0.010 C 
ATOM     13  H   UNL     1       3.184 -10.046  -3.649  0.00  0.00    -0.086 HD
ATOM     14  H   UNL     1       4.532  -9.197  -4.062  0.00  0.00    -0.086 HD
ENDROOT
BRANCH   5  15
ATOM     15  C   UNL     1       5.049  -4.595  -3.623  0.00  0.00    +0.218 C 
ATOM     16  O   UNL     1       4.768  -3.962  -2.628  0.00  0.00    -0.275 OA
ATOM     17  N   UNL     1       6.320  -4.992  -3.832  0.00  0.00    -0.315 N 
ATOM     18  H   UNL     1       6.545  -5.499  -4.628  0.00  0.00    +0.149 HD
BRANCH  17  19
ATOM     19  C   UNL     1       7.361  -4.660  -2.856  0.00  0.00    +0.106 C 
BRANCH  19  20
ATOM     20  C   UNL     1       8.702  -5.225  -3.329  0.00  0.00    +0.040 C 
BRANCH  20  21
ATOM     21  C   UNL     1       9.789  -4.879  -2.310  0.00  0.00    +0.124 C 
BRANCH  21  22
ATOM     22  N   UNL     1      11.073  -5.420  -2.763  0.00  0.00    -0.338 N 
ATOM     23  C   UNL     1      11.577  -6.660  -2.480  0.00  0.00    +0.104 A 
ATOM     24  C   UNL     1      12.774  -6.744  -3.091  0.00  0.00    +0.101 A 
ATOM     25  N   UNL     1      12.995  -5.585  -3.730  0.00  0.00    -0.352 N 
ATOM     26  C   UNL     1      11.978  -4.789  -3.542  0.00  0.00    +0.173 A 
ATOM     27  H   UNL     1      13.784  -5.374  -4.253  0.00  0.00    +0.166 HD
ENDBRANCH  21  22
ENDBRANCH  20  21
ENDBRANCH  19  20
ENDBRANCH  17  19
ENDBRANCH   5  15
BRANCH   1  28
ATOM     28  C   UNL     1       1.113  -2.420  -2.572  0.00  0.00    +0.072 C 
ATOM     29  C   UNL     1       0.959  -2.045  -1.097  0.00  0.00    +0.017 C 
BRANCH  28  30
ATOM     30  C   UNL     1      -0.032  -1.803  -3.378  0.00  0.00    +0.012 C 
BRANCH  30  31
ATOM     31  C   UNL     1       0.079  -0.278  -3.335  0.00  0.00    +0.000 C 
BRANCH  31  33
ATOM     32  C   UNL     1      -0.954   1.865  -4.098  0.00  0.00    +0.004 C 
ATOM     33  C   UNL     1      -1.065   0.340  -4.141  0.00  0.00    -0.003 C 
ENDBRANCH  31  33
ENDBRANCH  30  31
ENDBRANCH  28  30
ENDBRANCH   1  28
TORSDOF 9
