REMARK  Name = ZINC59935279
REMARK  7 active torsions:
REMARK  status: ('A' for Active; 'I' for Inactive)
REMARK    1  A    between atoms: C_1  and  C_2
REMARK    2  A    between atoms: C_2  and  C_3
REMARK    3  A    between atoms: C_6  and  C_8
REMARK    4  A    between atoms: N_10  and  C_11
REMARK    5  A    between atoms: C_15  and  C_17
REMARK    6  A    between atoms: C_17  and  N_18
REMARK    7  A    between atoms: C_22  and  C_24
REMARK                            x       y       z     vdW  Elec       q    Type
REMARK                         _______ _______ _______ _____ _____    ______ ____
ROOT
ATOM      1  C   UNL     1       6.050  -1.710   2.640  0.00  0.00    +0.034 A 
ATOM      2  C   UNL     1       6.274  -2.163   3.934  0.00  0.00    +0.023 A 
ATOM      3  C   UNL     1       7.564  -2.410   4.363  0.00  0.00    +0.002 A 
ATOM      4  C   UNL     1       8.630  -2.208   3.506  0.00  0.00    +0.002 A 
ATOM      5  C   UNL     1       8.409  -1.757   2.217  0.00  0.00    -0.062 A 
ATOM      6  C   UNL     1       7.122  -1.513   1.780  0.00  0.00    +0.025 A 
ENDROOT
BRANCH   1   9
ATOM      7  C   UNL     1       3.832  -0.958   3.059  0.00  0.00    +0.284 C 
ATOM      8  O   UNL     1       4.118  -0.804   4.232  0.00  0.00    -0.266 OA
ATOM      9  N   UNL     1       4.745  -1.458   2.203  0.00  0.00    -0.279 N 
ATOM     10  H   UNL     1       4.498  -1.643   1.283  0.00  0.00    +0.155 HD
BRANCH   7  14
ATOM     11  C   UNL     1       0.783  -0.294   1.239  0.00  0.00    +0.106 A 
ATOM     12  C   UNL     1       0.391   0.106   2.469  0.00  0.00    +0.045 A 
ATOM     13  C   UNL     1       1.480  -0.085   3.333  0.00  0.00    +0.055 A 
ATOM     14  C   UNL     1       2.495  -0.599   2.576  0.00  0.00    +0.190 A 
ATOM     15  O   UNL     1       2.049  -0.723   1.309  0.00  0.00    -0.455 OA
BRANCH  11  17
ATOM     16  C   UNL     1       0.113   1.075  -0.717  0.00  0.00    +0.012 C 
ATOM     17  C   UNL     1      -0.068  -0.267  -0.005  0.00  0.00    +0.071 C 
ENDBRANCH  11  17
ENDBRANCH   7  14
ENDBRANCH   1   9
BRANCH   5  18
ATOM     18  C   UNL     1       9.575  -1.538   1.287  0.00  0.00    -0.042 C 
BRANCH  18  19
ATOM     19  N   UNL     1       9.848  -2.775   0.545  0.00  0.00    +0.390 N 
ATOM     20  C   UNL     1       8.743  -3.057  -0.406  0.00  0.00    -0.077 C 
ATOM     21  C   UNL     1       9.404  -3.990  -1.452  0.00  0.00    -0.020 C 
ATOM     22  C   UNL     1      10.828  -3.405  -1.585  0.00  0.00    -0.008 C 
ATOM     23  C   UNL     1      11.062  -2.615  -0.284  0.00  0.00    +0.019 C 
ATOM     24  H   UNL     1       9.963  -3.547   1.185  0.00  0.00    -0.080 HD
BRANCH  23  25
ATOM     25  C   UNL     1      12.259  -3.170   0.445  0.00  0.00    +0.197 C 
ATOM     26  O   UNL     1      12.125  -3.654   1.549  0.00  0.00    -0.278 OA
ATOM     27  N   UNL     1      13.477  -3.127  -0.130  0.00  0.00    -0.331 N 
ATOM     28  H   UNL     1      13.584  -2.740  -1.013  0.00  0.00    +0.145 HD
ATOM     29  H   UNL     1      14.248  -3.484   0.340  0.00  0.00    +0.145 HD
ENDBRANCH  23  25
ENDBRANCH  18  19
ENDBRANCH   5  18
TORSDOF 6
