REMARK  Name = ZINC59876092
REMARK  15 active torsions:
REMARK  status: ('A' for Active; 'I' for Inactive)
REMARK    1  A    between atoms: C_1  and  C_2
REMARK    2  A    between atoms: C_2  and  N_3
REMARK    3  A    between atoms: N_3  and  C_4
REMARK    4  A    between atoms: N_3  and  C_6
REMARK    5  A    between atoms: C_4  and  C_5
REMARK    6  A    between atoms: C_6  and  C_8
REMARK    7  A    between atoms: C_6  and  C_28
REMARK    8  A    between atoms: C_8  and  N_9
REMARK    9  A    between atoms: C_10  and  C_12
REMARK   10  A    between atoms: C_12  and  C_13
REMARK   11  A    between atoms: C_13  and  C_14
REMARK   12  A    between atoms: C_14  and  C_15
REMARK   13  A    between atoms: C_15  and  C_16
REMARK   14  A    between atoms: C_32  and  O_34
REMARK   15  A    between atoms: O_34  and  C_35
REMARK                            x       y       z     vdW  Elec       q    Type
REMARK                         _______ _______ _______ _____ _____    ______ ____
ROOT
ATOM      1  N   UNL     1       1.452   0.930  -1.087  0.00  0.00    -0.317 N 
ATOM      2  C   UNL     1       2.412   1.876  -1.115  0.00  0.00    +0.213 C 
ATOM      3  O   UNL     1       3.158   1.954  -2.068  0.00  0.00    -0.276 OA
ATOM      4  H   UNL     1       0.809   0.913  -0.361  0.00  0.00    +0.149 HD
ENDROOT
BRANCH   1   5
ATOM      5  C   UNL     1       1.379  -0.071  -2.154  0.00  0.00    +0.093 C 
BRANCH   5   6
ATOM      6  C   UNL     1       0.136  -0.941  -1.953  0.00  0.00    -0.020 C 
BRANCH   6   7
ATOM      7  C   UNL     1       0.144  -2.068  -2.953  0.00  0.00    -0.056 A 
ATOM      8  C   UNL     1       1.341  -2.506  -3.491  0.00  0.00    +0.002 A 
ATOM      9  C   UNL     1       1.351  -3.539  -4.410  0.00  0.00    +0.004 A 
ATOM     10  C   UNL     1       0.166  -4.137  -4.793  0.00  0.00    +0.045 A 
ATOM     11  C   UNL     1      -1.036  -3.699  -4.255  0.00  0.00    +0.120 A 
ATOM     12  C   UNL     1      -1.043  -2.666  -3.329  0.00  0.00    +0.047 A 
BRANCH  11  13
ATOM     13  O   UNL     1      -2.203  -4.286  -4.630  0.00  0.00    -0.495 OA
ATOM     14  C   UNL     1      -2.119  -5.347  -5.583  0.00  0.00    +0.277 C 
ENDBRANCH  11  13
ENDBRANCH   6   7
BRANCH   6  15
ATOM     15  N   UNL     1       0.141  -1.495  -0.592  0.00  0.00    +0.385 N 
ATOM     16  H   UNL     1       0.219  -0.743   0.077  0.00  0.00    -0.081 HD
BRANCH  15  18
ATOM     17  C   UNL     1      -2.286  -1.255  -0.377  0.00  0.00    -0.017 C 
ATOM     18  C   UNL     1      -1.109  -2.231  -0.358  0.00  0.00    -0.081 C 
ENDBRANCH  15  18
BRANCH  15  19
ATOM     19  C   UNL     1       1.282  -2.407  -0.439  0.00  0.00    -0.081 C 
ATOM     20  C   UNL     1       2.506  -1.618   0.033  0.00  0.00    -0.017 C 
ENDBRANCH  15  19
ENDBRANCH   6  15
ENDBRANCH   5   6
ENDBRANCH   1   5
BRANCH   2  21
ATOM     21  C   UNL     1       2.557   2.836   0.037  0.00  0.00    +0.096 C 
BRANCH  21  22
ATOM     22  C   UNL     1       3.627   3.877  -0.299  0.00  0.00    +0.009 C 
BRANCH  22  23
ATOM     23  C   UNL     1       3.774   4.853   0.870  0.00  0.00    +0.002 C 
BRANCH  23  24
ATOM     24  C   UNL     1       4.844   5.894   0.534  0.00  0.00    +0.016 C 
BRANCH  24  25
ATOM     25  C   UNL     1       4.992   6.869   1.704  0.00  0.00    +0.069 C 
ATOM     26  C   UNL     1       6.094   7.912   1.420  0.00  0.00    +0.108 C 
ATOM     27  C   UNL     1       5.737   9.327   1.885  0.00  0.00    +0.105 C 
ATOM     28  C   UNL     1       4.341   9.432   2.537  0.00  0.00    +0.093 C 
ATOM     29  S   UNL     1       3.501   7.946   1.861  0.00  0.00    -0.154 S 
ATOM     30  N   UNL     1       5.742  10.122   0.647  0.00  0.00    -0.294 N 
ATOM     31  C   UNL     1       6.049   9.322  -0.384  0.00  0.00    +0.300 C 
ATOM     32  O   UNL     1       6.124   9.718  -1.531  0.00  0.00    -0.253 OA
ATOM     33  N   UNL     1       6.258   8.054  -0.035  0.00  0.00    -0.294 N 
ATOM     34  H   UNL     1       5.553  11.071   0.587  0.00  0.00    +0.151 HD
ATOM     35  H   UNL     1       6.487   7.338  -0.648  0.00  0.00    +0.151 HD
ENDBRANCH  24  25
ENDBRANCH  23  24
ENDBRANCH  22  23
ENDBRANCH  21  22
ENDBRANCH   2  21
TORSDOF 12
