REMARK  Name = ZINC24215053
REMARK  8 active torsions:
REMARK  status: ('A' for Active; 'I' for Inactive)
REMARK    1  A    between atoms: C_1  and  C_2
REMARK    2  A    between atoms: C_3  and  C_14
REMARK    3  A    between atoms: C_4  and  C_13
REMARK    4  A    between atoms: N_5  and  C_7
REMARK    5  A    between atoms: N_21  and  C_22
REMARK    6  A    between atoms: C_22  and  C_23
REMARK    7  A    between atoms: N_28  and  C_29
REMARK    8  A    between atoms: C_29  and  C_30
REMARK                            x       y       z     vdW  Elec       q    Type
REMARK                         _______ _______ _______ _____ _____    ______ ____
ROOT
ATOM      1  C   UNL     1       1.308   1.503   2.865  0.00  0.00    +0.054 C 
ATOM      2  C   UNL     1       2.178   2.523   2.187  0.00  0.00    +0.204 C 
ATOM      3  O   UNL     1       1.815   3.680   2.175  0.00  0.00    -0.277 OA
ATOM      4  N   UNL     1       3.335   2.209   1.595  0.00  0.00    -0.318 N 
ATOM      5  C   UNL     1       3.844   0.842   1.523  0.00  0.00    +0.085 C 
ATOM      6  C   UNL     1       3.141  -0.035   2.561  0.00  0.00    -0.058 C 
ATOM      7  N   UNL     1       1.687   0.152   2.431  0.00  0.00    +0.397 N 
ATOM      8  H   UNL     1       3.911   3.034   1.151  0.00  0.00    +0.149 HD
ATOM      9  H   UNL     1       1.413   0.038   1.372  0.00  0.00    -0.079 HD
ENDROOT
BRANCH   1  12
ATOM     10  C   UNL     1      -0.068   0.840   0.089  0.00  0.00    +0.068 C 
ATOM     11  C   UNL     1      -0.742   1.465   1.283  0.00  0.00    +0.063 A 
ATOM     12  C   UNL     1      -0.134   1.757   2.509  0.00  0.00    -0.009 A 
ATOM     13  C   UNL     1      -1.068   2.309   3.317  0.00  0.00    +0.044 A 
ATOM     14  N   UNL     1      -2.229   2.364   2.626  0.00  0.00    -0.237 N 
ATOM     15  N   UNL     1      -1.996   1.834   1.350  0.00  0.00    -0.171 NA
ATOM     16  C   UNL     1      -0.854   2.777   4.733  0.00  0.00    +0.066 C 
BRANCH  14  17
ATOM     17  C   UNL     1      -3.448   2.868   3.099  0.00  0.00    +0.066 A 
ATOM     18  C   UNL     1      -4.633   2.201   2.819  0.00  0.00    +0.028 A 
ATOM     19  C   UNL     1      -5.832   2.696   3.292  0.00  0.00    +0.002 A 
ATOM     20  C   UNL     1      -5.855   3.863   4.035  0.00  0.00    +0.000 A 
ATOM     21  C   UNL     1      -4.677   4.533   4.311  0.00  0.00    +0.002 A 
ATOM     22  C   UNL     1      -3.474   4.039   3.845  0.00  0.00    +0.028 A 
ENDBRANCH  14  17
ENDBRANCH   1  12
BRANCH   7  23
ATOM     23  C   UNL     1       0.955  -0.870   3.191  0.00  0.00    +0.021 C 
BRANCH  23  24
ATOM     24  C   UNL     1       1.179  -2.221   2.561  0.00  0.00    +0.204 C 
ATOM     25  O   UNL     1       1.879  -2.322   1.576  0.00  0.00    -0.277 OA
ATOM     26  N   UNL     1       0.601  -3.316   3.092  0.00  0.00    -0.242 N 
ATOM     27  C   UNL     1       0.801  -4.524   2.529  0.00  0.00    +0.306 C 
ATOM     28  O   UNL     1       1.502  -4.626   1.542  0.00  0.00    -0.252 OA
ATOM     29  N   UNL     1       0.223  -5.620   3.060  0.00  0.00    -0.292 N 
ATOM     30  H   UNL     1      -0.035  -3.224   3.986  0.00  0.00    +0.159 HD
ATOM     31  H   UNL     1      -0.413  -5.528   3.954  0.00  0.00    +0.151 HD
BRANCH  29  32
ATOM     32  C   UNL     1       0.440  -6.933   2.448  0.00  0.00    +0.180 C 
BRANCH  32  33
ATOM     33  C   UNL     1      -0.311  -7.981   3.227  0.00  0.00    +0.122 A 
ATOM     34  C   UNL     1      -1.576  -8.376   2.998  0.00  0.00    +0.046 A 
ATOM     35  C   UNL     1      -1.875  -9.371   3.958  0.00  0.00    +0.041 A 
ATOM     36  C   UNL     1      -0.775  -9.524   4.716  0.00  0.00    +0.195 A 
ATOM     37  O   UNL     1       0.172  -8.684   4.265  0.00  0.00    -0.466 OA
ENDBRANCH  32  33
ENDBRANCH  29  32
ENDBRANCH  23  24
ENDBRANCH   7  23
TORSDOF 6
