REMARK  Name = ZINC09172244
REMARK  6 active torsions:
REMARK  status: ('A' for Active; 'I' for Inactive)
REMARK    1  A    between atoms: C_8  and  C_11
REMARK    2  A    between atoms: N_13  and  C_14
REMARK    3  A    between atoms: C_14  and  C_15
REMARK    4  A    between atoms: C_18  and  C_21
REMARK    5  A    between atoms: N_23  and  C_24
REMARK    6  A    between atoms: C_24  and  C_25
REMARK                            x       y       z     vdW  Elec       q    Type
REMARK                         _______ _______ _______ _____ _____    ______ ____
ROOT
ATOM      1  C   UNL     1      -0.013   1.086   0.008  0.00  0.00    +0.107 C 
ENDROOT
BRANCH   1   2
ATOM      2  C   UNL     1      -0.753   1.593  -1.232  0.00  0.00    +0.006 C 
ATOM      3  C   UNL     1      -2.147   0.964  -1.286  0.00  0.00    +0.006 C 
ATOM      4  C   UNL     1      -2.886   1.471  -2.526  0.00  0.00    +0.013 C 
ATOM      5  C   UNL     1      -2.103   1.083  -3.781  0.00  0.00    +0.075 C 
ATOM      6  C   UNL     1      -0.709   1.712  -3.727  0.00  0.00    +0.013 C 
ATOM      7  C   UNL     1       0.031   1.205  -2.487  0.00  0.00    +0.006 C 
BRANCH   5   8
ATOM      8  C   UNL     1      -2.832   1.583  -5.002  0.00  0.00    +0.216 C 
ATOM      9  O   UNL     1      -2.290   2.364  -5.755  0.00  0.00    -0.276 OA
ATOM     10  N   UNL     1      -4.086   1.161  -5.258  0.00  0.00    -0.313 N 
ATOM     11  H   UNL     1      -4.519   0.535  -4.656  0.00  0.00    +0.149 HD
BRANCH  10  12
ATOM     12  C   UNL     1      -4.794   1.646  -6.445  0.00  0.00    +0.135 C 
BRANCH  12  13
ATOM     13  C   UNL     1      -6.188   1.017  -6.499  0.00  0.00    +0.135 C 
ATOM     14  C   UNL     1      -6.922   1.447  -7.789  0.00  0.00    +0.035 C 
ATOM     15  C   UNL     1      -8.391   1.623  -7.343  0.00  0.00    +0.031 C 
ATOM     16  C   UNL     1      -8.371   1.279  -5.838  0.00  0.00    +0.160 C 
ATOM     17  O   UNL     1      -7.008   1.517  -5.421  0.00  0.00    -0.375 OA
ENDBRANCH  12  13
ENDBRANCH  10  12
ENDBRANCH   5   8
ENDBRANCH   1   2
BRANCH   1  20
ATOM     18  C   UNL     1      -0.222   1.232   2.431  0.00  0.00    +0.199 C 
ATOM     19  O   UNL     1       0.774   0.548   2.529  0.00  0.00    -0.278 OA
ATOM     20  N   UNL     1      -0.698   1.558   1.213  0.00  0.00    -0.316 N 
ATOM     21  H   UNL     1      -1.495   2.106   1.135  0.00  0.00    +0.149 HD
BRANCH  18  29
ATOM     22  C   UNL     1      -4.548   0.993   6.845  0.00  0.00    +0.000 A 
ATOM     23  C   UNL     1      -3.821   1.694   7.789  0.00  0.00    +0.000 A 
ATOM     24  C   UNL     1      -2.543   2.122   7.492  0.00  0.00    +0.002 A 
ATOM     25  C   UNL     1      -1.983   1.853   6.251  0.00  0.00    -0.061 A 
ATOM     26  C   UNL     1      -2.708   1.152   5.312  0.00  0.00    -0.047 A 
ATOM     27  C   UNL     1      -3.992   0.723   5.611  0.00  0.00    +0.004 A 
ATOM     28  C   UNL     1      -2.140   0.832   3.953  0.00  0.00    +0.028 C 
ATOM     29  C   UNL     1      -0.927   1.718   3.671  0.00  0.00    +0.021 C 
ATOM     30  C   UNL     1      -0.587   2.346   5.973  0.00  0.00    -0.045 C 
ATOM     31  N   UNL     1      -0.009   1.638   4.822  0.00  0.00    +0.389 N 
ATOM     32  H   UNL     1       0.888   2.070   4.573  0.00  0.00    -0.084 HD
ATOM     33  H   UNL     1       0.142   0.653   5.069  0.00  0.00    -0.084 HD
ENDBRANCH  18  29
ENDBRANCH   1  20
TORSDOF 6
