REMARK  Name = ZINC43549053
REMARK  15 active torsions:
REMARK  status: ('A' for Active; 'I' for Inactive)
REMARK    1  A    between atoms: C_1  and  C_2
REMARK    2  A    between atoms: C_7  and  C_9
REMARK    3  A    between atoms: C_9  and  S_10
REMARK    4  A    between atoms: S_10  and  C_11
REMARK    5  A    between atoms: C_18  and  C_40
REMARK    6  A    between atoms: C_21  and  O_39
REMARK    7  A    between atoms: C_23  and  C_27
REMARK    8  A    between atoms: C_27  and  C_29
REMARK    9  A    between atoms: C_27  and  C_30
REMARK   10  A    between atoms: N_32  and  C_33
REMARK   11  A    between atoms: N_32  and  C_34
REMARK   12  A    between atoms: C_34  and  C_35
REMARK   13  A    between atoms: C_35  and  N_36
REMARK   14  A    between atoms: N_36  and  C_37
REMARK   15  A    between atoms: N_36  and  C_38
REMARK                            x       y       z     vdW  Elec       q    Type
REMARK                         _______ _______ _______ _____ _____    ______ ____
ROOT
ATOM      1  C   UNL     1      -2.648   0.017  -0.248  0.00  0.00    +0.014 C 
ATOM      2  C   UNL     1      -2.113  -1.411  -0.123  0.00  0.00    +0.042 C 
ATOM      3  C   UNL     1      -3.236  -2.337   0.321  0.00  0.00    +0.055 A 
ATOM      4  C   UNL     1      -3.318  -2.746   1.614  0.00  0.00    +0.014 A 
ATOM      5  S   UNL     1      -4.759  -3.777   1.597  0.00  0.00    -0.076 S 
ATOM      6  C   UNL     1      -5.131  -3.603  -0.038  0.00  0.00    +0.089 A 
ATOM      7  N   UNL     1      -4.188  -2.807  -0.475  0.00  0.00    -0.248 NA
ATOM      8  C   UNL     1      -2.408  -2.399   2.740  0.00  0.00    +0.051 C 
ATOM      9  C   UNL     1      -1.544  -1.195   2.323  0.00  0.00    -0.022 C 
ATOM     10  C   UNL     1      -0.994  -1.448   0.912  0.00  0.00    +0.033 C 
ATOM     11  C   UNL     1      -0.278  -2.798   0.885  0.00  0.00    +0.123 C 
ATOM     12  C   UNL     1       0.899  -2.760   1.864  0.00  0.00    +0.029 C 
ATOM     13  C   UNL     1       0.389  -2.458   3.274  0.00  0.00    +0.007 C 
ATOM     14  C   UNL     1      -0.351  -1.115   3.289  0.00  0.00    +0.008 C 
ATOM     15  C   UNL     1      -2.362   0.097   2.371  0.00  0.00    +0.012 C 
ENDROOT
BRANCH  12  16
ATOM     16  C   UNL     1       1.608  -4.115   1.860  0.00  0.00    +0.078 C 
ATOM     17  C   UNL     1       2.784  -4.078   2.838  0.00  0.00    +0.017 C 
BRANCH  16  18
ATOM     18  C   UNL     1       2.117  -4.411   0.473  0.00  0.00    +0.218 C 
ATOM     19  O   UNL     1       2.070  -3.556  -0.386  0.00  0.00    -0.275 OA
ATOM     20  N   UNL     1       2.625  -5.627   0.187  0.00  0.00    -0.306 N 
ATOM     21  C   UNL     1       2.588  -6.691   1.192  0.00  0.00    +0.132 C 
BRANCH  20  22
ATOM     22  C   UNL     1       3.214  -5.883  -1.130  0.00  0.00    +0.089 C 
BRANCH  22  23
ATOM     23  C   UNL     1       4.707  -5.550  -1.095  0.00  0.00    -0.060 C 
BRANCH  23  24
ATOM     24  N   UNL     1       5.298  -5.807  -2.415  0.00  0.00    +0.377 N 
ATOM     25  C   UNL     1       6.702  -5.375  -2.415  0.00  0.00    -0.097 C 
ATOM     26  C   UNL     1       5.227  -7.244  -2.712  0.00  0.00    -0.097 C 
ATOM     27  H   UNL     1       4.787  -5.293  -3.117  0.00  0.00    -0.083 HD
ENDBRANCH  23  24
ENDBRANCH  22  23
ENDBRANCH  20  22
ENDBRANCH  16  18
ENDBRANCH  12  16
BRANCH  11  28
ATOM     28  O   UNL     1      -1.189  -3.829   1.269  0.00  0.00    -0.391 OA
ATOM     29  H   UNL     1      -0.801  -4.715   1.274  0.00  0.00    +0.210 HD
ENDBRANCH  11  28
BRANCH   6  30
ATOM     30  C   UNL     1      -6.272  -4.215  -0.808  0.00  0.00    +0.137 C 
BRANCH  30  31
ATOM     31  S   UNL     1      -5.756  -5.818  -1.483  0.00  0.00    -0.118 S 
BRANCH  31  32
ATOM     32  C   UNL     1      -7.180  -6.397  -2.344  0.00  0.00    +0.008 A 
ATOM     33  C   UNL     1      -8.336  -5.627  -2.375  0.00  0.00    +0.015 A 
ATOM     34  C   UNL     1      -9.450  -6.084  -3.050  0.00  0.00    +0.001 A 
ATOM     35  C   UNL     1      -9.416  -7.307  -3.696  0.00  0.00    +0.000 A 
ATOM     36  C   UNL     1      -8.267  -8.076  -3.667  0.00  0.00    +0.001 A 
ATOM     37  C   UNL     1      -7.147  -7.623  -2.999  0.00  0.00    +0.015 A 
ENDBRANCH  31  32
ENDBRANCH  30  31
ENDBRANCH   6  30
TORSDOF 9
