REMARK  Name = ZINC36844227
REMARK  2 active torsions:
REMARK  status: ('A' for Active; 'I' for Inactive)
REMARK    1  A    between atoms: C_1  and  C_2
REMARK    2  A    between atoms: C_16  and  C_17
REMARK                            x       y       z     vdW  Elec       q    Type
REMARK                         _______ _______ _______ _____ _____    ______ ____
ROOT
ATOM      1  C   UNL     1      -1.106   1.211   0.090  0.00  0.00    +0.046 C 
ATOM      2  C   UNL     1      -0.425  -0.132   0.038  0.00  0.00    -0.017 A 
ATOM      3  C   UNL     1      -0.288  -0.801  -1.181  0.00  0.00    +0.076 A 
ATOM      4  C   UNL     1       0.363  -2.054  -1.126  0.00  0.00    +0.116 A 
ATOM      5  N   UNL     1       0.555  -2.792  -2.212  0.00  0.00    -0.226 NA
ATOM      6  C   UNL     1       0.148  -2.403  -3.387  0.00  0.00    +0.114 A 
ATOM      7  N   UNL     1      -0.490  -1.211  -3.565  0.00  0.00    -0.296 N 
ATOM      8  C   UNL     1      -0.728  -0.384  -2.532  0.00  0.00    +0.263 A 
ATOM      9  O   UNL     1      -1.293   0.682  -2.703  0.00  0.00    -0.267 OA
ATOM     10  C   UNL     1      -0.917  -0.847  -4.923  0.00  0.00    +0.126 C 
ATOM     11  C   UNL     1      -2.132  -1.688  -5.308  0.00  0.00    +0.022 C 
ATOM     12  C   UNL     1      -1.711  -2.989  -5.971  0.00  0.00    +0.002 C 
ATOM     13  C   UNL     1      -0.956  -3.900  -5.019  0.00  0.00    +0.008 C 
ATOM     14  C   UNL     1       0.374  -3.276  -4.600  0.00  0.00    +0.074 C 
ATOM     15  S   UNL     1       0.750  -2.237   0.597  0.00  0.00    -0.064 S 
ATOM     16  C   UNL     1       0.063  -0.696   1.180  0.00  0.00    +0.080 A 
ENDROOT
BRANCH  16  17
ATOM     17  C   UNL     1       0.029  -0.169   2.548  0.00  0.00    +0.254 C 
ATOM     18  O   UNL     1       0.073   1.033   2.738  0.00  0.00    -0.269 OA
ATOM     19  N   UNL     1      -0.051  -1.014   3.594  0.00  0.00    -0.294 N 
ATOM     20  C   UNL     1      -0.028  -2.470   3.389  0.00  0.00    +0.108 C 
ATOM     21  C   UNL     1      -1.244  -3.087   4.085  0.00  0.00    +0.019 C 
ATOM     22  C   UNL     1      -1.267  -2.655   5.553  0.00  0.00    +0.007 C 
ATOM     23  C   UNL     1      -1.390  -1.129   5.630  0.00  0.00    +0.010 C 
ATOM     24  C   UNL     1      -0.156  -0.502   4.966  0.00  0.00    +0.079 C 
ATOM     25  C   UNL     1      -0.273   1.019   4.952  0.00  0.00    +0.023 C 
ATOM     26  C   UNL     1      -1.541   1.437   4.205  0.00  0.00    +0.002 C 
ATOM     27  C   UNL     1      -2.761   0.835   4.906  0.00  0.00    +0.000 C 
ATOM     28  C   UNL     1      -2.665  -0.701   4.899  0.00  0.00    +0.005 C 
ENDBRANCH  16  17
TORSDOF 1
