REMARK  Name = ZINC38074918
REMARK  3 active torsions:
REMARK  status: ('A' for Active; 'I' for Inactive)
REMARK    1  A    between atoms: C_1  and  C_2
REMARK    2  A    between atoms: C_3  and  C_17
REMARK    3  A    between atoms: C_7  and  N_11
REMARK                            x       y       z     vdW  Elec       q    Type
REMARK                         _______ _______ _______ _____ _____    ______ ____
ROOT
ATOM      1  C   UNL     1      -0.320   1.496   0.056  0.00  0.00    +0.045 C 
ATOM      2  C   UNL     1      -0.270  -0.011   0.043  0.00  0.00    -0.028 A 
ATOM      3  C   UNL     1      -0.474  -0.686  -1.098  0.00  0.00    -0.008 A 
ATOM      4  S   UNL     1      -0.317  -2.393  -0.606  0.00  0.00    -0.074 S 
ATOM      5  C   UNL     1       0.018  -2.154   1.119  0.00  0.00    +0.114 A 
ATOM      6  C   UNL     1       0.004  -0.747   1.264  0.00  0.00    +0.055 A 
ATOM      7  C   UNL     1       0.256  -0.268   2.577  0.00  0.00    +0.166 A 
ATOM      8  N   UNL     1       0.484  -1.136   3.547  0.00  0.00    -0.216 NA
ATOM      9  C   UNL     1       0.486  -2.440   3.339  0.00  0.00    +0.224 A 
ATOM     10  N   UNL     1       0.249  -2.947   2.144  0.00  0.00    -0.228 NA
ATOM     11  C   UNL     1      -0.767  -0.134  -2.469  0.00  0.00    +0.052 C 
ENDROOT
BRANCH   7  12
ATOM     12  N   UNL     1       0.262   1.101   2.839  0.00  0.00    -0.220 N 
ATOM     13  C   UNL     1      -0.627   1.772   3.619  0.00  0.00    +0.131 A 
ATOM     14  C   UNL     1      -0.272   3.077   3.614  0.00  0.00    +0.056 A 
ATOM     15  C   UNL     1       0.867   3.212   2.810  0.00  0.00    +0.150 A 
ATOM     16  N   UNL     1       1.190   2.030   2.352  0.00  0.00    -0.172 NA
ATOM     17 BR   UNL     1      -1.157   4.474   4.532  0.00  0.00    -0.047 Br
ENDBRANCH   7  12
TORSDOF 1
