REMARK  Name = ZINC50224991
REMARK  5 active torsions:
REMARK  status: ('A' for Active; 'I' for Inactive)
REMARK    1  A    between atoms: C_5  and  C_7
REMARK    2  A    between atoms: C_10  and  C_12
REMARK    3  A    between atoms: C_12  and  N_13
REMARK    4  A    between atoms: C_15  and  C_18
REMARK    5  A    between atoms: C_18  and  N_19
REMARK                            x       y       z     vdW  Elec       q    Type
REMARK                         _______ _______ _______ _____ _____    ______ ____
ROOT
ATOM      1  C   UNL     1       1.249  -2.160  -0.023  0.00  0.00    +0.249 A 
ATOM      2  N   UNL     1       2.320  -2.919  -0.032  0.00  0.00    -0.107 NA
ATOM      3  N   UNL     1       1.964  -4.156  -0.037  0.00  0.00    -0.110 NA
ATOM      4  C   UNL     1       0.662  -4.234  -0.032  0.00  0.00    +0.239 A 
ATOM      5  O   UNL     1       0.179  -2.980  -0.017  0.00  0.00    -0.418 OA
ENDROOT
BRANCH   1  10
ATOM      6  C   UNL     1      -0.017   1.375   0.010  0.00  0.00    +0.001 A 
ATOM      7  C   UNL     1       1.170   2.087   0.002  0.00  0.00    +0.001 A 
ATOM      8  C   UNL     1       2.383   1.422  -0.013  0.00  0.00    +0.016 A 
ATOM      9  C   UNL     1       2.416   0.041  -0.021  0.00  0.00    +0.030 A 
ATOM     10  C   UNL     1       1.222  -0.682  -0.014  0.00  0.00    +0.052 A 
ATOM     11  C   UNL     1       0.002  -0.004   0.002  0.00  0.00    +0.014 A 
ATOM     12 BR   UNL     1       4.074  -0.867  -0.043  0.00  0.00    -0.050 Br
ENDBRANCH   1  10
BRANCH   4  13
ATOM     13  C   UNL     1      -0.152  -5.502  -0.035  0.00  0.00    +0.242 C 
BRANCH  13  14
ATOM     14  N   UNL     1      -0.410  -5.920   1.346  0.00  0.00    -0.242 N 
ATOM     15  C   UNL     1      -1.626  -6.164   1.886  0.00  0.00    +0.132 A 
ATOM     16  C   UNL     1      -1.403  -6.520   3.172  0.00  0.00    +0.066 A 
ATOM     17  N   UNL     1      -0.078  -6.478   3.354  0.00  0.00    -0.136 NA
ATOM     18  N   UNL     1       0.482  -6.124   2.251  0.00  0.00    -0.065 NA
BRANCH  16  19
ATOM     19  C   UNL     1      -2.442  -6.891   4.199  0.00  0.00    -0.027 C 
BRANCH  19  20
ATOM     20  N   UNL     1      -2.598  -8.352   4.231  0.00  0.00    +0.382 N 
ATOM     21  H   UNL     1      -2.891  -8.679   3.323  0.00  0.00    -0.090 HD
ATOM     22  H   UNL     1      -1.717  -8.779   4.475  0.00  0.00    -0.090 HD
ATOM     23  H   UNL     1      -3.294  -8.600   4.919  0.00  0.00    -0.090 HD
ENDBRANCH  19  20
ENDBRANCH  16  19
ENDBRANCH  13  14
ENDBRANCH   4  13
TORSDOF 5
