REMARK  Name = ZINC13622059
REMARK  14 active torsions:
REMARK  status: ('A' for Active; 'I' for Inactive)
REMARK    1  A    between atoms: C_1  and  C_2
REMARK    2  A    between atoms: C_2  and  N_61
REMARK    3  A    between atoms: C_3  and  C_4
REMARK    4  A    between atoms: C_3  and  N_61
REMARK    5  A    between atoms: C_5  and  C_6
REMARK    6  A    between atoms: C_5  and  N_61
REMARK    7  A    between atoms: C_6  and  N_7
REMARK    8  A    between atoms: C_8  and  C_10
REMARK    9  A    between atoms: C_13  and  N_16
REMARK   10  A    between atoms: N_16  and  C_17
REMARK   11  A    between atoms: C_17  and  N_19
REMARK   12  A    between atoms: C_20  and  C_22
REMARK   13  A    between atoms: C_23  and  C_24
REMARK   14  A    between atoms: C_27  and  C_30
REMARK                            x       y       z     vdW  Elec       q    Type
REMARK                         _______ _______ _______ _____ _____    ______ ____
ROOT
ATOM      1  C   UNL     1      -2.110   1.739  -1.761  0.00  0.00    +0.037 A 
ATOM      2  C   UNL     1      -2.401   0.406  -1.458  0.00  0.00    +0.015 A 
ATOM      3  C   UNL     1      -3.604  -0.139  -1.843  0.00  0.00    +0.024 A 
ATOM      4  C   UNL     1      -4.527   0.632  -2.543  0.00  0.00    +0.033 A 
ATOM      5  C   UNL     1      -4.239   1.958  -2.851  0.00  0.00    +0.024 A 
ATOM      6  C   UNL     1      -3.039   2.511  -2.464  0.00  0.00    +0.015 A 
ENDROOT
BRANCH   1   8
ATOM      7  N   UNL     1       0.072   1.582  -0.667  0.00  0.00    -0.313 N 
ATOM      8  C   UNL     1      -0.823   2.328  -1.345  0.00  0.00    +0.244 C 
ATOM      9  O   UNL     1      -0.569   3.487  -1.614  0.00  0.00    -0.270 OA
ATOM     10  H   UNL     1      -0.130   0.658  -0.453  0.00  0.00    +0.149 HD
BRANCH   7  11
ATOM     11  C   UNL     1       1.353   2.166  -0.259  0.00  0.00    +0.086 C 
BRANCH  11  12
ATOM     12  C   UNL     1       2.179   1.113   0.482  0.00  0.00    -0.060 C 
BRANCH  12  13
ATOM     13  N   UNL     1       3.475   1.710   0.868  0.00  0.00    +0.380 N 
ATOM     14  H   UNL     1       3.906   2.136   0.039  0.00  0.00    -0.082 HD
BRANCH  13  16
ATOM     15  C   UNL     1       2.636   2.156   3.150  0.00  0.00    -0.017 C 
ATOM     16  C   UNL     1       3.266   2.756   1.891  0.00  0.00    -0.082 C 
ENDBRANCH  13  16
BRANCH  13  17
ATOM     17  C   UNL     1       4.377   0.663   1.393  0.00  0.00    -0.082 C 
ATOM     18  C   UNL     1       5.802   1.219   1.439  0.00  0.00    -0.017 C 
ENDBRANCH  13  17
ENDBRANCH  12  13
ENDBRANCH  11  12
ENDBRANCH   7  11
ENDBRANCH   1   8
BRANCH   4  19
ATOM     19  N   UNL     1      -5.743   0.076  -2.935  0.00  0.00    -0.297 N 
ATOM     20  H   UNL     1      -6.229  -0.504  -2.329  0.00  0.00    +0.154 HD
BRANCH  19  21
ATOM     21  C   UNL     1      -6.243   0.343  -4.158  0.00  0.00    +0.141 C 
ATOM     22  S   UNL     1      -5.319   1.247  -5.282  0.00  0.00    -0.018 S 
BRANCH  21  23
ATOM     23  N   UNL     1      -7.470  -0.100  -4.496  0.00  0.00    -0.264 N 
ATOM     24  C   UNL     1      -7.970   0.168  -5.719  0.00  0.00    +0.242 C 
ATOM     25  O   UNL     1      -7.313   0.809  -6.517  0.00  0.00    -0.270 OA
ATOM     26  H   UNL     1      -7.993  -0.612  -3.860  0.00  0.00    +0.157 HD
BRANCH  24  27
ATOM     27  C   UNL     1      -9.302  -0.314  -6.086  0.00  0.00    +0.068 C 
ATOM     28  C   UNL     1      -9.802  -0.046  -7.310  0.00  0.00    +0.013 C 
BRANCH  28  29
ATOM     29  C   UNL     1     -11.142  -0.530  -7.679  0.00  0.00    -0.025 A 
ATOM     30  C   UNL     1     -11.897  -1.274  -6.766  0.00  0.00    +0.008 A 
ATOM     31  C   UNL     1     -13.153  -1.720  -7.118  0.00  0.00    +0.004 A 
ATOM     32  C   UNL     1     -13.663  -1.442  -8.374  0.00  0.00    -0.050 A 
ATOM     33  C   UNL     1     -12.920  -0.713  -9.286  0.00  0.00    +0.004 A 
ATOM     34  C   UNL     1     -11.664  -0.255  -8.947  0.00  0.00    +0.008 A 
ATOM     35  C   UNL     1     -15.035  -1.938  -8.753  0.00  0.00    +0.044 C 
ENDBRANCH  28  29
ENDBRANCH  24  27
ENDBRANCH  21  23
ENDBRANCH  19  21
ENDBRANCH   4  19
TORSDOF 11
