REMARK  Name = ZINC03174627
REMARK  9 active torsions:
REMARK  status: ('A' for Active; 'I' for Inactive)
REMARK    1  A    between atoms: C_1  and  C_2
REMARK    2  A    between atoms: C_2  and  O_3
REMARK    3  A    between atoms: O_3  and  C_4
REMARK    4  A    between atoms: C_9  and  C_10
REMARK    5  A    between atoms: N_11  and  N_12
REMARK    6  A    between atoms: C_13  and  C_15
REMARK    7  A    between atoms: C_15  and  C_17
REMARK    8  A    between atoms: C_15  and  O_18
REMARK    9  A    between atoms: O_18  and  C_19
REMARK                            x       y       z     vdW  Elec       q    Type
REMARK                         _______ _______ _______ _____ _____    ______ ____
ROOT
ATOM      1  N   UNL     1      -2.309  -0.056  -0.885  0.00  0.00    -0.204 N 
ATOM      2  C   UNL     1      -1.469  -0.316   0.137  0.00  0.00    +0.273 C 
ATOM      3  O   UNL     1      -1.897  -0.793   1.167  0.00  0.00    -0.270 OA
ATOM      4  H   UNL     1      -1.968   0.326  -1.708  0.00  0.00    +0.177 HD
ENDROOT
BRANCH   1   6
ATOM      5  C   UNL     1      -4.484  -0.090  -1.741  0.00  0.00    +0.142 C 
ATOM      6  N   UNL     1      -3.675  -0.339  -0.757  0.00  0.00    -0.188 NA
BRANCH   5  12
ATOM      7  C   UNL     1      -6.419  -0.939  -0.419  0.00  0.00    +0.129 A 
ATOM      8  C   UNL     1      -7.771  -1.215  -0.303  0.00  0.00    +0.047 A 
ATOM      9  C   UNL     1      -8.627  -0.947  -1.356  0.00  0.00    +0.019 A 
ATOM     10  C   UNL     1      -8.140  -0.401  -2.532  0.00  0.00    +0.019 A 
ATOM     11  C   UNL     1      -6.796  -0.115  -2.662  0.00  0.00    +0.028 A 
ATOM     12  C   UNL     1      -5.921  -0.387  -1.607  0.00  0.00    +0.037 A 
ATOM     13 BR   UNL     1      -9.322  -0.040  -3.963  0.00  0.00    -0.050 Br
BRANCH   7  14
ATOM     14  O   UNL     1      -5.578  -1.203   0.614  0.00  0.00    -0.492 OA
BRANCH  14  16
ATOM     15  C   UNL     1      -5.064  -1.992   2.840  0.00  0.00    +0.048 C 
ATOM     16  C   UNL     1      -6.157  -1.766   1.794  0.00  0.00    +0.226 C 
ENDBRANCH  14  16
ENDBRANCH   7  14
ENDBRANCH   5  12
ENDBRANCH   1   6
BRANCH   2  17
ATOM     17  C   UNL     1       0.000  -0.011   0.000  0.00  0.00    +0.257 C 
ATOM     18  C   UNL     1       0.198   1.499  -0.139  0.00  0.00    +0.062 C 
BRANCH  17  19
ATOM     19  O   UNL     1       0.693  -0.477   1.160  0.00  0.00    -0.480 OA
BRANCH  19  20
ATOM     20  C   UNL     1       2.014  -0.764   1.016  0.00  0.00    +0.122 A 
ATOM     21  C   UNL     1       2.655  -0.501  -0.186  0.00  0.00    +0.047 A 
ATOM     22  C   UNL     1       3.999  -0.787  -0.329  0.00  0.00    +0.019 A 
ATOM     23  C   UNL     1       4.703  -1.347   0.723  0.00  0.00    +0.018 A 
ATOM     24  C   UNL     1       4.064  -1.616   1.920  0.00  0.00    +0.019 A 
ATOM     25  C   UNL     1       2.722  -1.325   2.069  0.00  0.00    +0.047 A 
ATOM     26 BR   UNL     1       6.541  -1.744   0.523  0.00  0.00    -0.050 Br
ENDBRANCH  19  20
ENDBRANCH  17  19
ENDBRANCH   2  17
TORSDOF 7
