REMARK  Name = ZINC37357870
REMARK  8 active torsions:
REMARK  status: ('A' for Active; 'I' for Inactive)
REMARK    1  A    between atoms: C_1  and  O_2
REMARK    2  A    between atoms: O_2  and  C_3
REMARK    3  A    between atoms: C_8  and  C_9
REMARK    4  A    between atoms: C_11  and  N_33
REMARK    5  A    between atoms: N_12  and  C_26
REMARK    6  A    between atoms: N_18  and  C_19
REMARK    7  A    between atoms: C_19  and  C_20
REMARK    8  A    between atoms: C_20  and  N_21
REMARK                            x       y       z     vdW  Elec       q    Type
REMARK                         _______ _______ _______ _____ _____    ______ ____
ROOT
ATOM      1  C   UNL     1       0.346  -2.868   0.080  0.00  0.00    +0.092 A 
ATOM      2  C   UNL     1       0.151  -4.256  -0.104  0.00  0.00    +0.086 A 
ATOM      3  C   UNL     1       0.437  -5.177  -1.103  0.00  0.00    +0.131 A 
ATOM      4  N   UNL     1      -0.006  -6.379  -0.686  0.00  0.00    -0.216 N 
ATOM      5  N   UNL     1      -0.584  -6.259   0.583  0.00  0.00    -0.144 NA
ATOM      6  C   UNL     1      -0.515  -5.006   0.976  0.00  0.00    +0.189 A 
ATOM      7  N   UNL     1      -0.897  -4.324   2.074  0.00  0.00    -0.193 NA
ATOM      8  C   UNL     1      -0.675  -3.029   2.163  0.00  0.00    +0.218 A 
ATOM      9  N   UNL     1      -0.074  -2.318   1.213  0.00  0.00    -0.214 NA
ATOM     10  N   UNL     1      -1.085  -2.373   3.310  0.00  0.00    -0.315 N 
ATOM     11  H   UNL     1      -0.934  -1.419   3.403  0.00  0.00    +0.149 HD
ENDROOT
BRANCH   4  12
ATOM     12  C   UNL     1       0.096  -7.571  -1.414  0.00  0.00    +0.068 A 
ATOM     13  C   UNL     1      -0.014  -7.552  -2.798  0.00  0.00    +0.029 A 
ATOM     14  C   UNL     1       0.087  -8.729  -3.513  0.00  0.00    +0.022 A 
ATOM     15  C   UNL     1       0.297  -9.927  -2.852  0.00  0.00    +0.041 A 
ATOM     16  C   UNL     1       0.406  -9.948  -1.472  0.00  0.00    +0.022 A 
ATOM     17  C   UNL     1       0.312  -8.773  -0.753  0.00  0.00    +0.029 A 
ATOM     18 CL   UNL     1       0.422 -11.405  -3.754  0.00  0.00    -0.084 Cl
ENDBRANCH   4  12
BRANCH   1  24
ATOM     19  C   UNL     1       2.160  -1.318  -0.653  0.00  0.00    +0.129 A 
ATOM     20  C   UNL     1       2.775  -0.559  -1.637  0.00  0.00    +0.046 A 
ATOM     21  C   UNL     1       2.248  -0.522  -2.913  0.00  0.00    +0.004 A 
ATOM     22  C   UNL     1       1.105  -1.241  -3.219  0.00  0.00    +0.001 A 
ATOM     23  C   UNL     1       0.481  -2.000  -2.252  0.00  0.00    +0.013 A 
ATOM     24  C   UNL     1       1.007  -2.050  -0.960  0.00  0.00    +0.043 A 
BRANCH  19  26
ATOM     25  C   UNL     1       3.856  -0.584   0.841  0.00  0.00    +0.277 C 
ATOM     26  O   UNL     1       2.678  -1.356   0.602  0.00  0.00    -0.494 OA
ENDBRANCH  19  26
ENDBRANCH   1  24
BRANCH   3  27
ATOM     27  N   UNL     1       1.063  -4.909  -2.307  0.00  0.00    -0.342 N 
ATOM     28  H   UNL     1       1.318  -4.000  -2.529  0.00  0.00    +0.144 HD
ATOM     29  H   UNL     1       1.246  -5.630  -2.929  0.00  0.00    +0.144 HD
ENDBRANCH   3  27
BRANCH  10  30
ATOM     30  C   UNL     1      -1.747  -3.118   4.383  0.00  0.00    +0.086 C 
BRANCH  30  31
ATOM     31  C   UNL     1      -2.095  -2.163   5.527  0.00  0.00    -0.060 C 
BRANCH  31  32
ATOM     32  N   UNL     1      -2.759  -2.911   6.604  0.00  0.00    +0.381 N 
ATOM     33  C   UNL     1      -1.795  -3.835   7.255  0.00  0.00    -0.079 C 
ATOM     34  C   UNL     1      -2.435  -4.094   8.642  0.00  0.00    -0.020 C 
ATOM     35  C   UNL     1      -3.037  -2.718   9.008  0.00  0.00    -0.020 C 
ATOM     36  C   UNL     1      -3.209  -1.984   7.665  0.00  0.00    -0.079 C 
ATOM     37  H   UNL     1      -3.544  -3.427   6.236  0.00  0.00    -0.082 HD
ENDBRANCH  31  32
ENDBRANCH  30  31
ENDBRANCH  10  30
TORSDOF 7
