REMARK  Name = ZINC39227471
REMARK  8 active torsions:
REMARK  status: ('A' for Active; 'I' for Inactive)
REMARK    1  A    between atoms: C_1  and  C_2
REMARK    2  A    between atoms: C_2  and  C_3
REMARK    3  A    between atoms: C_2  and  C_4
REMARK    4  A    between atoms: C_9  and  N_10
REMARK    5  A    between atoms: C_11  and  C_13
REMARK    6  A    between atoms: C_17  and  C_19
REMARK    7  A    between atoms: C_25  and  O_36
REMARK    8  A    between atoms: N_32  and  C_35
REMARK                            x       y       z     vdW  Elec       q    Type
REMARK                         _______ _______ _______ _____ _____    ______ ____
ROOT
ATOM      1  C   UNL     1      -0.508  -2.374  -4.335  0.00  0.00    +0.038 A 
ATOM      2  C   UNL     1       0.849  -2.068  -4.211  0.00  0.00    +0.013 A 
ATOM      3  C   UNL     1       1.724  -2.376  -5.233  0.00  0.00    +0.001 A 
ATOM      4  C   UNL     1       1.264  -2.989  -6.383  0.00  0.00    +0.008 A 
ATOM      5  C   UNL     1      -0.088  -3.300  -6.518  0.00  0.00    -0.017 A 
ATOM      6  C   UNL     1      -0.976  -2.998  -5.490  0.00  0.00    +0.021 A 
ENDROOT
BRANCH   5   7
ATOM      7  C   UNL     1      -0.580  -3.958  -7.754  0.00  0.00    -0.017 A 
ATOM      8  C   UNL     1      -1.932  -4.264  -7.894  0.00  0.00    +0.012 A 
ATOM      9  C   UNL     1      -2.382  -4.871  -9.045  0.00  0.00    +0.046 A 
ATOM     10  C   UNL     1      -1.493  -5.181 -10.071  0.00  0.00    +0.127 A 
ATOM     11  C   UNL     1      -0.147  -4.883  -9.933  0.00  0.00    +0.023 A 
ATOM     12  C   UNL     1       0.308  -4.266  -8.782  0.00  0.00    +0.018 A 
ATOM     13  C   UNL     1       0.848  -5.218 -11.015  0.00  0.00    +0.152 C 
ATOM     14  C   UNL     1       0.112  -5.462 -12.335  0.00  0.00    +0.084 C 
ATOM     15  C   UNL     1      -1.057  -6.416 -12.068  0.00  0.00    +0.110 C 
ATOM     16  O   UNL     1      -1.982  -5.773 -11.192  0.00  0.00    -0.485 OA
ATOM     17  C   UNL     1      -0.535  -7.699 -11.419  0.00  0.00    +0.029 C 
ATOM     18  C   UNL     1      -1.695  -8.679 -11.231  0.00  0.00    -0.075 C 
ATOM     19  N   UNL     1      -2.292  -8.992 -12.535  0.00  0.00    +0.378 N 
ATOM     20  C   UNL     1      -2.862  -7.776 -13.127  0.00  0.00    -0.075 C 
ATOM     21  C   UNL     1      -1.747  -6.760 -13.389  0.00  0.00    +0.029 C 
ATOM     22  C   UNL     1      -3.353  -9.992 -12.358  0.00  0.00    -0.096 C 
ATOM     23  H   UNL     1      -1.582  -9.362 -13.148  0.00  0.00    -0.082 HD
BRANCH  13  24
ATOM     24  O   UNL     1       1.760  -4.130 -11.175  0.00  0.00    -0.387 OA
ATOM     25  H   UNL     1       2.265  -3.920 -10.377  0.00  0.00    +0.210 HD
ENDBRANCH  13  24
ENDBRANCH   5   7
BRANCH   1  27
ATOM     26  N   UNL     1      -0.991  -1.440  -2.123  0.00  0.00    -0.281 N 
ATOM     27  C   UNL     1      -1.445  -2.043  -3.240  0.00  0.00    +0.248 C 
ATOM     28  O   UNL     1      -2.625  -2.315  -3.347  0.00  0.00    -0.270 OA
ATOM     29  H   UNL     1      -0.061  -1.172  -2.061  0.00  0.00    +0.155 HD
BRANCH  26  35
ATOM     30  C   UNL     1      -1.363  -1.101   0.238  0.00  0.00    -0.024 A 
ATOM     31  C   UNL     1      -2.224  -0.860   1.291  0.00  0.00    +0.006 A 
ATOM     32  C   UNL     1      -3.581  -0.725   1.060  0.00  0.00    +0.000 A 
ATOM     33  C   UNL     1      -4.080  -0.830  -0.226  0.00  0.00    +0.002 A 
ATOM     34  C   UNL     1      -3.225  -1.071  -1.283  0.00  0.00    +0.023 A 
ATOM     35  C   UNL     1      -1.861  -1.202  -1.055  0.00  0.00    +0.037 A 
BRANCH  30  37
ATOM     36  C   UNL     1       0.677   0.077   1.012  0.00  0.00    +0.012 C 
ATOM     37  C   UNL     1       0.115  -1.247   0.491  0.00  0.00    +0.015 C 
ATOM     38  C   UNL     1       0.348  -2.344   1.531  0.00  0.00    +0.012 C 
ENDBRANCH  30  37
ENDBRANCH  26  35
ENDBRANCH   1  27
TORSDOF 5
