REMARK  Name = ZINC12656336
REMARK  17 active torsions:
REMARK  status: ('A' for Active; 'I' for Inactive)
REMARK    1  A    between atoms: C_1  and  O_2
REMARK    2  A    between atoms: O_2  and  C_3
REMARK    3  A    between atoms: C_7  and  O_11
REMARK    4  A    between atoms: C_8  and  O_9
REMARK    5  A    between atoms: O_9  and  C_10
REMARK    6  A    between atoms: O_11  and  C_12
REMARK    7  A    between atoms: C_16  and  N_31
REMARK    8  A    between atoms: C_21  and  N_68
REMARK    9  A    between atoms: C_25  and  C_26
REMARK   10  A    between atoms: C_25  and  N_68
REMARK   11  A    between atoms: C_26  and  O_27
REMARK   12  A    between atoms: C_28  and  C_29
REMARK   13  A    between atoms: C_28  and  N_68
REMARK   14  A    between atoms: C_29  and  O_30
REMARK   15  A    between atoms: N_31  and  C_32
REMARK   16  A    between atoms: C_32  and  C_33
REMARK   17  A    between atoms: C_33  and  O_34
REMARK                            x       y       z     vdW  Elec       q    Type
REMARK                         _______ _______ _______ _____ _____    ______ ____
ROOT
ATOM      1  C   UNL     1       3.210  -1.081   3.248  0.00  0.00    +0.165 A 
ATOM      2  C   UNL     1       1.896  -0.903   2.831  0.00  0.00    +0.054 A 
ATOM      3  C   UNL     1       1.631  -0.265   1.637  0.00  0.00    -0.033 A 
ATOM      4  C   UNL     1       2.679   0.208   0.854  0.00  0.00    +0.031 A 
ATOM      5  C   UNL     1       4.003   0.028   1.265  0.00  0.00    +0.173 A 
ATOM      6  C   UNL     1       4.263  -0.619   2.467  0.00  0.00    +0.204 A 
ATOM      7  C   UNL     1       2.395   0.917  -0.429  0.00  0.00    -0.012 A 
ATOM      8  C   UNL     1       3.102   0.508  -1.531  0.00  0.00    +0.011 A 
ATOM      9  C   UNL     1       3.082   0.889  -2.821  0.00  0.00    +0.027 A 
ATOM     10  C   UNL     1       2.288   1.818  -3.424  0.00  0.00    +0.075 A 
ATOM     11  C   UNL     1       1.315   2.584  -2.787  0.00  0.00    +0.200 A 
ATOM     12  O   UNL     1       0.658   3.319  -3.512  0.00  0.00    -0.286 OA
ATOM     13  C   UNL     1       0.997   2.621  -1.460  0.00  0.00    +0.055 A 
ATOM     14  C   UNL     1       1.443   1.935  -0.392  0.00  0.00    -0.049 A 
ATOM     15  C   UNL     1       0.861   2.330   0.950  0.00  0.00    -0.036 C 
ATOM     16  C   UNL     1      -0.221   1.368   1.396  0.00  0.00    -0.006 C 
ATOM     17  C   UNL     1       0.208  -0.081   1.177  0.00  0.00    +0.035 C 
ENDROOT
BRANCH   1  19
ATOM     18  C   UNL     1       2.339  -2.159   5.180  0.00  0.00    +0.277 C 
ATOM     19  O   UNL     1       3.466  -1.709   4.426  0.00  0.00    -0.491 OA
ENDBRANCH   1  19
BRANCH   6  20
ATOM     20  O   UNL     1       5.548  -0.801   2.879  0.00  0.00    -0.488 OA
ATOM     21  C   UNL     1       6.074   0.154   3.801  0.00  0.00    +0.277 C 
ENDBRANCH   6  20
BRANCH   5  22
ATOM     22  O   UNL     1       5.027   0.482   0.496  0.00  0.00    -0.491 OA
ATOM     23  C   UNL     1       5.513   1.797   0.774  0.00  0.00    +0.277 C 
ENDBRANCH   5  22
BRANCH  10  24
ATOM     24  N   UNL     1       2.464   2.017  -4.783  0.00  0.00    -0.339 N 
ATOM     25  H   UNL     1       1.920   2.669  -5.252  0.00  0.00    +0.146 HD
BRANCH  24  26
ATOM     26  C   UNL     1       3.472   1.244  -5.513  0.00  0.00    +0.129 C 
BRANCH  26  27
ATOM     27  C   UNL     1       3.461   1.654  -6.987  0.00  0.00    +0.174 C 
BRANCH  27  28
ATOM     28  O   UNL     1       3.872   3.018  -7.104  0.00  0.00    -0.393 OA
ATOM     29  H   UNL     1       3.889   3.346  -8.014  0.00  0.00    +0.209 HD
ENDBRANCH  27  28
ENDBRANCH  26  27
ENDBRANCH  24  26
ENDBRANCH  10  24
BRANCH  15  30
ATOM     30  N   UNL     1       0.305   3.694   0.827  0.00  0.00    +0.387 N 
ATOM     31  H   UNL     1       0.872   4.226   0.156  0.00  0.00    -0.081 HD
BRANCH  30  32
ATOM     32  C   UNL     1      -1.087   3.630   0.335  0.00  0.00    -0.050 C 
BRANCH  32  33
ATOM     33  C   UNL     1      -1.498   5.018  -0.158  0.00  0.00    +0.137 C 
BRANCH  33  34
ATOM     34  O   UNL     1      -0.662   5.402  -1.251  0.00  0.00    -0.397 OA
ATOM     35  H   UNL     1      -0.866   6.275  -1.615  0.00  0.00    +0.209 HD
ENDBRANCH  33  34
ENDBRANCH  32  33
ENDBRANCH  30  32
BRANCH  30  36
ATOM     36  C   UNL     1       0.347   4.376   2.138  0.00  0.00    -0.050 C 
BRANCH  36  37
ATOM     37  C   UNL     1       1.780   4.843   2.402  0.00  0.00    +0.137 C 
BRANCH  37  38
ATOM     38  O   UNL     1       2.149   5.821   1.428  0.00  0.00    -0.397 OA
ATOM     39  H   UNL     1       3.071   6.106   1.487  0.00  0.00    +0.209 HD
ENDBRANCH  37  38
ENDBRANCH  36  37
ENDBRANCH  30  36
ENDBRANCH  15  30
TORSDOF 14
