REMARK  Name = ZINC39609162
REMARK  11 active torsions:
REMARK  status: ('A' for Active; 'I' for Inactive)
REMARK    1  A    between atoms: C_1  and  C_2
REMARK    2  A    between atoms: C_2  and  C_3
REMARK    3  A    between atoms: C_3  and  C_4
REMARK    4  A    between atoms: C_4  and  C_6
REMARK    5  A    between atoms: C_4  and  C_7
REMARK    6  A    between atoms: C_11  and  C_20
REMARK    7  A    between atoms: N_22  and  C_23
REMARK    8  A    between atoms: C_23  and  C_24
REMARK    9  A    between atoms: C_24  and  C_25
REMARK   10  A    between atoms: C_28  and  C_32
REMARK   11  A    between atoms: C_29  and  C_31
REMARK                            x       y       z     vdW  Elec       q    Type
REMARK                         _______ _______ _______ _____ _____    ______ ____
ROOT
ATOM      1  C   UNL     1       1.789  -2.745  -2.502  0.00  0.00    +0.218 C 
ATOM      2  O   UNL     1       2.452  -2.031  -3.224  0.00  0.00    -0.275 OA
ATOM      3  N   UNL     1       1.721  -4.070  -2.742  0.00  0.00    -0.300 N 
ATOM      4  C   UNL     1       0.886  -5.077  -2.046  0.00  0.00    +0.121 C 
ATOM      5  C   UNL     1       0.401  -6.023  -3.168  0.00  0.00    +0.100 C 
ATOM      6  C   UNL     1       1.442  -5.869  -4.289  0.00  0.00    -0.004 C 
ATOM      7  C   UNL     1       2.461  -4.847  -3.765  0.00  0.00    +0.115 C 
ATOM      8  C   UNL     1       0.779  -5.342  -5.558  0.00  0.00    -0.010 C 
ATOM      9  C   UNL     1       1.823  -5.252  -6.674  0.00  0.00    -0.082 C 
ATOM     10  N   UNL     1       2.400  -6.580  -6.916  0.00  0.00    +0.379 N 
ATOM     11  C   UNL     1       3.115  -7.040  -5.720  0.00  0.00    -0.082 C 
ATOM     12  C   UNL     1       2.126  -7.205  -4.562  0.00  0.00    -0.010 C 
ATOM     13  H   UNL     1       1.661  -7.231  -7.135  0.00  0.00    -0.086 HD
ATOM     14  H   UNL     1       3.042  -6.530  -7.692  0.00  0.00    -0.086 HD
ENDROOT
BRANCH   5  15
ATOM     15  C   UNL     1       0.364  -7.447  -2.674  0.00  0.00    +0.218 C 
ATOM     16  O   UNL     1       1.132  -7.808  -1.808  0.00  0.00    -0.275 OA
ATOM     17  N   UNL     1      -0.522  -8.318  -3.196  0.00  0.00    -0.315 N 
ATOM     18  H   UNL     1      -1.135  -8.029  -3.889  0.00  0.00    +0.149 HD
BRANCH  17  19
ATOM     19  C   UNL     1      -0.557  -9.702  -2.716  0.00  0.00    +0.109 C 
BRANCH  19  20
ATOM     20  C   UNL     1      -1.644 -10.474  -3.467  0.00  0.00    +0.054 C 
BRANCH  20  21
ATOM     21  C   UNL     1      -1.681 -11.897  -2.973  0.00  0.00    -0.046 A 
ATOM     22  C   UNL     1      -0.895 -12.860  -3.580  0.00  0.00    +0.004 A 
ATOM     23  C   UNL     1      -0.929 -14.165  -3.127  0.00  0.00    +0.004 A 
ATOM     24  C   UNL     1      -1.748 -14.509  -2.067  0.00  0.00    -0.048 A 
ATOM     25  C   UNL     1      -2.533 -13.546  -1.461  0.00  0.00    -0.047 A 
ATOM     26  C   UNL     1      -2.496 -12.240  -1.911  0.00  0.00    +0.007 A 
ATOM     27  C   UNL     1      -3.426 -13.921  -0.306  0.00  0.00    +0.044 C 
ATOM     28  C   UNL     1      -1.786 -15.932  -1.575  0.00  0.00    +0.044 C 
ENDBRANCH  20  21
ENDBRANCH  19  20
ENDBRANCH  17  19
ENDBRANCH   5  15
BRANCH   1  29
ATOM     29  C   UNL     1       1.041  -2.151  -1.337  0.00  0.00    +0.072 C 
ATOM     30  C   UNL     1      -0.355  -1.720  -1.792  0.00  0.00    +0.017 C 
BRANCH  29  31
ATOM     31  C   UNL     1       1.803  -0.935  -0.808  0.00  0.00    +0.012 C 
BRANCH  31  33
ATOM     32  C   UNL     1       1.873   0.810   0.980  0.00  0.00    +0.004 C 
ATOM     33  C   UNL     1       1.111  -0.407   0.451  0.00  0.00    -0.003 C 
ENDBRANCH  31  33
ENDBRANCH  29  31
ENDBRANCH   1  29
TORSDOF 7
