REMARK  Name = ZINC54020770
REMARK  9 active torsions:
REMARK  status: ('A' for Active; 'I' for Inactive)
REMARK    1  A    between atoms: C_5  and  C_7
REMARK    2  A    between atoms: C_7  and  C_9
REMARK    3  A    between atoms: C_7  and  N_21
REMARK    4  A    between atoms: C_9  and  C_10
REMARK    5  A    between atoms: C_10  and  N_11
REMARK    6  A    between atoms: N_11  and  C_12
REMARK    7  A    between atoms: N_11  and  C_15
REMARK    8  A    between atoms: C_12  and  C_13
REMARK    9  A    between atoms: C_13  and  O_14
REMARK                            x       y       z     vdW  Elec       q    Type
REMARK                         _______ _______ _______ _____ _____    ______ ____
ROOT
ATOM      1  C   UNL     1       1.655  -3.715   1.552  0.00  0.00    -0.077 C 
ENDROOT
BRANCH   1   2
ATOM      2  N   UNL     1       1.763  -4.548   2.757  0.00  0.00    +0.383 N 
ATOM      3  H   UNL     1       2.425  -4.134   3.394  0.00  0.00    -0.081 HD
BRANCH   2   4
ATOM      4  C   UNL     1       2.219  -5.894   2.383  0.00  0.00    -0.068 C 
ATOM      5  C   UNL     1       3.639  -5.812   1.819  0.00  0.00    -0.015 C 
ATOM      6  C   UNL     1       4.114  -7.214   1.430  0.00  0.00    -0.002 C 
ATOM      7  C   UNL     1       3.177  -7.793   0.369  0.00  0.00    -0.000 C 
ATOM      8  C   UNL     1       1.757  -7.875   0.932  0.00  0.00    -0.002 C 
ATOM      9  C   UNL     1       1.282  -6.474   1.322  0.00  0.00    -0.015 C 
ENDBRANCH   2   4
BRANCH   2  10
ATOM     10  C   UNL     1       0.449  -4.640   3.407  0.00  0.00    -0.050 C 
BRANCH  10  11
ATOM     11  C   UNL     1       0.589  -5.384   4.737  0.00  0.00    +0.137 C 
BRANCH  11  12
ATOM     12  O   UNL     1       1.439  -4.640   5.612  0.00  0.00    -0.397 OA
ATOM     13  H   UNL     1       1.573  -5.053   6.476  0.00  0.00    +0.209 HD
ENDBRANCH  11  12
ENDBRANCH  10  11
ENDBRANCH   2  10
ENDBRANCH   1   2
BRANCH   1  14
ATOM     14  C   UNL     1       1.301  -2.282   1.952  0.00  0.00    +0.005 C 
BRANCH  14  15
ATOM     15  C   UNL     1       1.189  -1.414   0.697  0.00  0.00    +0.080 C 
BRANCH  15  20
ATOM     16  C   UNL     1      -0.531   1.843   1.526  0.00  0.00    +0.000 A 
ATOM     17  C   UNL     1       0.545   2.655   1.831  0.00  0.00    +0.001 A 
ATOM     18  C   UNL     1       1.831   2.151   1.768  0.00  0.00    +0.015 A 
ATOM     19  C   UNL     1       2.040   0.833   1.402  0.00  0.00    +0.023 A 
ATOM     20  C   UNL     1       0.962   0.021   1.097  0.00  0.00    -0.017 A 
ATOM     21  C   UNL     1      -0.323   0.526   1.160  0.00  0.00    +0.006 A 
ATOM     22 BR   UNL     1       3.798   0.143   1.316  0.00  0.00    -0.050 Br
ENDBRANCH  15  20
BRANCH  15  23
ATOM     23  N   UNL     1       0.061  -1.879  -0.120  0.00  0.00    -0.324 NA
ATOM     24  H   UNL     1      -0.806  -1.819   0.393  0.00  0.00    +0.119 HD
ATOM     25  H   UNL     1       0.005  -1.363  -0.986  0.00  0.00    +0.119 HD
ENDBRANCH  15  23
ENDBRANCH  14  15
ENDBRANCH   1  14
TORSDOF 9
