REMARK  Name = ZINC02872481
REMARK  7 active torsions:
REMARK  status: ('A' for Active; 'I' for Inactive)
REMARK    1  A    between atoms: C_1  and  C_2
REMARK    2  A    between atoms: C_3  and  C_15
REMARK    3  A    between atoms: N_6  and  C_9
REMARK    4  A    between atoms: C_15  and  C_36
REMARK    5  A    between atoms: N_23  and  C_28
REMARK    6  A    between atoms: C_28  and  C_29
REMARK    7  A    between atoms: C_29  and  C_30
REMARK                            x       y       z     vdW  Elec       q    Type
REMARK                         _______ _______ _______ _____ _____    ______ ____
ROOT
ATOM      1  C   UNL     1      -0.012  -0.003  -0.004  0.00  0.00    +0.206 C 
ATOM      2  C   UNL     1      -1.380  -0.584   0.266  0.00  0.00    +0.084 A 
ATOM      3  C   UNL     1      -2.603  -0.513  -0.413  0.00  0.00    +0.261 A 
ATOM      4  O   UNL     1      -2.696   0.123  -1.448  0.00  0.00    -0.267 OA
ATOM      5  N   UNL     1      -3.677  -1.156   0.092  0.00  0.00    -0.275 N 
ATOM      6  H   UNL     1      -4.555  -1.111  -0.385  0.00  0.00    +0.173 HD
ATOM      7  C   UNL     1      -3.569  -1.857   1.235  0.00  0.00    +0.331 A 
ATOM      8  O   UNL     1      -4.546  -2.431   1.676  0.00  0.00    -0.246 OA
ATOM      9  N   UNL     1      -2.404  -1.937   1.900  0.00  0.00    -0.281 N 
ATOM     10  C   UNL     1      -1.279  -1.297   1.424  0.00  0.00    +0.119 A 
ATOM     11  N   UNL     1      -0.002  -1.238   1.927  0.00  0.00    -0.270 N 
ATOM     12  C   UNL     1       0.821  -0.501   1.160  0.00  0.00    +0.242 C 
ATOM     13  O   UNL     1       1.996  -0.279   1.360  0.00  0.00    -0.274 OA
ATOM     14  H   UNL     1       0.276  -1.680   2.745  0.00  0.00    +0.156 HD
ENDROOT
BRANCH   1  17
ATOM     15  C   UNL     1       0.153  -2.992  -0.864  0.00  0.00    +0.065 C 
ATOM     16  C   UNL     1       0.610  -1.812  -1.683  0.00  0.00    +0.040 A 
ATOM     17  C   UNL     1       0.538  -0.518  -1.309  0.00  0.00    +0.067 A 
ATOM     18  C   UNL     1       1.075   0.271  -2.354  0.00  0.00    +0.277 A 
ATOM     19  O   UNL     1       1.174   1.485  -2.360  0.00  0.00    -0.265 OA
ATOM     20  N   UNL     1       1.456  -0.564  -3.341  0.00  0.00    -0.219 N 
ATOM     21  N   UNL     1       1.165  -1.872  -2.929  0.00  0.00    -0.294 N 
ATOM     22  H   UNL     1       1.332  -2.679  -3.440  0.00  0.00    +0.187 HD
BRANCH  20  23
ATOM     23  C   UNL     1       2.038  -0.193  -4.558  0.00  0.00    +0.067 A 
ATOM     24  C   UNL     1       2.266   1.148  -4.839  0.00  0.00    +0.028 A 
ATOM     25  C   UNL     1       2.846   1.512  -6.038  0.00  0.00    +0.002 A 
ATOM     26  C   UNL     1       3.189   0.543  -6.964  0.00  0.00    +0.000 A 
ATOM     27  C   UNL     1       2.958  -0.792  -6.689  0.00  0.00    +0.002 A 
ATOM     28  C   UNL     1       2.383  -1.163  -5.489  0.00  0.00    +0.028 A 
ENDBRANCH  20  23
ENDBRANCH   1  17
BRANCH   1  29
ATOM     29  C   UNL     1      -0.069   1.526  -0.011  0.00  0.00    +0.412 C 
ATOM     30  F   UNL     1       1.232   2.040  -0.060  0.00  0.00    -0.169 F 
ATOM     31  F   UNL     1      -0.784   1.961  -1.132  0.00  0.00    -0.169 F 
ATOM     32  F   UNL     1      -0.705   1.975   1.151  0.00  0.00    -0.169 F 
ENDBRANCH   1  29
BRANCH   9  33
ATOM     33  C   UNL     1      -2.328  -2.711   3.142  0.00  0.00    +0.133 C 
BRANCH  33  34
ATOM     34  C   UNL     1      -2.653  -1.803   4.329  0.00  0.00    +0.057 C 
BRANCH  34  35
ATOM     35  C   UNL     1      -2.575  -2.599   5.606  0.00  0.00    -0.046 A 
ATOM     36  C   UNL     1      -3.700  -3.239   6.092  0.00  0.00    +0.004 A 
ATOM     37  C   UNL     1      -3.627  -3.973   7.261  0.00  0.00    +0.000 A 
ATOM     38  C   UNL     1      -2.432  -4.059   7.950  0.00  0.00    +0.000 A 
ATOM     39  C   UNL     1      -1.308  -3.415   7.467  0.00  0.00    +0.000 A 
ATOM     40  C   UNL     1      -1.380  -2.685   6.296  0.00  0.00    +0.004 A 
ENDBRANCH  34  35
ENDBRANCH  33  34
ENDBRANCH   9  33
TORSDOF 6
