REMARK  Name = ZINC08766413
REMARK  12 active torsions:
REMARK  status: ('A' for Active; 'I' for Inactive)
REMARK    1  A    between atoms: C_1  and  C_2
REMARK    2  A    between atoms: C_2  and  O_3
REMARK    3  A    between atoms: O_3  and  C_4
REMARK    4  A    between atoms: C_4  and  C_6
REMARK    5  A    between atoms: C_7  and  C_26
REMARK    6  A    between atoms: C_10  and  N_11
REMARK    7  A    between atoms: C_12  and  C_14
REMARK    8  A    between atoms: C_14  and  N_66
REMARK    9  A    between atoms: C_16  and  C_25
REMARK   10  A    between atoms: C_21  and  C_23
REMARK   11  A    between atoms: C_21  and  C_24
REMARK   12  A    between atoms: C_29  and  C_32
REMARK                            x       y       z     vdW  Elec       q    Type
REMARK                         _______ _______ _______ _____ _____    ______ ____
ROOT
ATOM      1  C   UNL     1      -5.454  -3.847   1.293  0.00  0.00    +0.095 A 
ATOM      2  C   UNL     1      -6.426  -4.551   0.477  0.00  0.00    +0.005 A 
ATOM      3  C   UNL     1      -6.921  -3.882  -0.596  0.00  0.00    +0.056 A 
ATOM      4  S   UNL     1      -6.094  -2.307  -0.514  0.00  0.00    -0.080 S 
ATOM      5  C   UNL     1      -5.124  -2.558   0.898  0.00  0.00    +0.086 A 
ENDROOT
BRANCH   2   6
ATOM      6  C   UNL     1      -6.856  -5.932   0.799  0.00  0.00    -0.017 A 
ATOM      7  C   UNL     1      -5.906  -6.924   1.036  0.00  0.00    +0.009 A 
ATOM      8  C   UNL     1      -6.313  -8.207   1.341  0.00  0.00    +0.004 A 
ATOM      9  C   UNL     1      -7.661  -8.512   1.399  0.00  0.00    -0.050 A 
ATOM     10  C   UNL     1      -8.609  -7.533   1.159  0.00  0.00    +0.004 A 
ATOM     11  C   UNL     1      -8.214  -6.246   0.859  0.00  0.00    +0.009 A 
ATOM     12  C   UNL     1      -8.099  -9.917   1.726  0.00  0.00    +0.044 C 
ENDBRANCH   2   6
BRANCH   5  13
ATOM     13  N   UNL     1      -4.234  -1.679   1.495  0.00  0.00    -0.281 N 
ATOM     14  C   UNL     1      -4.039  -0.454   0.966  0.00  0.00    +0.201 C 
ATOM     15  O   UNL     1      -4.642  -0.122  -0.033  0.00  0.00    -0.278 OA
ATOM     16  H   UNL     1      -3.752  -1.944   2.293  0.00  0.00    +0.155 HD
BRANCH  14  17
ATOM     17  C   UNL     1      -3.072   0.502   1.615  0.00  0.00    +0.019 C 
BRANCH  17  28
ATOM     18  C   UNL     1      -2.988   1.561  -0.595  0.00  0.00    -0.071 C 
ATOM     19  C   UNL     1      -2.026   2.647  -1.134  0.00  0.00    -0.048 C 
ATOM     20  C   UNL     1      -1.939   3.671   0.031  0.00  0.00    -0.011 C 
ATOM     21  C   UNL     1      -1.977   2.689   1.237  0.00  0.00    -0.067 C 
ATOM     22  C   UNL     1      -0.617   2.016   1.315  0.00  0.00    -0.009 C 
ATOM     23  C   UNL     1      -0.019   1.538   0.011  0.00  0.00    -0.036 C 
ATOM     24  C   UNL     1      -0.639   2.024  -1.282  0.00  0.00    +0.011 C 
ATOM     25  C   UNL     1       0.002  -0.004   0.002  0.00  0.00    +0.011 C 
ATOM     26  C   UNL     1       1.467   1.983  -0.001  0.00  0.00    +0.011 C 
ATOM     27  C   UNL     1      -2.536   3.282  -2.435  0.00  0.00    +0.009 C 
ATOM     28  N   UNL     1      -3.087   1.792   0.846  0.00  0.00    +0.388 N 
ATOM     29  H   UNL     1      -3.977   2.266   1.043  0.00  0.00    -0.081 HD
ENDBRANCH  17  28
ENDBRANCH  14  17
ENDBRANCH   5  13
BRANCH   1  30
ATOM     30  C   UNL     1      -4.851  -4.466   2.473  0.00  0.00    +0.342 C 
ATOM     31  O   UNL     1      -5.379  -4.342   3.562  0.00  0.00    -0.245 OA
BRANCH  30  32
ATOM     32  O   UNL     1      -3.710  -5.175   2.354  0.00  0.00    -0.461 OA
BRANCH  32  34
ATOM     33  C   UNL     1      -1.883  -6.522   3.237  0.00  0.00    +0.048 C 
ATOM     34  C   UNL     1      -3.168  -5.761   3.567  0.00  0.00    +0.229 C 
ENDBRANCH  32  34
ENDBRANCH  30  32
ENDBRANCH   1  30
TORSDOF 7
