REMARK  Name = ZINC19482942
REMARK  2 active torsions:
REMARK  status: ('A' for Active; 'I' for Inactive)
REMARK    1  A    between atoms: C_16  and  C_19
REMARK    2  A    between atoms: C_19  and  N_21
REMARK                            x       y       z     vdW  Elec       q    Type
REMARK                         _______ _______ _______ _____ _____    ______ ____
ROOT
ATOM      1  C   UNL     1      -1.221   1.761   0.017  0.00  0.00    +0.005 A 
ATOM      2  C   UNL     1      -0.013   1.076   0.008  0.00  0.00    +0.018 A 
ATOM      3  C   UNL     1       1.169   1.789   0.001  0.00  0.00    +0.084 A 
ATOM      4  N   UNL     1       1.163   3.109   0.007  0.00  0.00    -0.350 N 
ATOM      5  C   UNL     1       0.033   3.798   0.021  0.00  0.00    +0.099 A 
ATOM      6  C   UNL     1      -1.195   3.144   0.029  0.00  0.00    +0.042 A 
ATOM      7  N   UNL     1       0.073   5.187   0.028  0.00  0.00    -0.314 N 
ATOM      8  C   UNL     1      -0.685   5.742  -1.102  0.00  0.00    +0.125 C 
ATOM      9  C   UNL     1      -0.683   7.270  -1.014  0.00  0.00    +0.125 C 
ATOM     10  N   UNL     1       0.704   7.756  -1.024  0.00  0.00    -0.312 N 
ATOM     11  C   UNL     1       1.462   7.202   0.107  0.00  0.00    +0.125 C 
ATOM     12  C   UNL     1       1.460   5.674   0.018  0.00  0.00    +0.125 C 
ATOM     13  C   UNL     1       0.744   9.141  -1.016  0.00  0.00    +0.121 A 
ATOM     14  C   UNL     1       0.085   9.853  -2.018  0.00  0.00    +0.044 A 
ATOM     15  C   UNL     1       0.122  11.221  -2.004  0.00  0.00    +0.015 A 
ATOM     16  C   UNL     1       0.837  11.862  -0.981  0.00  0.00    +0.021 A 
ATOM     17  C   UNL     1       1.479  11.085  -0.014  0.00  0.00    +0.123 A 
ATOM     18  N   UNL     1       1.413   9.771  -0.060  0.00  0.00    -0.240 NA
ATOM     19  H   UNL     1       2.113   3.663   0.001  0.00  0.00    +0.166 HD
ENDROOT
BRANCH  16  20
ATOM     20  C   UNL     1       0.910  13.332  -0.927  0.00  0.00    +0.078 C 
ATOM     21  S   UNL     1       0.972  14.240  -2.378  0.00  0.00    -0.035 S 
BRANCH  20  22
ATOM     22  N   UNL     1       0.928  13.963   0.264  0.00  0.00    -0.352 N 
ATOM     23  H   UNL     1       0.983  15.061   0.303  0.00  0.00    +0.143 HD
ATOM     24  H   UNL     1       0.889  13.381   1.196  0.00  0.00    +0.143 HD
ENDBRANCH  20  22
ENDBRANCH  16  20
TORSDOF 2
