REMARK  Name = ZINC44560209
REMARK  5 active torsions:
REMARK  status: ('A' for Active; 'I' for Inactive)
REMARK    1  A    between atoms: C_1  and  C_2
REMARK    2  A    between atoms: C_2  and  C_4
REMARK    3  A    between atoms: N_9  and  C_10
REMARK    4  A    between atoms: C_10  and  C_11
REMARK    5  A    between atoms: N_16  and  C_18
REMARK                            x       y       z     vdW  Elec       q    Type
REMARK                         _______ _______ _______ _____ _____    ______ ____
ROOT
ATOM      1  C   UNL     1       0.731  -0.503   1.223  0.00  0.00    +0.238 C 
ATOM      2  O   UNL     1       1.780   0.007   1.554  0.00  0.00    -0.274 OA
ATOM      3  N   UNL     1       0.217  -1.517   1.947  0.00  0.00    -0.239 N 
ATOM      4  C   UNL     1       0.869  -1.964   3.039  0.00  0.00    +0.306 C 
ATOM      5  O   UNL     1       1.920  -1.452   3.371  0.00  0.00    -0.252 OA
ATOM      6  N   UNL     1       0.355  -2.977   3.763  0.00  0.00    -0.299 N 
ATOM      7  H   UNL     1      -0.622  -1.925   1.682  0.00  0.00    +0.159 HD
ATOM      8  H   UNL     1      -0.484  -3.386   3.498  0.00  0.00    +0.150 HD
ENDROOT
BRANCH   1  10
ATOM      9  C   UNL     1      -0.019   1.526   0.010  0.00  0.00    +0.034 C 
ATOM     10  C   UNL     1       0.002  -0.004   0.002  0.00  0.00    +0.163 C 
ATOM     11 CL   UNL     1       0.846  -0.586  -1.481  0.00  0.00    -0.112 Cl
ENDBRANCH   1  10
BRANCH   6  12
ATOM     12  C   UNL     1       1.063  -3.463   4.950  0.00  0.00    +0.107 C 
BRANCH  12  13
ATOM     13  C   UNL     1       0.272  -4.609   5.583  0.00  0.00    -0.011 C 
ATOM     14  C   UNL     1      -1.068  -4.079   6.103  0.00  0.00    +0.001 C 
ATOM     15  C   UNL     1      -1.818  -5.216   6.803  0.00  0.00    -0.018 C 
ATOM     16  C   UNL     1      -0.944  -5.781   7.925  0.00  0.00    -0.079 C 
ATOM     17  N   UNL     1       0.310  -6.295   7.361  0.00  0.00    +0.378 N 
ATOM     18  C   UNL     1       1.069  -5.197   6.750  0.00  0.00    -0.074 C 
ATOM     19  C   UNL     1       1.112  -6.906   8.430  0.00  0.00    -0.096 C 
ATOM     20  H   UNL     1       0.103  -6.989   6.660  0.00  0.00    -0.082 HD
ENDBRANCH  12  13
ENDBRANCH   6  12
TORSDOF 3
