REMARK  Name = ZINC35231439
REMARK  7 active torsions:
REMARK  status: ('A' for Active; 'I' for Inactive)
REMARK    1  A    between atoms: C_1  and  C_2
REMARK    2  A    between atoms: C_2  and  C_4
REMARK    3  A    between atoms: C_2  and  N_11
REMARK    4  A    between atoms: N_11  and  C_12
REMARK    5  A    between atoms: C_12  and  C_13
REMARK    6  A    between atoms: C_16  and  O_20
REMARK    7  A    between atoms: C_17  and  O_19
REMARK                            x       y       z     vdW  Elec       q    Type
REMARK                         _______ _______ _______ _____ _____    ______ ____
ROOT
ATOM      1  N   UNL     1       0.690  -0.478  -1.207  0.00  0.00    +0.386 N 
ATOM      2  H   UNL     1       1.608  -0.063  -1.256  0.00  0.00    -0.085 HD
ATOM      3  H   UNL     1       0.776  -1.482  -1.172  0.00  0.00    -0.085 HD
ENDROOT
BRANCH   1   5
ATOM      4  C   UNL     1      -0.019   1.526   0.010  0.00  0.00    -0.009 C 
ATOM      5  C   UNL     1       0.002  -0.004   0.002  0.00  0.00    -0.044 C 
BRANCH   5   6
ATOM      6  C   UNL     1       0.731  -0.503   1.223  0.00  0.00    -0.061 A 
ATOM      7  C   UNL     1       2.113  -0.514   1.247  0.00  0.00    +0.002 A 
ATOM      8  C   UNL     1       2.782  -0.971   2.366  0.00  0.00    +0.001 A 
ATOM      9  C   UNL     1       2.070  -1.419   3.463  0.00  0.00    +0.015 A 
ATOM     10  C   UNL     1       0.687  -1.409   3.440  0.00  0.00    +0.018 A 
ATOM     11  C   UNL     1       0.018  -0.945   2.321  0.00  0.00    +0.017 A 
ATOM     12 BR   UNL     1      -0.289  -2.021   4.939  0.00  0.00    -0.050 Br
ENDBRANCH   5   6
ENDBRANCH   1   5
BRANCH   1  13
ATOM     13  C   UNL     1      -0.086  -0.093  -2.394  0.00  0.00    -0.046 C 
BRANCH  13  14
ATOM     14  C   UNL     1       0.620  -0.579  -3.634  0.00  0.00    -0.061 A 
ATOM     15  C   UNL     1       1.552   0.229  -4.258  0.00  0.00    +0.005 A 
ATOM     16  C   UNL     1       2.201  -0.213  -5.396  0.00  0.00    +0.049 A 
ATOM     17  C   UNL     1       1.920  -1.467  -5.912  0.00  0.00    +0.158 A 
ATOM     18  C   UNL     1       0.982  -2.280  -5.283  0.00  0.00    +0.158 A 
ATOM     19  C   UNL     1       0.338  -1.834  -4.140  0.00  0.00    +0.051 A 
BRANCH  18  20
ATOM     20  O   UNL     1       0.702  -3.513  -5.786  0.00  0.00    -0.503 OA
ATOM     21  H   UNL     1       1.259  -4.218  -5.431  0.00  0.00    +0.292 HD
ENDBRANCH  18  20
BRANCH  17  22
ATOM     22  O   UNL     1       2.558  -1.903  -7.031  0.00  0.00    -0.503 OA
ATOM     23  H   UNL     1       3.381  -2.378  -6.855  0.00  0.00    +0.292 HD
ENDBRANCH  17  22
ENDBRANCH  13  14
ENDBRANCH   1  13
TORSDOF 6
