REMARK  Name = ZINC12902407
REMARK  8 active torsions:
REMARK  status: ('A' for Active; 'I' for Inactive)
REMARK    1  A    between atoms: C_1  and  C_2
REMARK    2  A    between atoms: C_16  and  C_18
REMARK    3  A    between atoms: C_18  and  C_19
REMARK    4  A    between atoms: C_19  and  C_20
REMARK    5  A    between atoms: N_25  and  C_28
REMARK    6  A    between atoms: C_28  and  C_29
REMARK    7  A    between atoms: C_29  and  O_30
REMARK    8  A    between atoms: O_30  and  C_31
REMARK                            x       y       z     vdW  Elec       q    Type
REMARK                         _______ _______ _______ _____ _____    ______ ____
ROOT
ATOM      1  C   UNL     1      -6.465   2.484  -4.092  0.00  0.00    +0.045 C 
ATOM      2  C   UNL     1      -6.773   1.919  -2.729  0.00  0.00    -0.029 A 
ATOM      3  C   UNL     1      -8.033   2.076  -2.188  0.00  0.00    +0.005 A 
ATOM      4  C   UNL     1      -8.325   1.562  -0.939  0.00  0.00    +0.001 A 
ATOM      5  C   UNL     1      -7.350   0.885  -0.227  0.00  0.00    +0.004 A 
ATOM      6  C   UNL     1      -6.092   0.725  -0.763  0.00  0.00    -0.027 A 
ATOM      7  C   UNL     1      -5.786   1.239  -2.020  0.00  0.00    +0.039 A 
ATOM      8  N   UNL     1      -4.459   0.955  -2.348  0.00  0.00    -0.286 N 
ATOM      9  C   UNL     1      -3.832   0.265  -1.376  0.00  0.00    +0.211 C 
ATOM     10  O   UNL     1      -2.681  -0.118  -1.386  0.00  0.00    -0.277 OA
ATOM     11  C   UNL     1      -4.836   0.061  -0.274  0.00  0.00    +0.050 C 
ATOM     12  C   UNL     1      -4.352   0.673   1.046  0.00  0.00    +0.088 C 
ATOM     13  C   UNL     1      -3.768  -0.526   1.843  0.00  0.00    +0.073 C 
ATOM     14  C   UNL     1      -3.937  -1.743   0.908  0.00  0.00    -0.057 C 
ATOM     15  C   UNL     1      -2.298  -0.188   1.954  0.00  0.00    +0.224 C 
ATOM     16  O   UNL     1      -1.464  -0.865   2.514  0.00  0.00    -0.275 OA
ATOM     17  N   UNL     1      -2.062   0.977   1.338  0.00  0.00    -0.240 N 
ATOM     18  C   UNL     1      -3.144   1.548   0.797  0.00  0.00    +0.225 C 
ATOM     19  O   UNL     1      -3.155   2.602   0.199  0.00  0.00    -0.275 OA
ATOM     20  H   UNL     1      -4.037   1.222  -3.180  0.00  0.00    +0.155 HD
ATOM     21  N   UNL     1      -5.026  -1.350   0.011  0.00  0.00    +0.394 N 
ATOM     22  H   UNL     1      -4.985  -1.897  -0.857  0.00  0.00    -0.083 HD
ATOM     23  H   UNL     1      -5.934  -1.501   0.467  0.00  0.00    -0.083 HD
ENDROOT
BRANCH  14  24
ATOM     24  C   UNL     1      -4.303  -2.989   1.717  0.00  0.00    -0.006 C 
BRANCH  24  25
ATOM     25  C   UNL     1      -4.343  -4.205   0.790  0.00  0.00    +0.094 C 
BRANCH  25  26
ATOM     26  C   UNL     1      -4.703  -5.433   1.587  0.00  0.00    +0.210 C 
ATOM     27  O   UNL     1      -4.907  -5.344   2.779  0.00  0.00    -0.276 OA
ATOM     28  N   UNL     1      -4.798  -6.630   0.974  0.00  0.00    -0.329 N 
ATOM     29  H   UNL     1      -4.636  -6.701   0.021  0.00  0.00    +0.145 HD
ATOM     30  H   UNL     1      -5.030  -7.420   1.487  0.00  0.00    +0.145 HD
ENDBRANCH  25  26
ENDBRANCH  24  25
ENDBRANCH  14  24
BRANCH  17  31
ATOM     31  C   UNL     1      -0.729   1.579   1.267  0.00  0.00    +0.144 C 
BRANCH  31  32
ATOM     32  C   UNL     1      -0.013   1.086   0.008  0.00  0.00    +0.179 C 
BRANCH  32  33
ATOM     33  O   UNL     1      -0.704   1.559  -1.150  0.00  0.00    -0.381 OA
ATOM     34  C   UNL     1      -0.114   1.152  -2.386  0.00  0.00    +0.194 C 
ENDBRANCH  32  33
ENDBRANCH  31  32
ENDBRANCH  17  31
TORSDOF 6
