REMARK  Name = ZINC01559227
REMARK  4 active torsions:
REMARK  status: ('A' for Active; 'I' for Inactive)
REMARK    1  A    between atoms: C_6  and  CA_7
REMARK    2  A    between atoms: C_6  and  N_49
REMARK    3  A    between atoms: CA_12  and  C_17
REMARK    4  A    between atoms: C_17  and  N_51
REMARK                            x       y       z     vdW  Elec       q    Type
REMARK                         _______ _______ _______ _____ _____    ______ ____
ROOT
ATOM      1  CA  UNL     1      -0.018   1.102   0.014  0.00  0.00    +0.142 C 
ATOM      2  C   UNL     1      -0.675   1.450  -1.287  0.00  0.00    +0.232 C 
ATOM      3  O   UNL     1      -0.034   1.340  -2.310  0.00  0.00    -0.274 OA
ATOM      4  N   UNL     1      -1.938   1.877  -1.369  0.00  0.00    -0.304 N 
ATOM      5  CA  UNL     1      -2.793   2.042  -0.201  0.00  0.00    +0.142 C 
ATOM      6  C   UNL     1      -1.983   2.138   1.057  0.00  0.00    +0.232 C 
ATOM      7  O   UNL     1      -2.494   2.629   2.041  0.00  0.00    -0.274 OA
ATOM      8  N   UNL     1      -0.721   1.706   1.139  0.00  0.00    -0.304 N 
ATOM      9  H   UNL     1      -2.302   2.087  -2.243  0.00  0.00    +0.149 HD
ATOM     10  H   UNL     1      -0.252   1.799   1.983  0.00  0.00    +0.149 HD
ENDROOT
BRANCH   1  11
ATOM     11  C   UNL     1       1.426   1.606  -0.003  0.00  0.00    -0.047 C 
BRANCH  11  17
ATOM     12  C   UNL     1       4.161   0.477   3.084  0.00  0.00    -0.004 C 
ATOM     13  C   UNL     1       2.929  -0.391   2.814  0.00  0.00    -0.019 C 
ATOM     14  C   UNL     1       2.406  -0.102   1.405  0.00  0.00    -0.079 C 
ATOM     15  C   UNL     1       3.238   2.172   1.499  0.00  0.00    -0.079 C 
ATOM     16  C   UNL     1       3.785   1.951   2.912  0.00  0.00    -0.019 C 
ATOM     17  N   UNL     1       2.039   1.327   1.312  0.00  0.00    +0.381 N 
ATOM     18  H   UNL     1       1.360   1.545   2.050  0.00  0.00    -0.082 HD
ENDBRANCH  11  17
ENDBRANCH   1  11
BRANCH   5  19
ATOM     19  C   UNL     1      -3.736   0.842  -0.099  0.00  0.00    -0.047 C 
BRANCH  19  25
ATOM     20  C   UNL     1      -5.343   1.802  -1.634  0.00  0.00    -0.079 C 
ATOM     21  C   UNL     1      -5.954   1.660  -3.030  0.00  0.00    -0.019 C 
ATOM     22  C   UNL     1      -6.731   0.343  -3.109  0.00  0.00    -0.004 C 
ATOM     23  C   UNL     1      -5.787  -0.818  -2.785  0.00  0.00    -0.019 C 
ATOM     24  C   UNL     1      -5.181  -0.604  -1.397  0.00  0.00    -0.079 C 
ATOM     25  N   UNL     1      -4.426   0.668  -1.394  0.00  0.00    +0.381 N 
ATOM     26  H   UNL     1      -3.726   0.641  -2.144  0.00  0.00    -0.082 HD
ENDBRANCH  19  25
ENDBRANCH   5  19
TORSDOF 4
