REMARK  Name = ZINC39675306
REMARK  10 active torsions:
REMARK  status: ('A' for Active; 'I' for Inactive)
REMARK    1  A    between atoms: C_1  and  C_2
REMARK    2  A    between atoms: C_2  and  C_4
REMARK    3  A    between atoms: C_2  and  N_14
REMARK    4  A    between atoms: C_4  and  C_5
REMARK    5  A    between atoms: C_5  and  C_6
REMARK    6  A    between atoms: C_9  and  O_12
REMARK    7  A    between atoms: O_12  and  C_13
REMARK    8  A    between atoms: C_15  and  C_17
REMARK    9  A    between atoms: C_28  and  C_30
REMARK   10  A    between atoms: C_30  and  C_36
REMARK                            x       y       z     vdW  Elec       q    Type
REMARK                         _______ _______ _______ _____ _____    ______ ____
ROOT
ATOM      1  C   UNL     1       0.789  -1.118   3.596  0.00  0.00    +0.100 C 
ATOM      2  C   UNL     1       1.200  -2.594   3.401  0.00  0.00    +0.121 C 
ATOM      3  N   UNL     1       1.010  -3.215   4.734  0.00  0.00    -0.300 N 
ATOM      4  C   UNL     1      -0.237  -2.603   5.251  0.00  0.00    +0.115 C 
ATOM      5  C   UNL     1      -0.155  -1.128   4.811  0.00  0.00    -0.004 C 
ATOM      6  C   UNL     1      -1.536  -0.619   4.410  0.00  0.00    -0.010 C 
ATOM      7  C   UNL     1      -2.440  -0.583   5.646  0.00  0.00    -0.082 C 
ATOM      8  N   UNL     1      -1.848   0.296   6.662  0.00  0.00    +0.379 N 
ATOM      9  C   UNL     1      -0.561  -0.250   7.109  0.00  0.00    -0.082 C 
ATOM     10  C   UNL     1       0.422  -0.272   5.935  0.00  0.00    -0.010 C 
ATOM     11  C   UNL     1       1.794  -4.129   5.338  0.00  0.00    +0.222 C 
ATOM     12  O   UNL     1       1.460  -4.606   6.402  0.00  0.00    -0.275 OA
ATOM     13  H   UNL     1      -1.704   1.214   6.267  0.00  0.00    -0.086 HD
ATOM     14  H   UNL     1      -2.474   0.367   7.450  0.00  0.00    -0.086 HD
ENDROOT
BRANCH  11  15
ATOM     15  C   UNL     1       3.087  -4.559   4.693  0.00  0.00    +0.044 C 
ATOM     16  C   UNL     1       2.806  -5.064   3.276  0.00  0.00    +0.016 C 
ATOM     17  C   UNL     1       1.848  -6.255   3.341  0.00  0.00    +0.001 C 
ATOM     18  C   UNL     1       2.483  -7.377   4.166  0.00  0.00    +0.000 C 
ATOM     19  C   UNL     1       2.763  -6.871   5.583  0.00  0.00    +0.001 C 
ATOM     20  C   UNL     1       3.721  -5.679   5.518  0.00  0.00    +0.016 C 
ATOM     21  C   UNL     1       4.045  -3.367   4.628  0.00  0.00    +0.021 C 
ENDBRANCH  11  15
BRANCH   1  23
ATOM     22  N   UNL     1      -0.013   0.717   2.144  0.00  0.00    -0.312 N 
ATOM     23  C   UNL     1       0.068  -0.608   2.375  0.00  0.00    +0.218 C 
ATOM     24  O   UNL     1      -0.441  -1.391   1.601  0.00  0.00    -0.275 OA
ATOM     25  H   UNL     1       0.394   1.343   2.764  0.00  0.00    +0.149 HD
BRANCH  22  27
ATOM     26  C   UNL     1      -2.210   1.323   1.258  0.00  0.00    +0.028 C 
ATOM     27  C   UNL     1      -0.714   1.212   0.957  0.00  0.00    +0.070 C 
BRANCH  27  28
ATOM     28  C   UNL     1      -0.167   2.591   0.580  0.00  0.00    +0.026 C 
BRANCH  28  29
ATOM     29  C   UNL     1       1.298   2.460   0.159  0.00  0.00    +0.037 C 
BRANCH  29  30
ATOM     30  C   UNL     1       1.837   3.817  -0.213  0.00  0.00    -0.047 A 
ATOM     31  C   UNL     1       1.738   4.266  -1.517  0.00  0.00    +0.007 A 
ATOM     32  C   UNL     1       2.231   5.509  -1.861  0.00  0.00    +0.046 A 
ATOM     33  C   UNL     1       2.827   6.308  -0.896  0.00  0.00    +0.120 A 
ATOM     34  C   UNL     1       2.925   5.856   0.412  0.00  0.00    +0.046 A 
ATOM     35  C   UNL     1       2.426   4.614   0.752  0.00  0.00    +0.007 A 
BRANCH  33  36
ATOM     36  O   UNL     1       3.314   7.532  -1.231  0.00  0.00    -0.495 OA
ATOM     37  C   UNL     1       3.914   8.300  -0.187  0.00  0.00    +0.277 C 
ENDBRANCH  33  36
ENDBRANCH  29  30
ENDBRANCH  28  29
ENDBRANCH  27  28
ENDBRANCH  22  27
ENDBRANCH   1  23
TORSDOF 7
