REMARK  Name = ZINC40008870
REMARK  11 active torsions:
REMARK  status: ('A' for Active; 'I' for Inactive)
REMARK    1  A    between atoms: C_1  and  C_2
REMARK    2  A    between atoms: C_2  and  N_3
REMARK    3  A    between atoms: N_3  and  C_4
REMARK    4  A    between atoms: N_3  and  C_6
REMARK    5  A    between atoms: C_4  and  C_5
REMARK    6  A    between atoms: C_6  and  C_7
REMARK    7  A    between atoms: C_7  and  C_8
REMARK    8  A    between atoms: C_8  and  N_9
REMARK    9  A    between atoms: C_10  and  C_27
REMARK   10  A    between atoms: C_17  and  C_26
REMARK   11  A    between atoms: C_18  and  C_25
REMARK                            x       y       z     vdW  Elec       q    Type
REMARK                         _______ _______ _______ _____ _____    ______ ____
ROOT
ATOM      1  N   UNL     1      -4.267  -4.657   0.103  0.00  0.00    -0.284 N 
ATOM      2  C   UNL     1      -5.231  -4.811   1.204  0.00  0.00    +0.144 C 
ATOM      3  C   UNL     1      -6.473  -5.363   0.585  0.00  0.00    +0.072 A 
ATOM      4  C   UNL     1      -7.764  -5.733   1.173  0.00  0.00    +0.199 A 
ATOM      5  O   UNL     1      -8.076  -5.465   2.320  0.00  0.00    -0.287 OA
ATOM      6  C   UNL     1      -8.656  -6.464   0.238  0.00  0.00    +0.065 A 
ATOM      7  C   UNL     1      -9.831  -7.056   0.700  0.00  0.00    +0.019 A 
ATOM      8  C   UNL     1     -10.639  -7.731  -0.173  0.00  0.00    -0.047 A 
ATOM      9  C   UNL     1     -10.292  -7.827  -1.514  0.00  0.00    -0.044 A 
ATOM     10  C   UNL     1      -9.137  -7.247  -1.987  0.00  0.00    +0.050 A 
ATOM     11  C   UNL     1      -8.297  -6.551  -1.117  0.00  0.00    +0.140 A 
ATOM     12  O   UNL     1      -7.172  -5.981  -1.605  0.00  0.00    -0.450 OA
ATOM     13  C   UNL     1      -6.241  -5.508  -0.754  0.00  0.00    +0.199 A 
ATOM     14  C   UNL     1      -4.865  -5.062  -1.036  0.00  0.00    +0.283 C 
ATOM     15  O   UNL     1      -4.346  -5.061  -2.134  0.00  0.00    -0.267 OA
ATOM     16  C   UNL     1     -11.192  -8.576  -2.463  0.00  0.00    +0.044 C 
ATOM     17  C   UNL     1     -11.909  -8.372   0.322  0.00  0.00    +0.044 C 
ENDROOT
BRANCH   2  18
ATOM     18  C   UNL     1      -5.515  -3.473   1.837  0.00  0.00    -0.022 A 
ATOM     19  C   UNL     1      -5.654  -2.349   1.043  0.00  0.00    +0.007 A 
ATOM     20  C   UNL     1      -5.915  -1.122   1.623  0.00  0.00    +0.015 A 
ATOM     21  C   UNL     1      -6.037  -1.018   2.997  0.00  0.00    +0.018 A 
ATOM     22  C   UNL     1      -5.897  -2.142   3.790  0.00  0.00    +0.015 A 
ATOM     23  C   UNL     1      -5.641  -3.370   3.209  0.00  0.00    +0.007 A 
ATOM     24 BR   UNL     1      -6.393   0.662   3.790  0.00  0.00    -0.050 Br
ENDBRANCH   2  18
BRANCH   1  25
ATOM     25  C   UNL     1      -2.898  -4.149   0.222  0.00  0.00    +0.107 C 
BRANCH  25  26
ATOM     26  C   UNL     1      -2.901  -2.630   0.038  0.00  0.00    +0.000 C 
BRANCH  26  27
ATOM     27  C   UNL     1      -1.471  -2.099   0.162  0.00  0.00    -0.077 C 
BRANCH  27  28
ATOM     28  N   UNL     1      -1.456  -0.660  -0.135  0.00  0.00    +0.379 N 
ATOM     29  H   UNL     1      -1.869  -0.500  -1.042  0.00  0.00    -0.082 HD
BRANCH  28  31
ATOM     30  C   UNL     1      -2.314   1.540   0.512  0.00  0.00    -0.017 C 
ATOM     31  C   UNL     1      -2.225   0.060   0.888  0.00  0.00    -0.082 C 
ENDBRANCH  28  31
BRANCH  28  32
ATOM     32  C   UNL     1      -0.069  -0.175  -0.137  0.00  0.00    -0.082 C 
ATOM     33  C   UNL     1       0.691  -0.808  -1.304  0.00  0.00    -0.017 C 
ENDBRANCH  28  32
ENDBRANCH  27  28
ENDBRANCH  26  27
ENDBRANCH  25  26
ENDBRANCH   1  25
TORSDOF 7
