REMARK  Name = ZINC61790410
REMARK  7 active torsions:
REMARK  status: ('A' for Active; 'I' for Inactive)
REMARK    1  A    between atoms: C_4  and  N_14
REMARK    2  A    between atoms: C_5  and  C_7
REMARK    3  A    between atoms: C_7  and  N_8
REMARK    4  A    between atoms: N_17  and  C_18
REMARK    5  A    between atoms: C_18  and  C_19
REMARK    6  A    between atoms: C_19  and  C_20
REMARK    7  A    between atoms: C_19  and  O_27
REMARK                            x       y       z     vdW  Elec       q    Type
REMARK                         _______ _______ _______ _____ _____    ______ ____
ROOT
ATOM      1  N   UNL     1       3.568  -0.174   0.419  0.00  0.00    -0.269 N 
ATOM      2  C   UNL     1       4.442   0.602   1.090  0.00  0.00    +0.304 C 
ATOM      3  O   UNL     1       4.121   1.723   1.433  0.00  0.00    -0.253 OA
ATOM      4  N   UNL     1       5.673   0.135   1.382  0.00  0.00    -0.296 N 
ATOM      5  H   UNL     1       3.844  -1.045   0.093  0.00  0.00    +0.156 HD
ATOM      6  H   UNL     1       5.929  -0.760   1.109  0.00  0.00    +0.150 HD
ENDROOT
BRANCH   1  10
ATOM      7  C   UNL     1      -0.319   1.167  -0.252  0.00  0.00    +0.000 A 
ATOM      8  C   UNL     1       0.713   2.078  -0.122  0.00  0.00    +0.002 A 
ATOM      9  C   UNL     1       2.002   1.637   0.101  0.00  0.00    +0.023 A 
ATOM     10  C   UNL     1       2.263   0.276   0.194  0.00  0.00    +0.036 A 
ATOM     11  C   UNL     1       1.225  -0.637   0.062  0.00  0.00    -0.043 A 
ATOM     12  C   UNL     1      -0.063  -0.189  -0.160  0.00  0.00    +0.003 A 
BRANCH  11  13
ATOM     13  C   UNL     1       1.503  -2.115   0.162  0.00  0.00    -0.041 C 
BRANCH  13  14
ATOM     14  N   UNL     1       1.684  -2.485   1.572  0.00  0.00    +0.383 N 
ATOM     15  C   UNL     1       2.141  -3.874   1.649  0.00  0.00    -0.068 C 
ATOM     16  C   UNL     1       2.688  -4.166   3.051  0.00  0.00    +0.050 C 
ATOM     17  S   UNL     1       1.335  -3.949   4.248  0.00  0.00    -0.164 S 
ATOM     18  C   UNL     1       0.660  -2.320   3.796  0.00  0.00    +0.050 C 
ATOM     19  C   UNL     1       0.416  -2.304   2.282  0.00  0.00    -0.068 C 
ATOM     20  H   UNL     1       2.382  -1.885   1.984  0.00  0.00    -0.081 HD
ENDBRANCH  13  14
ENDBRANCH  11  13
ENDBRANCH   1  10
BRANCH   4  21
ATOM     21  C   UNL     1       6.623   0.978   2.111  0.00  0.00    +0.141 C 
BRANCH  21  22
ATOM     22  C   UNL     1       7.934   0.215   2.311  0.00  0.00    +0.162 C 
BRANCH  22  23
ATOM     23  C   UNL     1       8.866   1.033   3.166  0.00  0.00    -0.017 A 
ATOM     24  C   UNL     1       9.589   2.069   2.603  0.00  0.00    +0.009 A 
ATOM     25  C   UNL     1      10.444   2.821   3.386  0.00  0.00    +0.039 A 
ATOM     26  C   UNL     1      10.578   2.536   4.735  0.00  0.00    +0.123 A 
ATOM     27  C   UNL     1       9.854   1.498   5.297  0.00  0.00    +0.039 A 
ATOM     28  C   UNL     1       8.995   0.751   4.513  0.00  0.00    +0.009 A 
ATOM     29  F   UNL     1      11.414   3.270   5.501  0.00  0.00    -0.205 F 
ENDBRANCH  22  23
BRANCH  22  30
ATOM     30  O   UNL     1       8.541  -0.028   1.040  0.00  0.00    -0.386 OA
ATOM     31  H   UNL     1       8.752   0.775   0.545  0.00  0.00    +0.210 HD
ENDBRANCH  22  30
ENDBRANCH  21  22
ENDBRANCH   4  21
TORSDOF 7
