REMARK  Name = ZINC66144656
REMARK  8 active torsions:
REMARK  status: ('A' for Active; 'I' for Inactive)
REMARK    1  A    between atoms: C_1  and  C_2
REMARK    2  A    between atoms: C_2  and  C_4
REMARK    3  A    between atoms: C_2  and  N_18
REMARK    4  A    between atoms: N_6  and  N_7
REMARK    5  A    between atoms: N_7  and  C_8
REMARK    6  A    between atoms: C_8  and  N_10
REMARK    7  A    between atoms: N_10  and  C_11
REMARK    8  A    between atoms: C_19  and  C_21
REMARK                            x       y       z     vdW  Elec       q    Type
REMARK                         _______ _______ _______ _____ _____    ______ ____
ROOT
ATOM      1  C   UNL     1       0.823  -0.516   1.260  0.00  0.00    +0.249 C 
ATOM      2  O   UNL     1       1.974  -0.879   1.141  0.00  0.00    -0.272 OA
ATOM      3  N   UNL     1       0.337  -0.204   2.478  0.00  0.00    -0.234 N 
ATOM      4  H   UNL     1      -0.583   0.086   2.573  0.00  0.00    +0.173 HD
ENDROOT
BRANCH   1   6
ATOM      5  C   UNL     1      -0.552   1.027  -0.109  0.00  0.00    +0.038 C 
ATOM      6  C   UNL     1      -0.064  -0.415   0.046  0.00  0.00    +0.157 C 
BRANCH   6   7
ATOM      7  N   UNL     1       0.693  -0.805  -1.146  0.00  0.00    -0.304 N 
ATOM      8  C   UNL     1       0.046  -1.278  -2.229  0.00  0.00    +0.217 C 
ATOM      9  O   UNL     1      -1.163  -1.379  -2.218  0.00  0.00    -0.275 OA
ATOM     10  H   UNL     1       1.659  -0.724  -1.155  0.00  0.00    +0.149 HD
BRANCH   8  11
ATOM     11  C   UNL     1       0.824  -1.679  -3.456  0.00  0.00    +0.075 C 
ATOM     12  C   UNL     1       1.185  -0.497  -4.371  0.00  0.00    +0.013 C 
ATOM     13  C   UNL     1       0.864  -1.421  -5.558  0.00  0.00    +0.001 C 
ATOM     14  C   UNL     1      -0.059  -2.197  -4.604  0.00  0.00    +0.013 C 
ENDBRANCH   8  11
ENDBRANCH   6   7
ENDBRANCH   1   6
BRANCH   3  15
ATOM     15  N   UNL     1       1.162  -0.299   3.607  0.00  0.00    -0.246 N 
ATOM     16  H   UNL     1       2.083  -0.589   3.511  0.00  0.00    +0.172 HD
BRANCH  15  17
ATOM     17  C   UNL     1       0.676   0.014   4.824  0.00  0.00    +0.151 C 
ATOM     18  S   UNL     1       1.684  -0.102   6.203  0.00  0.00    -0.017 S 
BRANCH  17  19
ATOM     19  N   UNL     1      -0.603   0.417   4.957  0.00  0.00    -0.296 N 
ATOM     20  H   UNL     1      -1.155   0.543   4.169  0.00  0.00    +0.154 HD
BRANCH  19  21
ATOM     21  C   UNL     1      -1.133   0.655   6.229  0.00  0.00    +0.034 A 
ATOM     22  C   UNL     1      -0.407   1.387   7.160  0.00  0.00    +0.023 A 
ATOM     23  C   UNL     1      -0.933   1.620   8.415  0.00  0.00    +0.003 A 
ATOM     24  C   UNL     1      -2.181   1.126   8.747  0.00  0.00    +0.015 A 
ATOM     25  C   UNL     1      -2.908   0.397   7.822  0.00  0.00    +0.020 A 
ATOM     26  C   UNL     1      -2.389   0.165   6.562  0.00  0.00    +0.038 A 
ATOM     27 BR   UNL     1      -4.614  -0.278   8.280  0.00  0.00    -0.050 Br
ENDBRANCH  19  21
ENDBRANCH  17  19
ENDBRANCH  15  17
ENDBRANCH   3  15
TORSDOF 7
