REMARK  Name = ZINC08530471
REMARK  10 active torsions:
REMARK  status: ('A' for Active; 'I' for Inactive)
REMARK    1  A    between atoms: C_1  and  C_2
REMARK    2  A    between atoms: C_2  and  C_4
REMARK    3  A    between atoms: C_2  and  N_15
REMARK    4  A    between atoms: N_6  and  C_7
REMARK    5  A    between atoms: N_15  and  C_16
REMARK    6  A    between atoms: N_15  and  C_17
REMARK    7  A    between atoms: C_17  and  C_18
REMARK    8  A    between atoms: N_20  and  C_21
REMARK    9  A    between atoms: C_26  and  S_27
REMARK   10  A    between atoms: S_27  and  C_28
REMARK                            x       y       z     vdW  Elec       q    Type
REMARK                         _______ _______ _______ _____ _____    ______ ____
ROOT
ATOM      1  N   UNL     1      -0.523  -0.317   0.714  0.00  0.00    +0.391 N 
ATOM      2  C   UNL     1       0.093  -1.598   1.083  0.00  0.00    -0.094 C 
ATOM      3  H   UNL     1      -1.262  -0.479   0.047  0.00  0.00    -0.080 HD
ENDROOT
BRANCH   1   5
ATOM      4  C   UNL     1      -0.134   1.918  -0.209  0.00  0.00    -0.004 C 
ATOM      5  C   UNL     1       0.492   0.560   0.116  0.00  0.00    +0.017 C 
BRANCH   5   6
ATOM      6  C   UNL     1       1.015  -0.068  -1.150  0.00  0.00    +0.203 C 
ATOM      7  O   UNL     1       0.312  -0.822  -1.789  0.00  0.00    -0.277 OA
ATOM      8  N   UNL     1       2.265   0.209  -1.573  0.00  0.00    -0.284 N 
ATOM      9  H   UNL     1       2.853   0.751  -1.025  0.00  0.00    +0.155 HD
BRANCH   8  10
ATOM     10  C   UNL     1       2.713  -0.286  -2.804  0.00  0.00    +0.072 A 
ATOM     11  C   UNL     1       1.798  -0.718  -3.755  0.00  0.00    +0.064 A 
ATOM     12  C   UNL     1       2.244  -1.206  -4.970  0.00  0.00    +0.125 A 
ATOM     13  C   UNL     1       3.601  -1.264  -5.239  0.00  0.00    +0.041 A 
ATOM     14  C   UNL     1       4.515  -0.834  -4.293  0.00  0.00    +0.043 A 
ATOM     15  C   UNL     1       4.075  -0.340  -3.079  0.00  0.00    +0.145 A 
ATOM     16  F   UNL     1       4.968   0.084  -2.158  0.00  0.00    -0.204 F 
ATOM     17  F   UNL     1       1.354  -1.627  -5.895  0.00  0.00    -0.205 F 
ENDBRANCH   8  10
ENDBRANCH   5   6
ENDBRANCH   1   5
BRANCH   1  18
ATOM     18  C   UNL     1      -1.077   0.323   1.915  0.00  0.00    +0.020 C 
BRANCH  18  19
ATOM     19  C   UNL     1      -2.203  -0.518   2.458  0.00  0.00    +0.201 C 
ATOM     20  O   UNL     1      -2.513  -1.550   1.901  0.00  0.00    -0.278 OA
ATOM     21  N   UNL     1      -2.865  -0.125   3.564  0.00  0.00    -0.286 N 
ATOM     22  H   UNL     1      -2.664   0.733   3.971  0.00  0.00    +0.155 HD
BRANCH  21  23
ATOM     23  C   UNL     1      -3.845  -0.954   4.127  0.00  0.00    +0.047 A 
ATOM     24  C   UNL     1      -4.598  -1.789   3.316  0.00  0.00    +0.024 A 
ATOM     25  C   UNL     1      -5.564  -2.607   3.873  0.00  0.00    +0.002 A 
ATOM     26  C   UNL     1      -5.783  -2.595   5.238  0.00  0.00    +0.001 A 
ATOM     27  C   UNL     1      -5.038  -1.765   6.054  0.00  0.00    +0.016 A 
ATOM     28  C   UNL     1      -4.062  -0.945   5.505  0.00  0.00    +0.029 A 
BRANCH  28  29
ATOM     29  S   UNL     1      -3.105   0.108   6.543  0.00  0.00    -0.127 S 
ATOM     30  C   UNL     1      -3.737  -0.227   8.210  0.00  0.00    +0.090 C 
ENDBRANCH  28  29
ENDBRANCH  21  23
ENDBRANCH  18  19
ENDBRANCH   1  18
TORSDOF 7
