REMARK  Name = ZINC55244209
REMARK  11 active torsions:
REMARK  status: ('A' for Active; 'I' for Inactive)
REMARK    1  A    between atoms: C_1  and  O_2
REMARK    2  A    between atoms: O_2  and  C_3
REMARK    3  A    between atoms: C_5  and  C_14
REMARK    4  A    between atoms: C_8  and  O_9
REMARK    5  A    between atoms: O_9  and  C_10
REMARK    6  A    between atoms: C_10  and  C_11
REMARK    7  A    between atoms: C_14  and  N_15
REMARK    8  A    between atoms: N_15  and  C_16
REMARK    9  A    between atoms: C_16  and  C_17
REMARK   10  A    between atoms: C_22  and  C_24
REMARK   11  A    between atoms: C_24  and  O_25
REMARK                            x       y       z     vdW  Elec       q    Type
REMARK                         _______ _______ _______ _____ _____    ______ ____
ROOT
ATOM      1  C   UNL     1      -4.871   0.259   0.038  0.00  0.00    +0.116 C 
ENDROOT
BRANCH   1   4
ATOM      2  C   UNL     1      -1.201  -0.638   0.010  0.00  0.00    +0.163 A 
ATOM      3  C   UNL     1      -2.374   0.100   0.019  0.00  0.00    +0.054 A 
ATOM      4  C   UNL     1      -3.597  -0.545   0.028  0.00  0.00    -0.029 A 
ATOM      5  C   UNL     1      -3.653  -1.927   0.027  0.00  0.00    +0.028 A 
ATOM      6  C   UNL     1      -2.486  -2.669   0.018  0.00  0.00    +0.086 A 
ATOM      7  C   UNL     1      -1.257  -2.028   0.003  0.00  0.00    +0.181 A 
ATOM      8 CL   UNL     1      -2.560  -4.404   0.018  0.00  0.00    -0.080 Cl
BRANCH   2  10
ATOM      9  C   UNL     1      -0.017   1.425   0.010  0.00  0.00    +0.277 C 
ATOM     10  O   UNL     1       0.002  -0.004   0.002  0.00  0.00    -0.491 OA
ENDBRANCH   2  10
BRANCH   7  11
ATOM     11  O   UNL     1      -0.108  -2.756  -0.012  0.00  0.00    -0.483 OA
BRANCH  11  12
ATOM     12  C   UNL     1       0.453  -3.110   1.254  0.00  0.00    +0.256 C 
BRANCH  12  13
ATOM     13  C   UNL     1       1.713  -3.909   1.040  0.00  0.00    +0.006 C 
ATOM     14  C   UNL     1       2.786  -3.639   1.740  0.00  0.00    +0.007 C 
ENDBRANCH  12  13
ENDBRANCH  11  12
ENDBRANCH   7  11
ENDBRANCH   1   4
BRANCH   1  15
ATOM     15  N   UNL     1      -5.296   0.521  -1.344  0.00  0.00    -0.312 NA
ATOM     16  H   UNL     1      -4.565   0.983  -1.865  0.00  0.00    +0.122 HD
BRANCH  15  17
ATOM     17  C   UNL     1      -6.538   1.305  -1.373  0.00  0.00    +0.083 C 
BRANCH  17  18
ATOM     18  C   UNL     1      -6.947   1.558  -2.825  0.00  0.00    -0.011 C 
ATOM     19  C   UNL     1      -7.368   0.236  -3.502  0.00  0.00    -0.078 C 
ATOM     20  N   UNL     1      -8.845   0.194  -3.355  0.00  0.00    +0.379 N 
ATOM     21  C   UNL     1      -9.275   1.597  -3.585  0.00  0.00    -0.077 C 
ATOM     22  C   UNL     1      -8.201   2.456  -2.880  0.00  0.00    -0.000 C 
ATOM     23  H   UNL     1      -9.251  -0.418  -4.047  0.00  0.00    -0.086 HD
ATOM     24  H   UNL     1      -9.099  -0.105  -2.425  0.00  0.00    -0.086 HD
BRANCH  22  25
ATOM     25  C   UNL     1      -7.913   3.721  -3.690  0.00  0.00    +0.157 C 
BRANCH  25  26
ATOM     26  O   UNL     1      -9.045   4.591  -3.632  0.00  0.00    -0.395 OA
ATOM     27  H   UNL     1      -8.933   5.416  -4.125  0.00  0.00    +0.209 HD
ENDBRANCH  25  26
ENDBRANCH  22  25
ENDBRANCH  17  18
ENDBRANCH  15  17
ENDBRANCH   1  15
TORSDOF 10
