REMARK  Name = ZINC03330209
REMARK  7 active torsions:
REMARK  status: ('A' for Active; 'I' for Inactive)
REMARK    1  A    between atoms: C_1  and  C_2
REMARK    2  A    between atoms: C_4  and  C_15
REMARK    3  A    between atoms: C_5  and  C_14
REMARK    4  A    between atoms: N_6  and  C_7
REMARK    5  A    between atoms: N_16  and  N_17
REMARK    6  A    between atoms: C_24  and  C_28
REMARK    7  A    between atoms: C_25  and  C_27
REMARK                            x       y       z     vdW  Elec       q    Type
REMARK                         _______ _______ _______ _____ _____    ______ ____
ROOT
ATOM      1  C   UNL     1       1.597  -3.373  -0.011  0.00  0.00    +0.064 C 
ATOM      2  C   UNL     1       0.735  -2.137  -0.001  0.00  0.00    +0.022 A 
ATOM      3  C   UNL     1       1.186  -0.869   0.002  0.00  0.00    +0.032 A 
ATOM      4  C   UNL     1       0.001  -0.005   0.010  0.00  0.00    +0.016 A 
ATOM      5  C   UNL     1      -1.081  -0.839   0.017  0.00  0.00    +0.030 A 
ATOM      6  N   UNL     1      -0.630  -2.121   0.004  0.00  0.00    -0.317 N 
ATOM      7  C   UNL     1      -2.526  -0.411   0.032  0.00  0.00    +0.064 C 
ENDROOT
BRANCH   6   8
ATOM      8  C   UNL     1      -1.447  -3.260   0.004  0.00  0.00    +0.047 A 
ATOM      9  C   UNL     1      -2.274  -3.522  -1.080  0.00  0.00    +0.027 A 
ATOM     10  C   UNL     1      -3.075  -4.648  -1.080  0.00  0.00    +0.022 A 
ATOM     11  C   UNL     1      -3.061  -5.508   0.003  0.00  0.00    +0.041 A 
ATOM     12  C   UNL     1      -2.241  -5.247   1.087  0.00  0.00    +0.022 A 
ATOM     13  C   UNL     1      -1.435  -4.125   1.090  0.00  0.00    +0.027 A 
ATOM     14 CL   UNL     1      -4.073  -6.919   0.003  0.00  0.00    -0.084 Cl
ENDBRANCH   6   8
BRANCH   4  15
ATOM     15  C   UNL     1      -0.018   1.468   0.017  0.00  0.00    +0.143 C 
ATOM     16  N   UNL     1      -1.152   2.103   0.019  0.00  0.00    -0.170 NA
BRANCH  16  17
ATOM     17  N   UNL     1      -1.173   3.499   0.132  0.00  0.00    -0.185 N 
ATOM     18  C   UNL     1       0.001   4.184   0.135  0.00  0.00    +0.227 A 
ATOM     19  N   UNL     1       0.022   5.487   0.233  0.00  0.00    -0.228 NA
ATOM     20  C   UNL     1      -1.104   6.184   0.345  0.00  0.00    +0.116 A 
ATOM     21  C   UNL     1      -2.366   5.562   0.358  0.00  0.00    +0.077 A 
ATOM     22  C   UNL     1      -2.354   4.134   0.242  0.00  0.00    +0.283 A 
ATOM     23  O   UNL     1      -3.398   3.504   0.244  0.00  0.00    -0.265 OA
ATOM     24  C   UNL     1      -3.494   6.465   0.487  0.00  0.00    -0.026 A 
ATOM     25  C   UNL     1      -3.269   7.785   0.582  0.00  0.00    -0.008 A 
ATOM     26  S   UNL     1      -1.492   7.908   0.504  0.00  0.00    -0.073 S 
ATOM     27  C   UNL     1      -4.277   8.897   0.723  0.00  0.00    +0.052 C 
ATOM     28  C   UNL     1      -4.902   5.928   0.513  0.00  0.00    +0.045 C 
ENDBRANCH  16  17
ENDBRANCH   4  15
TORSDOF 3
