REMARK  Name = ZINC43883932
REMARK  12 active torsions:
REMARK  status: ('A' for Active; 'I' for Inactive)
REMARK    1  A    between atoms: C_1  and  C_2
REMARK    2  A    between atoms: C_2  and  C_3
REMARK    3  A    between atoms: C_2  and  C_4
REMARK    4  A    between atoms: C_2  and  N_17
REMARK    5  A    between atoms: N_6  and  C_7
REMARK    6  A    between atoms: C_9  and  O_15
REMARK    7  A    between atoms: C_11  and  O_13
REMARK    8  A    between atoms: O_13  and  C_14
REMARK    9  A    between atoms: O_15  and  C_16
REMARK   10  A    between atoms: N_17  and  C_18
REMARK   11  A    between atoms: C_18  and  C_19
REMARK   12  A    between atoms: C_31  and  C_33
REMARK                            x       y       z     vdW  Elec       q    Type
REMARK                         _______ _______ _______ _____ _____    ______ ____
ROOT
ATOM      1  N   UNL     1      -0.129   0.467  -2.702  0.00  0.00    -0.284 N 
ATOM      2  C   UNL     1      -0.435  -0.780  -2.295  0.00  0.00    +0.247 C 
ATOM      3  O   UNL     1       0.365  -1.683  -2.449  0.00  0.00    -0.270 OA
ENDROOT
BRANCH   2   4
ATOM      4  C   UNL     1      -1.742  -1.052  -1.661  0.00  0.00    +0.037 A 
ATOM      5  C   UNL     1      -2.223  -0.207  -0.659  0.00  0.00    +0.014 A 
ATOM      6  C   UNL     1      -3.444  -0.465  -0.071  0.00  0.00    +0.021 A 
ATOM      7  C   UNL     1      -4.192  -1.559  -0.474  0.00  0.00    +0.041 A 
ATOM      8  C   UNL     1      -3.720  -2.401  -1.468  0.00  0.00    +0.021 A 
ATOM      9  C   UNL     1      -2.503  -2.150  -2.067  0.00  0.00    +0.014 A 
ATOM     10 CL   UNL     1      -5.727  -1.878   0.271  0.00  0.00    -0.084 Cl
ENDBRANCH   2   4
BRANCH   1  12
ATOM     11  C   UNL     1      -0.873   2.672  -3.456  0.00  0.00    +0.041 C 
ATOM     12  C   UNL     1      -1.033   1.579  -2.397  0.00  0.00    +0.108 C 
ATOM     13  C   UNL     1      -0.690   2.151  -1.019  0.00  0.00    +0.041 C 
BRANCH  12  14
ATOM     14  C   UNL     1      -2.456   1.085  -2.396  0.00  0.00    +0.240 C 
ATOM     15  O   UNL     1      -3.245   1.509  -1.578  0.00  0.00    -0.273 OA
ATOM     16  N   UNL     1      -2.852   0.170  -3.303  0.00  0.00    -0.284 N 
ATOM     17  H   UNL     1      -2.201  -0.243  -3.891  0.00  0.00    +0.155 HD
BRANCH  16  18
ATOM     18  C   UNL     1      -4.203  -0.182  -3.397  0.00  0.00    +0.040 A 
ATOM     19  C   UNL     1      -5.170   0.602  -2.783  0.00  0.00    +0.069 A 
ATOM     20  C   UNL     1      -6.508   0.252  -2.877  0.00  0.00    +0.125 A 
ATOM     21  C   UNL     1      -6.881  -0.882  -3.583  0.00  0.00    +0.091 A 
ATOM     22  C   UNL     1      -5.915  -1.666  -4.196  0.00  0.00    +0.125 A 
ATOM     23  C   UNL     1      -4.577  -1.314  -4.109  0.00  0.00    +0.069 A 
BRANCH  22  24
ATOM     24  O   UNL     1      -6.281  -2.778  -4.888  0.00  0.00    -0.495 OA
ATOM     25  C   UNL     1      -7.677  -3.078  -4.941  0.00  0.00    +0.277 C 
ENDBRANCH  22  24
BRANCH  20  26
ATOM     26  O   UNL     1      -7.455   1.020  -2.276  0.00  0.00    -0.495 OA
ATOM     27  C   UNL     1      -8.814   0.600  -2.413  0.00  0.00    +0.277 C 
ENDBRANCH  20  26
ENDBRANCH  16  18
ENDBRANCH  12  14
ENDBRANCH   1  12
BRANCH   1  28
ATOM     28  C   UNL     1       1.107   0.712  -3.450  0.00  0.00    +0.111 C 
BRANCH  28  29
ATOM     29  C   UNL     1       2.311   0.346  -2.580  0.00  0.00    -0.007 C 
ATOM     30  C   UNL     1       2.498   1.411  -1.498  0.00  0.00    +0.002 C 
ATOM     31  C   UNL     1       2.804   2.751  -2.176  0.00  0.00    -0.018 C 
ATOM     32  C   UNL     1       4.054   2.591  -3.042  0.00  0.00    -0.078 C 
ATOM     33  N   UNL     1       3.827   1.571  -4.076  0.00  0.00    +0.382 N 
ATOM     34  C   UNL     1       3.567   0.270  -3.454  0.00  0.00    -0.064 C 
ATOM     35  C   UNL     1       3.332  -0.790  -4.535  0.00  0.00    -0.015 C 
ATOM     36  C   UNL     1       4.558  -0.882  -5.444  0.00  0.00    -0.003 C 
ATOM     37  C   UNL     1       4.825   0.500  -6.049  0.00  0.00    -0.019 C 
ATOM     38  C   UNL     1       5.032   1.500  -4.916  0.00  0.00    -0.078 C 
ATOM     39  H   UNL     1       3.037   1.837  -4.643  0.00  0.00    -0.081 HD
ENDBRANCH  28  29
ENDBRANCH   1  28
TORSDOF 8
