REMARK  Name = ZINC28632129
REMARK  10 active torsions:
REMARK  status: ('A' for Active; 'I' for Inactive)
REMARK    1  A    between atoms: C_1  and  C_2
REMARK    2  A    between atoms: C_2  and  O_3
REMARK    3  A    between atoms: O_3  and  C_4
REMARK    4  A    between atoms: C_4  and  C_6
REMARK    5  A    between atoms: C_7  and  C_22
REMARK    6  A    between atoms: C_12  and  C_14
REMARK    7  A    between atoms: C_17  and  C_21
REMARK    8  A    between atoms: C_19  and  C_20
REMARK    9  A    between atoms: C_22  and  N_23
REMARK   10  A    between atoms: N_23  and  C_24
REMARK                            x       y       z     vdW  Elec       q    Type
REMARK                         _______ _______ _______ _____ _____    ______ ____
ROOT
ATOM      1  C   UNL     1       1.461  -2.625   1.450  0.00  0.00    +0.076 C 
ATOM      2  C   UNL     1       0.548  -3.438   2.023  0.00  0.00    +0.007 C 
ATOM      3  N   UNL     1      -0.591  -3.795   1.360  0.00  0.00    -0.274 N 
ATOM      4  C   UNL     1      -0.891  -3.382   0.122  0.00  0.00    +0.304 C 
ATOM      5  O   UNL     1      -1.931  -3.754  -0.386  0.00  0.00    -0.252 OA
ATOM      6  N   UNL     1      -0.078  -2.567  -0.578  0.00  0.00    -0.288 N 
ATOM      7  C   UNL     1       1.179  -2.123   0.048  0.00  0.00    +0.144 C 
ATOM      8  H   UNL     1      -1.324  -4.458   1.844  0.00  0.00    +0.156 HD
ATOM      9  H   UNL     1      -0.334  -2.233  -1.595  0.00  0.00    +0.151 HD
ENDROOT
BRANCH   7  10
ATOM     10  C   UNL     1       1.172  -0.617   0.087  0.00  0.00    -0.020 A 
ATOM     11  C   UNL     1       0.862   0.043   1.261  0.00  0.00    +0.006 A 
ATOM     12  C   UNL     1       0.857   1.425   1.297  0.00  0.00    +0.004 A 
ATOM     13  C   UNL     1       1.161   2.147   0.158  0.00  0.00    -0.050 A 
ATOM     14  C   UNL     1       1.469   1.487  -1.017  0.00  0.00    +0.007 A 
ATOM     15  C   UNL     1       1.476   0.105  -1.052  0.00  0.00    -0.045 A 
ATOM     16  C   UNL     1       1.814  -0.615  -2.332  0.00  0.00    +0.044 C 
ATOM     17  C   UNL     1       1.156   3.653   0.197  0.00  0.00    +0.044 C 
ENDBRANCH   7  10
BRANCH   1  18
ATOM     18  C   UNL     1       2.641  -2.254   2.136  0.00  0.00    +0.339 C 
ATOM     19  O   UNL     1       3.699  -2.786   1.857  0.00  0.00    -0.245 OA
BRANCH  18  20
ATOM     20  O   UNL     1       2.593  -1.311   3.099  0.00  0.00    -0.462 OA
BRANCH  20  22
ATOM     21  C   UNL     1       3.577   0.074   4.818  0.00  0.00    +0.048 C 
ATOM     22  C   UNL     1       3.838  -0.905   3.672  0.00  0.00    +0.229 C 
ENDBRANCH  20  22
ENDBRANCH  18  20
ENDBRANCH   1  18
BRANCH   2  23
ATOM     23  C   UNL     1       0.790  -3.960   3.416  0.00  0.00    -0.030 C 
BRANCH  23  24
ATOM     24  N   UNL     1      -0.217  -3.403   4.329  0.00  0.00    +0.384 N 
ATOM     25  H   UNL     1      -0.144  -2.305   4.330  0.00  0.00    -0.085 HD
ATOM     26  H   UNL     1      -1.221  -3.703   3.994  0.00  0.00    -0.085 HD
BRANCH  24  27
ATOM     27  C   UNL     1      -0.012  -3.890   5.699  0.00  0.00    -0.071 C 
ATOM     28  C   UNL     1      -0.704  -5.245   5.867  0.00  0.00    -0.016 C 
ATOM     29  C   UNL     1      -0.490  -5.752   7.295  0.00  0.00    -0.002 C 
ATOM     30  C   UNL     1      -1.084  -4.750   8.287  0.00  0.00    -0.000 C 
ATOM     31  C   UNL     1      -0.392  -3.396   8.118  0.00  0.00    -0.002 C 
ATOM     32  C   UNL     1      -0.605  -2.888   6.691  0.00  0.00    -0.016 C 
ENDBRANCH  24  27
ENDBRANCH  23  24
ENDBRANCH   2  23
TORSDOF 7
