REMARK  Name = ZINC02343331
REMARK  10 active torsions:
REMARK  status: ('A' for Active; 'I' for Inactive)
REMARK    1  A    between atoms: C_1  and  C_2
REMARK    2  A    between atoms: C_2  and  O_3
REMARK    3  A    between atoms: O_3  and  C_4
REMARK    4  A    between atoms: C_4  and  C_5
REMARK    5  A    between atoms: C_5  and  C_6
REMARK    6  A    between atoms: C_6  and  N_7
REMARK    7  A    between atoms: C_8  and  C_10
REMARK    8  A    between atoms: N_21  and  C_24
REMARK    9  A    between atoms: C_22  and  N_23
REMARK   10  A    between atoms: C_28  and  C_30
REMARK                            x       y       z     vdW  Elec       q    Type
REMARK                         _______ _______ _______ _____ _____    ______ ____
ROOT
ATOM      1  C   UNL     1      -2.443   0.876   0.018  0.00  0.00    +0.104 A 
ATOM      2  C   UNL     1      -3.191   0.414   1.199  0.00  0.00    +0.123 A 
ATOM      3  C   UNL     1      -4.369  -0.276   0.667  0.00  0.00    +0.166 A 
ATOM      4  N   UNL     1      -5.242  -0.802   1.500  0.00  0.00    -0.225 NA
ATOM      5  C   UNL     1      -5.049  -0.698   2.821  0.00  0.00    +0.092 A 
ATOM      6  C   UNL     1      -5.977  -1.258   3.719  0.00  0.00    +0.030 A 
ATOM      7  C   UNL     1      -5.774  -1.147   5.060  0.00  0.00    +0.002 A 
ATOM      8  C   UNL     1      -4.656  -0.484   5.563  0.00  0.00    +0.002 A 
ATOM      9  C   UNL     1      -3.737   0.070   4.727  0.00  0.00    +0.030 A 
ATOM     10  C   UNL     1      -3.913  -0.025   3.333  0.00  0.00    +0.090 A 
ATOM     11  N   UNL     1      -3.015   0.517   2.501  0.00  0.00    -0.241 NA
ATOM     12  N   UNL     1      -4.285  -0.215  -0.710  0.00  0.00    -0.280 N 
ATOM     13  C   UNL     1      -3.162   0.456  -1.095  0.00  0.00    +0.117 A 
ENDROOT
BRANCH  12  14
ATOM     14  C   UNL     1      -5.224  -0.768  -1.592  0.00  0.00    +0.050 A 
ATOM     15  C   UNL     1      -5.405  -2.144  -1.641  0.00  0.00    +0.028 A 
ATOM     16  C   UNL     1      -6.331  -2.687  -2.510  0.00  0.00    +0.022 A 
ATOM     17  C   UNL     1      -7.078  -1.860  -3.331  0.00  0.00    +0.053 A 
ATOM     18  C   UNL     1      -6.900  -0.489  -3.284  0.00  0.00    +0.075 A 
ATOM     19  C   UNL     1      -5.978   0.059  -2.412  0.00  0.00    +0.040 A 
ATOM     20 CL   UNL     1      -8.242  -2.545  -4.423  0.00  0.00    -0.083 Cl
BRANCH  18  21
ATOM     21  C   UNL     1      -7.715   0.408  -4.178  0.00  0.00    +0.419 C 
ATOM     22  F   UNL     1      -7.359   1.742  -3.951  0.00  0.00    -0.166 F 
ATOM     23  F   UNL     1      -7.469   0.081  -5.516  0.00  0.00    -0.166 F 
ATOM     24  F   UNL     1      -9.075   0.234  -3.899  0.00  0.00    -0.166 F 
ENDBRANCH  18  21
ENDBRANCH  12  14
BRANCH   1  26
ATOM     25  N   UNL     1      -0.011   0.966   0.007  0.00  0.00    -0.311 N 
ATOM     26  C   UNL     1      -1.187   1.624   0.017  0.00  0.00    +0.250 C 
ATOM     27  O   UNL     1      -1.204   2.841   0.023  0.00  0.00    -0.270 OA
ATOM     28  H   UNL     1       0.002  -0.004   0.002  0.00  0.00    +0.149 HD
BRANCH  25  29
ATOM     29  C   UNL     1       1.248   1.716  -0.001  0.00  0.00    +0.107 C 
BRANCH  29  30
ATOM     30  C   UNL     1       2.424   0.737  -0.017  0.00  0.00    +0.047 C 
BRANCH  30  31
ATOM     31  C   UNL     1       3.738   1.520  -0.025  0.00  0.00    +0.161 C 
BRANCH  31  32
ATOM     32  O   UNL     1       4.837   0.607  -0.041  0.00  0.00    -0.380 OA
BRANCH  32  34
ATOM     33  C   UNL     1       7.214   0.170  -0.066  0.00  0.00    +0.034 C 
ATOM     34  C   UNL     1       6.118   1.238  -0.050  0.00  0.00    +0.156 C 
ENDBRANCH  32  34
ENDBRANCH  31  32
ENDBRANCH  30  31
ENDBRANCH  29  30
ENDBRANCH  25  29
ENDBRANCH   1  26
BRANCH  13  35
ATOM     35  N   UNL     1      -2.796   0.685  -2.395  0.00  0.00    -0.343 N 
ATOM     36  H   UNL     1      -1.980   1.173  -2.590  0.00  0.00    +0.144 HD
ATOM     37  H   UNL     1      -3.351   0.360  -3.121  0.00  0.00    +0.144 HD
ENDBRANCH  13  35
TORSDOF 9
