REMARK  Name = ZINC02647245
REMARK  8 active torsions:
REMARK  status: ('A' for Active; 'I' for Inactive)
REMARK    1  A    between atoms: C_1  and  C_2
REMARK    2  A    between atoms: C_4  and  C_22
REMARK    3  A    between atoms: C_5  and  C_21
REMARK    4  A    between atoms: N_6  and  C_7
REMARK    5  A    between atoms: C_8  and  C_20
REMARK    6  A    between atoms: N_9  and  C_19
REMARK    7  A    between atoms: N_10  and  C_13
REMARK    8  A    between atoms: N_27  and  C_28
REMARK                            x       y       z     vdW  Elec       q    Type
REMARK                         _______ _______ _______ _____ _____    ______ ____
ROOT
ATOM      1  C   UNL     1       2.087  -2.903  -0.638  0.00  0.00    +0.064 C 
ATOM      2  C   UNL     1       1.826  -1.448  -0.344  0.00  0.00    +0.022 A 
ATOM      3  C   UNL     1       2.662  -0.427  -0.617  0.00  0.00    +0.033 A 
ATOM      4  C   UNL     1       2.031   0.765  -0.181  0.00  0.00    +0.022 A 
ATOM      5  C   UNL     1       0.826   0.412   0.343  0.00  0.00    +0.030 A 
ATOM      6  N   UNL     1       0.702  -0.943   0.242  0.00  0.00    -0.311 N 
ATOM      7  C   UNL     1      -0.195   1.353   0.927  0.00  0.00    +0.064 C 
ENDROOT
BRANCH   6   8
ATOM      8  C   UNL     1      -0.406  -1.698   0.674  0.00  0.00    +0.134 A 
ATOM      9  C   UNL     1      -1.493  -2.008  -0.068  0.00  0.00    +0.062 A 
ATOM     10  N   UNL     1      -2.345  -2.752   0.706  0.00  0.00    -0.282 N 
ATOM     11  N   UNL     1      -1.765  -2.907   1.972  0.00  0.00    -0.215 N 
ATOM     12  C   UNL     1      -0.576  -2.271   1.960  0.00  0.00    +0.296 A 
ATOM     13  O   UNL     1       0.210  -2.200   2.888  0.00  0.00    -0.264 OA
ATOM     14  C   UNL     1      -3.640  -3.292   0.283  0.00  0.00    +0.171 C 
ATOM     15  C   UNL     1      -1.728  -1.605  -1.500  0.00  0.00    +0.067 C 
BRANCH  11  16
ATOM     16  C   UNL     1      -2.317  -3.603   3.052  0.00  0.00    +0.067 A 
ATOM     17  C   UNL     1      -2.382  -3.006   4.304  0.00  0.00    +0.028 A 
ATOM     18  C   UNL     1      -2.933  -3.693   5.367  0.00  0.00    +0.002 A 
ATOM     19  C   UNL     1      -3.410  -4.979   5.189  0.00  0.00    +0.000 A 
ATOM     20  C   UNL     1      -3.342  -5.578   3.944  0.00  0.00    +0.002 A 
ATOM     21  C   UNL     1      -2.797  -4.894   2.876  0.00  0.00    +0.028 A 
ENDBRANCH  11  16
ENDBRANCH   6   8
BRANCH   4  22
ATOM     22  C   UNL     1       2.582   2.140  -0.279  0.00  0.00    +0.082 A 
ATOM     23  C   UNL     1       3.812   2.352  -0.832  0.00  0.00    +0.077 A 
ATOM     24  S   UNL     1       3.941   4.129  -0.684  0.00  0.00    -0.060 S 
ATOM     25  C   UNL     1       2.355   4.405   0.092  0.00  0.00    +0.163 A 
ATOM     26  N   UNL     1       1.881   3.173   0.166  0.00  0.00    -0.225 NA
ATOM     27  N   UNL     1       1.774   5.594   0.504  0.00  0.00    -0.294 N 
ATOM     28  H   UNL     1       0.862   5.600   0.833  0.00  0.00    +0.154 HD
BRANCH  27  29
ATOM     29  C   UNL     1       2.504   6.786   0.445  0.00  0.00    +0.034 A 
ATOM     30  C   UNL     1       1.866   7.978   0.127  0.00  0.00    +0.026 A 
ATOM     31  C   UNL     1       2.588   9.154   0.070  0.00  0.00    +0.041 A 
ATOM     32  C   UNL     1       3.948   9.146   0.329  0.00  0.00    +0.142 A 
ATOM     33  C   UNL     1       4.588   7.958   0.647  0.00  0.00    +0.078 A 
ATOM     34  C   UNL     1       3.867   6.780   0.710  0.00  0.00    +0.046 A 
ATOM     35 CL   UNL     1       6.293   7.951   0.972  0.00  0.00    -0.081 Cl
ATOM     36  F   UNL     1       4.652  10.297   0.273  0.00  0.00    -0.204 F 
ENDBRANCH  27  29
ENDBRANCH   4  22
TORSDOF 4
