REMARK  Name = ZINC61641836
REMARK  8 active torsions:
REMARK  status: ('A' for Active; 'I' for Inactive)
REMARK    1  A    between atoms: C_1  and  N_2
REMARK    2  A    between atoms: N_2  and  C_3
REMARK    3  A    between atoms: N_2  and  C_4
REMARK    4  A    between atoms: C_4  and  C_5
REMARK    5  A    between atoms: N_10  and  C_11
REMARK    6  A    between atoms: C_11  and  C_12
REMARK    7  A    between atoms: N_14  and  C_15
REMARK    8  A    between atoms: C_18  and  N_22
REMARK                            x       y       z     vdW  Elec       q    Type
REMARK                         _______ _______ _______ _____ _____    ______ ____
ROOT
ATOM      1  C   UNL     1      -0.727   2.736  -3.193  0.00  0.00    +0.201 C 
ATOM      2  O   UNL     1      -1.144   3.543  -2.389  0.00  0.00    -0.278 OA
ATOM      3  N   UNL     1      -0.111   3.158  -4.315  0.00  0.00    -0.286 N 
ATOM      4  H   UNL     1       0.288   2.514  -4.921  0.00  0.00    +0.155 HD
ENDROOT
BRANCH   3   5
ATOM      5  C   UNL     1      -0.047   4.528  -4.606  0.00  0.00    +0.048 A 
ATOM      6  C   UNL     1      -0.047   5.457  -3.574  0.00  0.00    +0.026 A 
ATOM      7  C   UNL     1       0.017   6.807  -3.860  0.00  0.00    +0.024 A 
ATOM      8  C   UNL     1       0.080   7.235  -5.180  0.00  0.00    +0.026 A 
ATOM      9  C   UNL     1       0.080   6.306  -6.212  0.00  0.00    +0.039 A 
ATOM     10  C   UNL     1       0.022   4.955  -5.926  0.00  0.00    +0.041 A 
ATOM     11 BR   UNL     1       0.030   3.689  -7.330  0.00  0.00    -0.048 Br
BRANCH   8  12
ATOM     12  N   UNL     1       0.143   8.602  -5.470  0.00  0.00    -0.358 N 
ATOM     13  H   UNL     1       0.143   9.251  -4.749  0.00  0.00    +0.142 HD
ATOM     14  H   UNL     1       0.188   8.901  -6.391  0.00  0.00    +0.142 HD
ENDBRANCH   8  12
ENDBRANCH   3   5
BRANCH   1  15
ATOM     15  C   UNL     1      -0.896   1.260  -2.936  0.00  0.00    +0.019 C 
BRANCH  15  20
ATOM     16  C   UNL     1      -1.654  -0.377  -1.344  0.00  0.00    -0.054 C 
ATOM     17  C   UNL     1      -3.144  -0.758  -1.222  0.00  0.00    -0.016 C 
ATOM     18  C   UNL     1      -3.827   0.599  -0.909  0.00  0.00    -0.020 C 
ATOM     19  C   UNL     1      -2.977   1.580  -1.755  0.00  0.00    -0.078 C 
ATOM     20  N   UNL     1      -1.592   1.062  -1.658  0.00  0.00    +0.388 N 
ATOM     21  H   UNL     1      -1.097   1.548  -0.925  0.00  0.00    -0.081 HD
BRANCH  16  22
ATOM     22  C   UNL     1      -0.936  -0.653  -0.022  0.00  0.00    +0.068 C 
BRANCH  22  24
ATOM     23  C   UNL     1       1.037  -0.042   1.242  0.00  0.00    +0.104 C 
ATOM     24  N   UNL     1       0.441  -0.146  -0.097  0.00  0.00    -0.310 NA
ATOM     25  C   UNL     1       1.264  -0.987  -0.976  0.00  0.00    +0.104 C 
ENDBRANCH  22  24
ENDBRANCH  16  22
ENDBRANCH  15  20
ENDBRANCH   1  15
TORSDOF 6
