REMARK  Name = ZINC40854528
REMARK  5 active torsions:
REMARK  status: ('A' for Active; 'I' for Inactive)
REMARK    1  A    between atoms: C_1  and  C_2
REMARK    2  A    between atoms: C_2  and  C_4
REMARK    3  A    between atoms: C_2  and  N_11
REMARK    4  A    between atoms: C_12  and  C_14
REMARK    5  A    between atoms: C_17  and  O_21
REMARK                            x       y       z     vdW  Elec       q    Type
REMARK                         _______ _______ _______ _____ _____    ______ ____
ROOT
ATOM      1  N   UNL     1       0.688  -0.476  -1.203  0.00  0.00    -0.310 N 
ATOM      2  C   UNL     1       2.031  -0.587  -1.215  0.00  0.00    +0.200 C 
ATOM      3  O   UNL     1       2.672  -0.295  -0.228  0.00  0.00    -0.278 OA
ATOM      4  H   UNL     1       0.175  -0.710  -1.993  0.00  0.00    +0.149 HD
ENDROOT
BRANCH   2   5
ATOM      5  C   UNL     1       2.736  -1.073  -2.455  0.00  0.00    +0.018 C 
ATOM      6  C   UNL     1       2.910   0.083  -3.463  0.00  0.00    +0.023 C 
ATOM      7  C   UNL     1       4.294  -0.149  -4.104  0.00  0.00    +0.097 C 
ATOM      8  C   UNL     1       4.840  -1.425  -3.428  0.00  0.00    -0.050 C 
ATOM      9  N   UNL     1       4.121  -1.500  -2.129  0.00  0.00    +0.388 N 
ATOM     10  H   UNL     1       4.537  -0.870  -1.460  0.00  0.00    -0.085 HD
ATOM     11  H   UNL     1       4.125  -2.446  -1.776  0.00  0.00    -0.085 HD
BRANCH   7  12
ATOM     12  O   UNL     1       4.162  -0.348  -5.513  0.00  0.00    -0.394 OA
ATOM     13  H   UNL     1       5.002  -0.499  -5.969  0.00  0.00    +0.210 HD
ENDBRANCH   7  12
ENDBRANCH   2   5
BRANCH   1  15
ATOM     14  C   UNL     1      -0.019   1.526   0.010  0.00  0.00    +0.033 C 
ATOM     15  C   UNL     1       0.002  -0.004   0.002  0.00  0.00    +0.100 C 
BRANCH  15  16
ATOM     16  C   UNL     1      -1.412  -0.526   0.013  0.00  0.00    -0.027 A 
ATOM     17  C   UNL     1      -2.141  -0.569  -1.161  0.00  0.00    +0.006 A 
ATOM     18  C   UNL     1      -3.438  -1.048  -1.151  0.00  0.00    +0.015 A 
ATOM     19  C   UNL     1      -4.005  -1.484   0.032  0.00  0.00    +0.018 A 
ATOM     20  C   UNL     1      -3.275  -1.440   1.206  0.00  0.00    +0.015 A 
ATOM     21  C   UNL     1      -1.977  -0.966   1.195  0.00  0.00    +0.006 A 
ATOM     22 BR   UNL     1      -5.779  -2.138   0.046  0.00  0.00    -0.050 Br
ENDBRANCH  15  16
ENDBRANCH   1  15
TORSDOF 4
