REMARK  Name = ZINC13172296
REMARK  8 active torsions:
REMARK  status: ('A' for Active; 'I' for Inactive)
REMARK    1  A    between atoms: C_1  and  C_2
REMARK    2  A    between atoms: C_5  and  S_8
REMARK    3  A    between atoms: S_8  and  N_11
REMARK    4  A    between atoms: C_14  and  C_17
REMARK    5  A    between atoms: N_19  and  C_20
REMARK    6  A    between atoms: C_22  and  O_29
REMARK    7  A    between atoms: C_23  and  C_27
REMARK    8  A    between atoms: O_29  and  C_30
REMARK                            x       y       z     vdW  Elec       q    Type
REMARK                         _______ _______ _______ _____ _____    ______ ____
ROOT
ATOM      1  N   UNL     1       1.340   2.027  -0.018  0.00  0.00    -0.177 NA
ATOM      2  C   UNL     1      -0.041   1.527  -0.004  0.00  0.00    +0.110 C 
ATOM      3  C   UNL     1      -0.012  -0.004  -0.007  0.00  0.00    +0.030 C 
ATOM      4  C   UNL     1       0.822  -0.493  -1.194  0.00  0.00    +0.078 C 
ATOM      5  C   UNL     1       2.258   0.018  -1.056  0.00  0.00    +0.030 C 
ATOM      6  C   UNL     1       2.254   1.550  -1.065  0.00  0.00    +0.110 C 
ENDROOT
BRANCH   4   7
ATOM      7  C   UNL     1       0.825  -1.999  -1.220  0.00  0.00    +0.220 C 
ATOM      8  O   UNL     1       0.220  -2.621  -0.372  0.00  0.00    -0.275 OA
ATOM      9  N   UNL     1       1.500  -2.656  -2.184  0.00  0.00    -0.284 N 
ATOM     10  H   UNL     1       1.928  -2.160  -2.900  0.00  0.00    +0.155 HD
BRANCH   9  11
ATOM     11  C   UNL     1       1.582  -4.048  -2.154  0.00  0.00    +0.055 A 
ATOM     12  C   UNL     1       0.509  -4.794  -1.684  0.00  0.00    +0.071 A 
ATOM     13  C   UNL     1       0.586  -6.175  -1.657  0.00  0.00    +0.136 A 
ATOM     14  C   UNL     1       1.754  -6.818  -2.096  0.00  0.00    +0.106 A 
ATOM     15  C   UNL     1       2.831  -6.057  -2.563  0.00  0.00    +0.040 A 
ATOM     16  C   UNL     1       2.742  -4.684  -2.591  0.00  0.00    +0.063 A 
ATOM     17 CL   UNL     1       4.080  -3.742  -3.171  0.00  0.00    -0.082 Cl
BRANCH  14  18
ATOM     18  C   UNL     1       1.845  -8.286  -2.065  0.00  0.00    +0.390 C 
ATOM     19  O   UNL     1       0.908  -8.945  -1.658  0.00  0.00    -0.240 OA
ATOM     20  O   UNL     1       2.968  -8.901  -2.487  0.00  0.00    -0.240 OA
ENDBRANCH  14  18
BRANCH  13  21
ATOM     21  O   UNL     1      -0.463  -6.906  -1.203  0.00  0.00    -0.494 OA
ATOM     22  C   UNL     1      -1.619  -6.184  -0.772  0.00  0.00    +0.277 C 
ENDBRANCH  13  21
ENDBRANCH   9  11
ENDBRANCH   4   7
BRANCH   1  23
ATOM     23  S   UNL     1       1.858   3.107   1.126  0.00  0.00    +0.061 S 
ATOM     24  O   UNL     1       2.961   3.800   0.560  0.00  0.00    -0.153 OA
ATOM     25  O   UNL     1       0.701   3.778   1.605  0.00  0.00    -0.153 OA
BRANCH  23  30
ATOM     26  C   UNL     1       4.030  -0.099   5.753  0.00  0.00    +0.044 C 
ATOM     27  C   UNL     1       3.487   0.702   4.598  0.00  0.00    -0.050 A 
ATOM     28  C   UNL     1       4.325   1.079   3.565  0.00  0.00    +0.005 A 
ATOM     29  C   UNL     1       3.828   1.814   2.505  0.00  0.00    +0.029 A 
ATOM     30  C   UNL     1       2.492   2.170   2.477  0.00  0.00    +0.105 A 
ATOM     31  C   UNL     1       1.656   1.797   3.512  0.00  0.00    +0.029 A 
ATOM     32  C   UNL     1       2.152   1.058   4.570  0.00  0.00    +0.005 A 
ENDBRANCH  23  30
ENDBRANCH   1  23
TORSDOF 6
