REMARK  Name = ZINC33507204
REMARK  8 active torsions:
REMARK  status: ('A' for Active; 'I' for Inactive)
REMARK    1  A    between atoms: C_1  and  C_2
REMARK    2  A    between atoms: C_2  and  C_4
REMARK    3  A    between atoms: C_2  and  C_6
REMARK    4  A    between atoms: C_4  and  N_5
REMARK    5  A    between atoms: C_7  and  C_16
REMARK    6  A    between atoms: C_19  and  C_22
REMARK    7  A    between atoms: C_22  and  C_23
REMARK    8  A    between atoms: C_22  and  C_24
REMARK                            x       y       z     vdW  Elec       q    Type
REMARK                         _______ _______ _______ _____ _____    ______ ____
ROOT
ATOM      1  C   UNL     1       0.825  -0.527  -1.149  0.00  0.00    +0.052 A 
ATOM      2  C   UNL     1       2.136  -0.249  -1.395  0.00  0.00    +0.093 A 
ATOM      3  N   UNL     1       2.472  -0.805  -2.570  0.00  0.00    -0.228 NA
ATOM      4  C   UNL     1       1.415  -1.425  -3.074  0.00  0.00    +0.139 A 
ATOM      5  N   UNL     1       0.369  -1.272  -2.200  0.00  0.00    -0.301 N 
ATOM      6  C   UNL     1      -0.850  -1.824  -2.476  0.00  0.00    +0.113 A 
ATOM      7  C   UNL     1      -1.043  -2.531  -3.610  0.00  0.00    +0.058 A 
ATOM      8  C   UNL     1       0.011  -2.709  -4.523  0.00  0.00    +0.025 A 
ATOM      9  C   UNL     1       1.227  -2.157  -4.264  0.00  0.00    +0.048 A 
ATOM     10 CL   UNL     1      -2.599  -3.225  -3.941  0.00  0.00    -0.082 Cl
ENDROOT
BRANCH   2  11
ATOM     11  C   UNL     1       3.039   0.535  -0.515  0.00  0.00    +0.002 A 
ATOM     12  C   UNL     1       3.020   0.332   0.863  0.00  0.00    +0.010 A 
ATOM     13  C   UNL     1       3.862   1.063   1.677  0.00  0.00    +0.004 A 
ATOM     14  C   UNL     1       4.723   1.996   1.126  0.00  0.00    -0.045 A 
ATOM     15  C   UNL     1       4.745   2.201  -0.242  0.00  0.00    +0.004 A 
ATOM     16  C   UNL     1       3.912   1.471  -1.065  0.00  0.00    +0.010 A 
BRANCH  14  17
ATOM     17  C   UNL     1       5.639   2.791   2.020  0.00  0.00    +0.013 C 
ATOM     18  C   UNL     1       7.094   2.521   1.628  0.00  0.00    +0.012 C 
ATOM     19  C   UNL     1       5.337   4.282   1.863  0.00  0.00    +0.012 C 
ENDBRANCH  14  17
ENDBRANCH   2  11
BRANCH   1  21
ATOM     20  C   UNL     1      -0.458  -1.336   0.812  0.00  0.00    +0.012 C 
ATOM     21  C   UNL     1       0.030  -0.098   0.057  0.00  0.00    +0.018 C 
BRANCH  21  22
ATOM     22  C   UNL     1      -1.173   0.732  -0.394  0.00  0.00    -0.077 C 
BRANCH  22  23
ATOM     23  N   UNL     1      -0.704   1.979  -1.012  0.00  0.00    +0.379 N 
ATOM     24  H   UNL     1      -0.164   2.505  -0.341  0.00  0.00    -0.090 HD
ATOM     25  H   UNL     1      -0.127   1.762  -1.811  0.00  0.00    -0.090 HD
ATOM     26  H   UNL     1      -1.497   2.526  -1.310  0.00  0.00    -0.090 HD
ENDBRANCH  22  23
ENDBRANCH  21  22
ENDBRANCH   1  21
TORSDOF 5
