REMARK  Name = ZINC63398417
REMARK  7 active torsions:
REMARK  status: ('A' for Active; 'I' for Inactive)
REMARK    1  A    between atoms: C_4  and  C_7
REMARK    2  A    between atoms: N_9  and  C_10
REMARK    3  A    between atoms: C_10  and  C_19
REMARK    4  A    between atoms: C_11  and  C_12
REMARK    5  A    between atoms: N_21  and  C_22
REMARK    6  A    between atoms: C_22  and  C_23
REMARK    7  A    between atoms: C_23  and  C_24
REMARK                            x       y       z     vdW  Elec       q    Type
REMARK                         _______ _______ _______ _____ _____    ______ ____
ROOT
ATOM      1  C   UNL     1       4.957  -2.628  -0.210  0.00  0.00    +0.097 C 
ATOM      2  C   UNL     1       6.200  -2.304   0.214  0.00  0.00    +0.038 C 
ENDROOT
BRANCH   2   3
ATOM      3  C   UNL     1       7.252  -3.331   0.262  0.00  0.00    -0.005 A 
ATOM      4  C   UNL     1       6.939  -4.641   0.638  0.00  0.00    +0.009 A 
ATOM      5  C   UNL     1       7.930  -5.598   0.681  0.00  0.00    +0.001 A 
ATOM      6  C   UNL     1       9.234  -5.265   0.353  0.00  0.00    +0.001 A 
ATOM      7  C   UNL     1       9.553  -3.972  -0.020  0.00  0.00    +0.020 A 
ATOM      8  C   UNL     1       8.571  -3.003  -0.073  0.00  0.00    +0.048 A 
ATOM      9 CL   UNL     1       8.972  -1.382  -0.548  0.00  0.00    -0.083 Cl
ENDBRANCH   2   3
BRANCH   1  12
ATOM     10  C   UNL     1       2.680  -2.021  -0.532  0.00  0.00    +0.248 C 
ATOM     11  O   UNL     1       2.484  -3.088  -1.079  0.00  0.00    -0.270 OA
ATOM     12  N   UNL     1       3.919  -1.697  -0.112  0.00  0.00    -0.277 N 
ATOM     13  H   UNL     1       4.091  -0.817   0.259  0.00  0.00    +0.155 HD
BRANCH  10  17
ATOM     14  C   UNL     1      -0.539   0.686   0.059  0.00  0.00    +0.000 A 
ATOM     15  C   UNL     1      -0.765  -0.527  -0.565  0.00  0.00    +0.001 A 
ATOM     16  C   UNL     1       0.276  -1.411  -0.760  0.00  0.00    +0.013 A 
ATOM     17  C   UNL     1       1.560  -1.079  -0.327  0.00  0.00    +0.037 A 
ATOM     18  C   UNL     1       1.782   0.148   0.302  0.00  0.00    +0.013 A 
ATOM     19  C   UNL     1       0.732   1.022   0.491  0.00  0.00    +0.001 A 
ENDBRANCH  10  17
ENDBRANCH   1  12
BRANCH   1  20
ATOM     20  C   UNL     1       4.697  -3.961  -0.774  0.00  0.00    +0.258 C 
ATOM     21  O   UNL     1       4.079  -4.785  -0.128  0.00  0.00    -0.269 OA
ATOM     22  N   UNL     1       5.144  -4.269  -2.008  0.00  0.00    -0.310 N 
ATOM     23  H   UNL     1       5.696  -3.638  -2.496  0.00  0.00    +0.149 HD
BRANCH  22  24
ATOM     24  C   UNL     1       4.797  -5.558  -2.612  0.00  0.00    +0.109 C 
BRANCH  24  25
ATOM     25  C   UNL     1       5.525  -5.707  -3.950  0.00  0.00    +0.052 C 
BRANCH  25  26
ATOM     26  C   UNL     1       5.075  -6.975  -4.628  0.00  0.00    -0.040 C 
ATOM     27  C   UNL     1       4.104  -7.098  -5.561  0.00  0.00    -0.001 A 
ATOM     28  C   UNL     1       3.208  -6.125  -6.198  0.00  0.00    +0.010 A 
ATOM     29  C   UNL     1       2.317  -6.558  -7.119  0.00  0.00    +0.001 A 
ATOM     30  C   UNL     1       2.227  -7.910  -7.478  0.00  0.00    +0.002 A 
ATOM     31  C   UNL     1       3.015  -8.862  -6.936  0.00  0.00    +0.026 A 
ATOM     32  C   UNL     1       3.989  -8.519  -5.958  0.00  0.00    +0.043 A 
ATOM     33  N   UNL     1       4.856  -9.247  -5.296  0.00  0.00    -0.380 N 
ATOM     34  C   UNL     1       5.623  -8.367  -4.408  0.00  0.00    +0.144 C 
ATOM     35  H   UNL     1       4.972 -10.206  -5.383  0.00  0.00    +0.160 HD
ENDBRANCH  25  26
ENDBRANCH  24  25
ENDBRANCH  22  24
ENDBRANCH   1  20
TORSDOF 7
