REMARK  Name = ZINC39143181
REMARK  9 active torsions:
REMARK  status: ('A' for Active; 'I' for Inactive)
REMARK    1  A    between atoms: C_1  and  N_2
REMARK    2  A    between atoms: N_2  and  C_3
REMARK    3  A    between atoms: N_2  and  S_4
REMARK    4  A    between atoms: S_4  and  C_7
REMARK    5  A    between atoms: C_11  and  C_13
REMARK    6  A    between atoms: C_15  and  C_25
REMARK    7  A    between atoms: N_17  and  C_19
REMARK    8  A    between atoms: C_26  and  C_27
REMARK    9  A    between atoms: C_26  and  C_29
REMARK                            x       y       z     vdW  Elec       q    Type
REMARK                         _______ _______ _______ _____ _____    ______ ____
ROOT
ATOM      1  C   UNL     1       4.656  -3.963  -1.511  0.00  0.00    +0.134 C 
ATOM      2  C   UNL     1       5.412  -3.616  -0.245  0.00  0.00    -0.008 C 
ATOM      3  C   UNL     1       6.720  -3.604  -0.578  0.00  0.00    +0.099 C 
ATOM      4  N   UNL     1       6.901  -3.899  -1.896  0.00  0.00    -0.242 N 
ATOM      5  N   UNL     1       5.712  -4.130  -2.530  0.00  0.00    -0.224 NA
ATOM      6  H   UNL     1       5.579  -3.487  -3.296  0.00  0.00    +0.146 HD
ENDROOT
BRANCH   1  11
ATOM      7  C   UNL     1       1.505  -1.968  -2.101  0.00  0.00    +0.106 A 
ATOM      8  C   UNL     1       2.018  -0.784  -2.598  0.00  0.00    +0.028 A 
ATOM      9  C   UNL     1       3.383  -0.629  -2.743  0.00  0.00    +0.002 A 
ATOM     10  C   UNL     1       4.237  -1.658  -2.391  0.00  0.00    +0.005 A 
ATOM     11  C   UNL     1       3.725  -2.841  -1.894  0.00  0.00    -0.023 A 
ATOM     12  C   UNL     1       2.359  -2.995  -1.745  0.00  0.00    +0.034 A 
BRANCH   7  13
ATOM     13  S   UNL     1      -0.236  -2.166  -1.916  0.00  0.00    +0.060 S 
ATOM     14  O   UNL     1      -0.477  -3.563  -1.819  0.00  0.00    -0.153 OA
ATOM     15  O   UNL     1      -0.845  -1.355  -2.912  0.00  0.00    -0.153 OA
BRANCH  13  17
ATOM     16  C   UNL     1      -1.124  -0.127  -0.378  0.00  0.00    +0.131 C 
ATOM     17  N   UNL     1      -0.650  -1.511  -0.453  0.00  0.00    -0.183 NA
ATOM     18  C   UNL     1      -0.542  -2.315   0.767  0.00  0.00    +0.131 C 
ENDBRANCH  13  17
ENDBRANCH   7  13
ENDBRANCH   1  11
BRANCH   4  19
ATOM     19  C   UNL     1       8.148  -3.959  -2.523  0.00  0.00    +0.049 A 
ATOM     20  C   UNL     1       8.233  -4.262  -3.876  0.00  0.00    +0.025 A 
ATOM     21  C   UNL     1       9.467  -4.322  -4.493  0.00  0.00    +0.002 A 
ATOM     22  C   UNL     1      10.618  -4.080  -3.764  0.00  0.00    +0.000 A 
ATOM     23  C   UNL     1      10.537  -3.779  -2.417  0.00  0.00    +0.002 A 
ATOM     24  C   UNL     1       9.305  -3.711  -1.796  0.00  0.00    +0.025 A 
ENDBRANCH   4  19
BRANCH   2  25
ATOM     25  C   UNL     1       4.860  -3.357   1.025  0.00  0.00    +0.025 C 
ATOM     26  C   UNL     1       5.277  -4.069   2.106  0.00  0.00    +0.072 C 
BRANCH  26  27
ATOM     27  C   UNL     1       6.228  -5.224   1.925  0.00  0.00    +0.216 C 
ATOM     28  N   UNL     1       5.634  -6.455   2.461  0.00  0.00    -0.359 N 
ATOM     29  C   UNL     1       6.410  -6.882   3.414  0.00  0.00    +0.060 A 
ATOM     30  C   UNL     1       6.347  -8.046   4.309  0.00  0.00    +0.027 A 
ATOM     31  C   UNL     1       7.320  -8.236   5.223  0.00  0.00    +0.002 A 
ATOM     32  C   UNL     1       8.410  -7.359   5.363  0.00  0.00    +0.002 A 
ATOM     33  C   UNL     1       8.564  -6.262   4.594  0.00  0.00    +0.027 A 
ATOM     34  C   UNL     1       7.565  -5.954   3.562  0.00  0.00    +0.060 A 
ATOM     35  N   UNL     1       7.457  -4.989   2.695  0.00  0.00    -0.359 N 
ATOM     36  H   UNL     1       4.812  -6.873   2.159  0.00  0.00    +0.162 HD
ATOM     37  H   UNL     1       8.075  -4.251   2.577  0.00  0.00    +0.162 HD
ENDBRANCH  26  27
BRANCH  26  38
ATOM     38  C   UNL     1       4.813  -3.721   3.415  0.00  0.00    +0.099 C 
ATOM     39  N   UNL     1       4.444  -3.446   4.454  0.00  0.00    -0.191 NA
ENDBRANCH  26  38
ENDBRANCH   2  25
TORSDOF 7
