REMARK  Name = ZINC40415848
REMARK  3 active torsions:
REMARK  status: ('A' for Active; 'I' for Inactive)
REMARK    1  A    between atoms: C_6  and  C_7
REMARK    2  A    between atoms: C_19  and  N_22
REMARK    3  A    between atoms: N_25  and  C_26
REMARK                            x       y       z     vdW  Elec       q    Type
REMARK                         _______ _______ _______ _____ _____    ______ ____
ROOT
ATOM      1  C   UNL     1      -1.204  -0.706  -0.051  0.00  0.00    +0.247 C 
ATOM      2  O   UNL     1      -0.185  -0.065   0.123  0.00  0.00    -0.270 OA
ATOM      3  N   UNL     1      -2.390  -0.073  -0.147  0.00  0.00    -0.296 N 
ATOM      4  C   UNL     1      -3.597  -0.896  -0.224  0.00  0.00    +0.109 C 
ATOM      5  C   UNL     1      -4.195  -0.982   1.165  0.00  0.00    +0.038 C 
ATOM      6  C   UNL     1      -5.123   0.208   1.420  0.00  0.00    +0.108 C 
ATOM      7  N   UNL     1      -4.577   1.471   0.902  0.00  0.00    -0.315 N 
ATOM      8  C   UNL     1      -3.187   1.862   1.059  0.00  0.00    +0.125 C 
ATOM      9  C   UNL     1      -2.382   1.348  -0.162  0.00  0.00    +0.127 C 
ATOM     10  C   UNL     1      -5.435   2.336   0.229  0.00  0.00    +0.099 A 
ATOM     11  C   UNL     1      -4.921   3.471  -0.391  0.00  0.00    +0.043 A 
ATOM     12  C   UNL     1      -5.782   4.323  -1.057  0.00  0.00    +0.028 A 
ATOM     13  C   UNL     1      -7.140   4.010  -1.082  0.00  0.00    +0.051 A 
ATOM     14  C   UNL     1      -7.581   2.861  -0.443  0.00  0.00    +0.107 A 
ATOM     15  N   UNL     1      -6.730   2.067   0.180  0.00  0.00    -0.348 N 
ATOM     16  H   UNL     1      -7.063   1.267   0.616  0.00  0.00    +0.167 HD
ENDROOT
BRANCH   1  22
ATOM     17  C   UNL     1      -0.242  -2.778  -1.040  0.00  0.00    +0.017 A 
ATOM     18  C   UNL     1      -0.184  -4.152  -1.136  0.00  0.00    +0.050 A 
ATOM     19  C   UNL     1      -1.019  -4.942  -0.357  0.00  0.00    +0.166 A 
ATOM     20  C   UNL     1      -1.920  -4.347   0.527  0.00  0.00    +0.167 A 
ATOM     21  C   UNL     1      -1.982  -2.972   0.628  0.00  0.00    +0.062 A 
ATOM     22  C   UNL     1      -1.141  -2.177  -0.156  0.00  0.00    +0.041 A 
ATOM     23  O   UNL     1      -2.616  -5.332   1.167  0.00  0.00    -0.453 OA
ATOM     24  C   UNL     1      -2.422  -6.517   0.372  0.00  0.00    +0.466 C 
ATOM     25  O   UNL     1      -1.152  -6.296  -0.269  0.00  0.00    -0.453 OA
ENDBRANCH   1  22
BRANCH  13  26
ATOM     26  N   UNL     1      -8.050   4.846  -1.746  0.00  0.00    -0.268 N 
ATOM     27  C   UNL     1      -7.643   5.583  -2.798  0.00  0.00    +0.308 C 
ATOM     28  O   UNL     1      -6.513   5.456  -3.229  0.00  0.00    -0.252 OA
ATOM     29  N   UNL     1      -8.489   6.462  -3.372  0.00  0.00    -0.269 N 
ATOM     30  H   UNL     1      -8.972   4.893  -1.448  0.00  0.00    +0.156 HD
ATOM     31  H   UNL     1      -9.365   6.615  -2.986  0.00  0.00    +0.156 HD
BRANCH  29  32
ATOM     32  C   UNL     1      -8.102   7.154  -4.527  0.00  0.00    +0.038 A 
ATOM     33  C   UNL     1      -8.533   8.457  -4.733  0.00  0.00    +0.026 A 
ATOM     34  C   UNL     1      -8.151   9.139  -5.872  0.00  0.00    +0.043 A 
ATOM     35  C   UNL     1      -7.338   8.524  -6.809  0.00  0.00    +0.159 A 
ATOM     36  C   UNL     1      -6.906   7.222  -6.605  0.00  0.00    +0.160 A 
ATOM     37  C   UNL     1      -7.282   6.539  -5.463  0.00  0.00    +0.064 A 
ATOM     38  F   UNL     1      -6.113   6.623  -7.521  0.00  0.00    -0.202 F 
ATOM     39  F   UNL     1      -6.966   9.193  -7.922  0.00  0.00    -0.202 F 
ENDBRANCH  29  32
ENDBRANCH  13  26
TORSDOF 3
