REMARK  Name = ZINC19323689
REMARK  10 active torsions:
REMARK  status: ('A' for Active; 'I' for Inactive)
REMARK    1  A    between atoms: C_1  and  C_2
REMARK    2  A    between atoms: C_2  and  C_3
REMARK    3  A    between atoms: C_2  and  C_4
REMARK    4  A    between atoms: C_8  and  C_23
REMARK    5  A    between atoms: C_9  and  O_10
REMARK    6  A    between atoms: C_14  and  C_15
REMARK    7  A    between atoms: C_18  and  O_22
REMARK    8  A    between atoms: C_19  and  O_21
REMARK    9  A    between atoms: C_23  and  C_24
REMARK   10  A    between atoms: C_23  and  C_25
REMARK                            x       y       z     vdW  Elec       q    Type
REMARK                         _______ _______ _______ _____ _____    ______ ____
ROOT
ATOM      1  C   UNL     1       0.635   3.606  -1.185  0.00  0.00    -0.002 C 
ATOM      2  C   UNL     1      -0.791   3.042  -1.184  0.00  0.00    -0.065 C 
ATOM      3  N   UNL     1      -0.723   1.573  -1.183  0.00  0.00    +0.394 N 
ATOM      4  C   UNL     1      -0.077   1.083  -2.411  0.00  0.00    -0.065 C 
ATOM      5  C   UNL     1       1.370   1.589  -2.447  0.00  0.00    -0.002 C 
ATOM      6  C   UNL     1       1.355   3.123  -2.450  0.00  0.00    +0.126 C 
ATOM      7  C   UNL     1       2.092   1.105  -1.185  0.00  0.00    +0.090 C 
ATOM      8  N   UNL     1       1.367   1.595  -0.002  0.00  0.00    -0.310 NA
ATOM      9  C   UNL     1       1.379   3.065   0.042  0.00  0.00    +0.090 C 
ATOM     10  C   UNL     1      -0.013   1.086   0.008  0.00  0.00    +0.033 C 
ATOM     11  H   UNL     1      -1.750   1.180  -1.154  0.00  0.00    -0.079 HD
ENDROOT
BRANCH  10  12
ATOM     12  C   UNL     1      -0.718   1.572   1.248  0.00  0.00    -0.044 A 
ATOM     13  C   UNL     1       0.002   1.805   2.405  0.00  0.00    +0.007 A 
ATOM     14  C   UNL     1      -0.641   2.251   3.544  0.00  0.00    +0.049 A 
ATOM     15  C   UNL     1      -2.010   2.466   3.529  0.00  0.00    +0.158 A 
ATOM     16  C   UNL     1      -2.735   2.231   2.364  0.00  0.00    +0.158 A 
ATOM     17  C   UNL     1      -2.083   1.789   1.224  0.00  0.00    +0.052 A 
BRANCH  16  18
ATOM     18  O   UNL     1      -4.078   2.440   2.344  0.00  0.00    -0.503 OA
ATOM     19  H   UNL     1      -4.650   2.255   1.423  0.00  0.00    +0.292 HD
ENDBRANCH  16  18
BRANCH  15  20
ATOM     20  O   UNL     1      -2.643   2.905   4.649  0.00  0.00    -0.503 OA
ATOM     21  H   UNL     1      -3.730   3.075   4.636  0.00  0.00    +0.292 HD
ENDBRANCH  15  20
ENDBRANCH  10  12
BRANCH   1  23
ATOM     22  C   UNL     1      -0.126   5.604   0.109  0.00  0.00    +0.008 C 
ATOM     23  C   UNL     1       0.594   5.135  -1.157  0.00  0.00    -0.009 C 
ATOM     24  C   UNL     1       2.022   5.684  -1.165  0.00  0.00    +0.008 C 
ENDBRANCH   1  23
BRANCH   5  25
ATOM     25  C   UNL     1       2.090   1.070  -3.694  0.00  0.00    -0.009 C 
ATOM     26  C   UNL     1       3.528   1.592  -3.707  0.00  0.00    +0.008 C 
ATOM     27  C   UNL     1       2.102  -0.459  -3.676  0.00  0.00    +0.008 C 
ENDBRANCH   5  25
BRANCH   6  28
ATOM     28  O   UNL     1       0.663   3.594  -3.609  0.00  0.00    -0.391 OA
ATOM     29  H   UNL     1       1.038   3.343  -4.612  0.00  0.00    +0.210 HD
ENDBRANCH   6  28
TORSDOF 6
