REMARK  Name = ZINC63098046
REMARK  9 active torsions:
REMARK  status: ('A' for Active; 'I' for Inactive)
REMARK    1  A    between atoms: C_1  and  C_2
REMARK    2  A    between atoms: C_2  and  C_4
REMARK    3  A    between atoms: C_2  and  N_14
REMARK    4  A    between atoms: N_6  and  C_7
REMARK    5  A    between atoms: C_7  and  C_8
REMARK    6  A    between atoms: N_14  and  C_15
REMARK    7  A    between atoms: C_15  and  C_16
REMARK    8  A    between atoms: C_16  and  C_18
REMARK    9  A    between atoms: C_16  and  C_24
REMARK                            x       y       z     vdW  Elec       q    Type
REMARK                         _______ _______ _______ _____ _____    ______ ____
ROOT
ATOM      1  C   UNL     1      -1.950  -0.437  -1.385  0.00  0.00    -0.073 C 
ENDROOT
BRANCH   1   2
ATOM      2  N   UNL     1      -1.300  -0.700  -0.094  0.00  0.00    +0.387 N 
ATOM      3  H   UNL     1      -1.489  -1.649   0.191  0.00  0.00    -0.085 HD
ATOM      4  H   UNL     1      -1.660  -0.062   0.600  0.00  0.00    -0.085 HD
BRANCH   2   6
ATOM      5  C   UNL     1       0.446   0.959  -0.538  0.00  0.00    -0.004 C 
ATOM      6  C   UNL     1       0.151  -0.510  -0.229  0.00  0.00    +0.013 C 
BRANCH   6   7
ATOM      7  C   UNL     1       0.830  -0.898   1.059  0.00  0.00    +0.199 C 
ATOM      8  O   UNL     1       0.171  -1.294   1.997  0.00  0.00    -0.278 OA
ATOM      9  N   UNL     1       2.170  -0.805   1.169  0.00  0.00    -0.313 N 
ATOM     10  H   UNL     1       2.697  -0.488   0.419  0.00  0.00    +0.149 HD
BRANCH   9  11
ATOM     11  C   UNL     1       2.830  -1.182   2.421  0.00  0.00    +0.139 C 
BRANCH  11  12
ATOM     12  C   UNL     1       4.318  -0.987   2.283  0.00  0.00    -0.030 A 
ATOM     13  C   UNL     1       5.111  -2.019   1.817  0.00  0.00    +0.005 A 
ATOM     14  C   UNL     1       6.475  -1.840   1.690  0.00  0.00    +0.000 A 
ATOM     15  C   UNL     1       7.048  -0.628   2.029  0.00  0.00    +0.000 A 
ATOM     16  C   UNL     1       6.255   0.405   2.494  0.00  0.00    +0.000 A 
ATOM     17  C   UNL     1       4.890   0.227   2.617  0.00  0.00    +0.005 A 
ENDBRANCH  11  12
ENDBRANCH   9  11
ENDBRANCH   6   7
ENDBRANCH   2   6
ENDBRANCH   1   2
BRANCH   1  18
ATOM     18  C   UNL     1      -3.442  -0.760  -1.279  0.00  0.00    +0.014 C 
BRANCH  18  19
ATOM     19  C   UNL     1      -3.620  -2.238  -1.049  0.00  0.00    -0.039 C 
ATOM     20  C   UNL     1      -4.223  -2.830   0.008  0.00  0.00    -0.001 A 
ATOM     21  C   UNL     1      -4.866  -2.294   1.213  0.00  0.00    +0.010 A 
ATOM     22  C   UNL     1      -5.392  -3.156   2.114  0.00  0.00    +0.001 A 
ATOM     23  C   UNL     1      -5.337  -4.544   1.926  0.00  0.00    +0.002 A 
ATOM     24  C   UNL     1      -4.762  -5.110   0.844  0.00  0.00    +0.026 A 
ATOM     25  C   UNL     1      -4.178  -4.299  -0.168  0.00  0.00    +0.043 A 
ATOM     26  N   UNL     1      -3.572  -4.604  -1.290  0.00  0.00    -0.380 N 
ATOM     27  C   UNL     1      -3.168  -3.361  -1.956  0.00  0.00    +0.145 C 
ATOM     28  H   UNL     1      -3.420  -5.502  -1.625  0.00  0.00    +0.160 HD
ENDBRANCH  18  19
BRANCH  18  29
ATOM     29  C   UNL     1      -4.144  -0.357  -2.578  0.00  0.00    +0.060 C 
ATOM     30  C   UNL     1      -4.180   1.184  -2.751  0.00  0.00    +0.042 C 
ATOM     31  C   UNL     1      -5.485   1.621  -3.335  0.00  0.00    -0.019 C 
ATOM     32  C   UNL     1      -6.526   0.811  -3.294  0.00  0.00    +0.036 C 
ATOM     33  S   UNL     1      -5.956  -0.678  -2.494  0.00  0.00    -0.129 S 
ENDBRANCH  18  29
ENDBRANCH   1  18
TORSDOF 8
