REMARK  Name = ZINC00943347
REMARK  13 active torsions:
REMARK  status: ('A' for Active; 'I' for Inactive)
REMARK    1  A    between atoms: C_1  and  C_2
REMARK    2  A    between atoms: C_2  and  C_3
REMARK    3  A    between atoms: C_2  and  C_4
REMARK    4  A    between atoms: C_2  and  C_5
REMARK    5  A    between atoms: C_7  and  C_16
REMARK    6  A    between atoms: C_9  and  C_12
REMARK    7  A    between atoms: C_10  and  O_11
REMARK    8  A    between atoms: C_12  and  C_13
REMARK    9  A    between atoms: C_12  and  C_14
REMARK   10  A    between atoms: C_12  and  C_15
REMARK   11  A    between atoms: C_16  and  C_18
REMARK   12  A    between atoms: C_16  and  N_64
REMARK   13  A    between atoms: C_21  and  O_24
REMARK                            x       y       z     vdW  Elec       q    Type
REMARK                         _______ _______ _______ _____ _____    ______ ____
ROOT
ATOM      1  C   UNL     1      -0.674   5.598  -2.216  0.00  0.00    -0.000 A 
ATOM      2  C   UNL     1      -0.677   4.217  -2.251  0.00  0.00    +0.010 A 
ATOM      3  C   UNL     1      -0.796   3.494  -1.078  0.00  0.00    -0.056 A 
ATOM      4  C   UNL     1      -0.919   4.152   0.132  0.00  0.00    +0.010 A 
ATOM      5  C   UNL     1      -0.911   5.533   0.173  0.00  0.00    -0.000 A 
ATOM      6  C   UNL     1      -0.792   6.260  -1.002  0.00  0.00    +0.124 A 
ENDROOT
BRANCH   1   8
ATOM      7  C   UNL     1      -0.432   5.421  -4.677  0.00  0.00    +0.015 C 
ATOM      8  C   UNL     1      -0.545   6.385  -3.494  0.00  0.00    -0.009 C 
ATOM      9  C   UNL     1      -1.778   7.272  -3.675  0.00  0.00    +0.015 C 
ATOM     10  C   UNL     1       0.708   7.261  -3.429  0.00  0.00    +0.015 C 
ENDBRANCH   1   8
BRANCH   5  11
ATOM     11  C   UNL     1      -1.040   6.248   1.493  0.00  0.00    -0.009 C 
ATOM     12  C   UNL     1      -1.156   5.221   2.621  0.00  0.00    +0.015 C 
ATOM     13  C   UNL     1       0.197   7.120   1.723  0.00  0.00    +0.015 C 
ATOM     14  C   UNL     1      -2.289   7.130   1.476  0.00  0.00    +0.015 C 
ENDBRANCH   5  11
BRANCH   6  15
ATOM     15  O   UNL     1      -0.789   7.618  -0.965  0.00  0.00    -0.506 OA
ATOM     16  H   UNL     1      -1.668   8.015  -1.041  0.00  0.00    +0.292 HD
ENDBRANCH   6  15
BRANCH   3  17
ATOM     17  C   UNL     1      -0.798   1.988  -1.120  0.00  0.00    -0.007 C 
BRANCH  17  23
ATOM     18  C   UNL     1       1.350   2.006  -0.000  0.00  0.00    -0.049 C 
ATOM     19  C   UNL     1       2.107   1.484   1.224  0.00  0.00    +0.141 C 
ATOM     20  O   UNL     1       2.090   0.054   1.216  0.00  0.00    -0.383 OA
ATOM     21  C   UNL     1       0.773  -0.505   1.226  0.00  0.00    +0.141 C 
ATOM     22  C   UNL     1       0.002  -0.004   0.002  0.00  0.00    -0.049 C 
ATOM     23  N   UNL     1      -0.029   1.474   0.034  0.00  0.00    +0.390 N 
ATOM     24  H   UNL     1      -0.484   1.780   0.902  0.00  0.00    -0.080 HD
ENDBRANCH  17  23
BRANCH  17  25
ATOM     25  C   UNL     1      -2.216   1.485  -1.026  0.00  0.00    -0.056 A 
ATOM     26  C   UNL     1      -2.843   1.413   0.204  0.00  0.00    +0.006 A 
ATOM     27  C   UNL     1      -4.144   0.958   0.292  0.00  0.00    +0.045 A 
ATOM     28  C   UNL     1      -4.818   0.561  -0.855  0.00  0.00    +0.117 A 
ATOM     29  C   UNL     1      -4.184   0.629  -2.087  0.00  0.00    +0.045 A 
ATOM     30  C   UNL     1      -2.885   1.091  -2.170  0.00  0.00    +0.006 A 
BRANCH  28  31
ATOM     31  O   UNL     1      -6.096   0.107  -0.770  0.00  0.00    -0.507 OA
ATOM     32  H   UNL     1      -6.165  -0.848  -0.637  0.00  0.00    +0.292 HD
ENDBRANCH  28  31
ENDBRANCH  17  25
ENDBRANCH   3  17
TORSDOF 7
