REMARK  Name = ZINC24945946
REMARK  5 active torsions:
REMARK  status: ('A' for Active; 'I' for Inactive)
REMARK    1  A    between atoms: C_4  and  C_7
REMARK    2  A    between atoms: N_16  and  C_17
REMARK    3  A    between atoms: C_17  and  C_18
REMARK    4  A    between atoms: C_27  and  S_29
REMARK    5  A    between atoms: S_29  and  N_32
REMARK                            x       y       z     vdW  Elec       q    Type
REMARK                         _______ _______ _______ _____ _____    ______ ____
ROOT
ATOM      1  C   UNL     1      -4.490   3.354   6.763  0.00  0.00    +0.020 C 
ENDROOT
BRANCH   1   2
ATOM      2  C   UNL     1      -3.906   2.634   5.575  0.00  0.00    +0.203 C 
ATOM      3  O   UNL     1      -4.280   1.513   5.301  0.00  0.00    -0.277 OA
ATOM      4  N   UNL     1      -2.968   3.235   4.817  0.00  0.00    -0.272 N 
ATOM      5  C   UNL     1      -2.438   4.582   5.047  0.00  0.00    +0.118 C 
ATOM      6  C   UNL     1      -1.408   4.807   3.928  0.00  0.00    +0.056 C 
ATOM      7  C   UNL     1      -1.434   3.526   3.124  0.00  0.00    -0.023 A 
ATOM      8  C   UNL     1      -2.358   2.666   3.695  0.00  0.00    +0.040 A 
ATOM      9  C   UNL     1      -2.559   1.409   3.121  0.00  0.00    +0.026 A 
ATOM     10  C   UNL     1      -1.846   1.034   2.001  0.00  0.00    +0.030 A 
ATOM     11  C   UNL     1      -0.927   1.900   1.439  0.00  0.00    +0.105 A 
ATOM     12  C   UNL     1      -0.719   3.144   2.005  0.00  0.00    +0.034 A 
BRANCH  11  13
ATOM     13  S   UNL     1      -0.017   1.417   0.010  0.00  0.00    +0.056 S 
ATOM     14  O   UNL     1       0.002  -0.004   0.002  0.00  0.00    -0.153 OA
ATOM     15  O   UNL     1       1.172   2.195   0.003  0.00  0.00    -0.153 OA
BRANCH  13  16
ATOM     16  N   UNL     1      -0.897   1.885  -1.312  0.00  0.00    -0.204 NA
ATOM     17  H   UNL     1      -0.361   1.601  -2.229  0.00  0.00    +0.144 HD
ATOM     18  H   UNL     1      -1.036   2.977  -1.292  0.00  0.00    +0.144 HD
ENDBRANCH  13  16
ENDBRANCH  11  13
ENDBRANCH   1   2
BRANCH   1  27
ATOM     19  C   UNL     1      -5.900   3.058   8.708  0.00  0.00    -0.005 C 
ATOM     20  C   UNL     1      -6.945   2.135   9.329  0.00  0.00    -0.047 A 
ATOM     21  C   UNL     1      -7.286   2.146  10.679  0.00  0.00    +0.010 A 
ATOM     22  C   UNL     1      -8.225   1.290  11.147  0.00  0.00    +0.045 A 
ATOM     23  S   UNL     1      -8.687   0.404   9.666  0.00  0.00    -0.101 S 
ATOM     24  C   UNL     1      -7.601   1.236   8.543  0.00  0.00    -0.010 A 
ATOM     25  C   UNL     1      -7.416   1.035   7.074  0.00  0.00    +0.024 C 
ATOM     26  C   UNL     1      -6.627   2.238   6.531  0.00  0.00    -0.072 C 
ATOM     27  N   UNL     1      -5.483   2.493   7.418  0.00  0.00    +0.393 N 
ATOM     28  H   UNL     1      -5.012   1.521   7.629  0.00  0.00    -0.080 HD
BRANCH  19  32
ATOM     29  C   UNL     1      -2.522   3.351  11.306  0.00  0.00    +0.000 A 
ATOM     30  C   UNL     1      -3.462   4.365  11.277  0.00  0.00    +0.000 A 
ATOM     31  C   UNL     1      -4.555   4.270  10.436  0.00  0.00    +0.002 A 
ATOM     32  C   UNL     1      -4.708   3.162   9.624  0.00  0.00    -0.057 A 
ATOM     33  C   UNL     1      -3.771   2.146   9.657  0.00  0.00    +0.002 A 
ATOM     34  C   UNL     1      -2.676   2.243  10.495  0.00  0.00    +0.000 A 
ENDBRANCH  19  32
ENDBRANCH   1  27
TORSDOF 5
