REMARK  Name = ZINC59015557
REMARK  10 active torsions:
REMARK  status: ('A' for Active; 'I' for Inactive)
REMARK    1  A    between atoms: C_1  and  C_2
REMARK    2  A    between atoms: C_2  and  C_3
REMARK    3  A    between atoms: C_3  and  C_5
REMARK    4  A    between atoms: C_3  and  C_6
REMARK    5  A    between atoms: C_9  and  N_12
REMARK    6  A    between atoms: C_13  and  C_15
REMARK    7  A    between atoms: C_15  and  S_16
REMARK    8  A    between atoms: S_16  and  C_17
REMARK    9  A    between atoms: N_22  and  N_23
REMARK   10  A    between atoms: C_24  and  C_25
REMARK                            x       y       z     vdW  Elec       q    Type
REMARK                         _______ _______ _______ _____ _____    ______ ____
ROOT
ATOM      1  C   UNL     1      -2.308 -10.526   3.319  0.00  0.00    +0.211 A 
ATOM      2  N   UNL     1      -2.731 -11.336   4.295  0.00  0.00    -0.186 NA
ATOM      3  C   UNL     1      -2.400 -12.579   4.014  0.00  0.00    +0.232 A 
ATOM      4  N   UNL     1      -1.749 -12.580   2.831  0.00  0.00    -0.245 N 
ATOM      5  N   UNL     1      -1.707 -11.244   2.400  0.00  0.00    -0.144 NA
ATOM      6  N   UNL     1      -2.672 -13.689   4.793  0.00  0.00    -0.205 N 
ATOM      7  H   UNL     1      -2.386 -14.568   4.501  0.00  0.00    +0.177 HD
ATOM      8  H   UNL     1      -1.386 -13.351   2.369  0.00  0.00    +0.192 HD
ENDROOT
BRANCH   6   9
ATOM      9  N   UNL     1      -3.360 -13.543   6.005  0.00  0.00    -0.188 NA
ATOM     10  C   UNL     1      -3.615 -14.584   6.736  0.00  0.00    +0.138 C 
BRANCH  10  11
ATOM     11  C   UNL     1      -4.340 -14.430   8.011  0.00  0.00    -0.005 A 
ATOM     12  C   UNL     1      -4.757 -13.165   8.433  0.00  0.00    +0.010 A 
ATOM     13  C   UNL     1      -5.435 -13.029   9.626  0.00  0.00    +0.016 A 
ATOM     14  C   UNL     1      -5.701 -14.141  10.406  0.00  0.00    +0.018 A 
ATOM     15  C   UNL     1      -5.289 -15.398   9.995  0.00  0.00    +0.016 A 
ATOM     16  C   UNL     1      -4.616 -15.549   8.801  0.00  0.00    +0.010 A 
ATOM     17 BR   UNL     1      -6.629 -13.944  12.042  0.00  0.00    -0.050 Br
ENDBRANCH  10  11
ENDBRANCH   6   9
BRANCH   1  18
ATOM     18  S   UNL     1      -2.529  -8.779   3.271  0.00  0.00    -0.075 S 
BRANCH  18  19
ATOM     19  C   UNL     1      -1.750  -8.281   1.710  0.00  0.00    +0.173 C 
BRANCH  19  21
ATOM     20  N   UNL     1      -1.359  -6.190   0.448  0.00  0.00    -0.285 N 
ATOM     21  C   UNL     1      -1.870  -6.788   1.542  0.00  0.00    +0.227 C 
ATOM     22  O   UNL     1      -2.426  -6.125   2.392  0.00  0.00    -0.275 OA
ATOM     23  H   UNL     1      -0.983  -6.726  -0.267  0.00  0.00    +0.155 HD
BRANCH  20  27
ATOM     24  C   UNL     1      -1.395  -2.035   0.137  0.00  0.00    -0.044 A 
ATOM     25  C   UNL     1      -1.244  -2.633   1.374  0.00  0.00    +0.006 A 
ATOM     26  C   UNL     1      -1.232  -4.010   1.481  0.00  0.00    +0.023 A 
ATOM     27  C   UNL     1      -1.372  -4.794   0.344  0.00  0.00    +0.033 A 
ATOM     28  C   UNL     1      -1.524  -4.191  -0.898  0.00  0.00    +0.023 A 
ATOM     29  C   UNL     1      -1.541  -2.813  -0.997  0.00  0.00    +0.006 A 
BRANCH  24  30
ATOM     30  C   UNL     1      -1.409  -0.532   0.024  0.00  0.00    +0.016 C 
ATOM     31  C   UNL     1      -0.083   0.029   0.541  0.00  0.00    +0.012 C 
BRANCH  30  33
ATOM     32  C   UNL     1      -2.652   1.544   0.645  0.00  0.00    +0.004 C 
ATOM     33  C   UNL     1      -2.562   0.031   0.857  0.00  0.00    +0.004 C 
ENDBRANCH  30  33
ENDBRANCH  24  30
ENDBRANCH  20  27
ENDBRANCH  19  21
ENDBRANCH  18  19
ENDBRANCH   1  18
TORSDOF 8
