REMARK  Name = ZINC32951099
REMARK  13 active torsions:
REMARK  status: ('A' for Active; 'I' for Inactive)
REMARK    1  A    between atoms: C_1  and  C_2
REMARK    2  A    between atoms: C_5  and  S_9
REMARK    3  A    between atoms: C_6  and  C_8
REMARK    4  A    between atoms: S_9  and  C_12
REMARK    5  A    between atoms: C_13  and  N_36
REMARK    6  A    between atoms: C_14  and  C_26
REMARK    7  A    between atoms: C_16  and  N_17
REMARK    8  A    between atoms: N_17  and  C_18
REMARK    9  A    between atoms: C_23  and  O_24
REMARK   10  A    between atoms: O_24  and  C_25
REMARK   11  A    between atoms: C_26  and  C_28
REMARK   12  A    between atoms: C_30  and  C_35
REMARK   13  A    between atoms: C_33  and  C_34
REMARK                            x       y       z     vdW  Elec       q    Type
REMARK                         _______ _______ _______ _____ _____    ______ ____
ROOT
ATOM      1  C   UNL     1      -7.274   1.687  -0.028  0.00  0.00    +0.143 A 
ATOM      2  C   UNL     1      -7.148   2.295   1.195  0.00  0.00    +0.070 A 
ATOM      3  C   UNL     1      -6.001   2.025   1.953  0.00  0.00    +0.084 A 
ATOM      4  S   UNL     1      -5.108   0.901   0.892  0.00  0.00    -0.066 S 
ATOM      5  C   UNL     1      -6.272   0.840  -0.459  0.00  0.00    +0.098 A 
ENDROOT
BRANCH   1   6
ATOM      6  S   UNL     1      -8.691   1.983  -1.034  0.00  0.00    +0.029 S 
ATOM      7  O   UNL     1      -9.002   3.363  -0.901  0.00  0.00    -0.164 OA
ATOM      8  O   UNL     1      -8.428   1.379  -2.293  0.00  0.00    -0.164 OA
BRANCH   6  13
ATOM      9  C   UNL     1     -13.285  -1.063   1.419  0.00  0.00    +0.044 C 
ATOM     10  C   UNL     1     -12.138  -0.302   0.806  0.00  0.00    -0.050 A 
ATOM     11  C   UNL     1     -12.180   1.078   0.740  0.00  0.00    +0.005 A 
ATOM     12  C   UNL     1     -11.126   1.776   0.182  0.00  0.00    +0.028 A 
ATOM     13  C   UNL     1     -10.033   1.094  -0.318  0.00  0.00    +0.097 A 
ATOM     14  C   UNL     1      -9.989  -0.286  -0.251  0.00  0.00    -0.025 A 
ATOM     15  C   UNL     1     -11.043  -0.984   0.311  0.00  0.00    +0.008 A 
ATOM     16  C   UNL     1      -8.795  -1.030  -0.791  0.00  0.00    +0.046 C 
ENDBRANCH   6  13
ENDBRANCH   1   6
BRANCH   2  17
ATOM     17  N   UNL     1      -8.131   3.156   1.669  0.00  0.00    -0.355 N 
ATOM     18  H   UNL     1      -8.014   3.636   2.652  0.00  0.00    +0.142 HD
ATOM     19  H   UNL     1      -9.025   3.358   1.062  0.00  0.00    +0.142 HD
ENDBRANCH   2  17
BRANCH   5  20
ATOM     20  N   UNL     1      -6.189   0.128  -1.642  0.00  0.00    -0.305 N 
ATOM     21  H   UNL     1      -6.926   0.300  -2.440  0.00  0.00    +0.153 HD
BRANCH  20  22
ATOM     22  C   UNL     1      -5.166  -0.810  -1.824  0.00  0.00    +0.074 A 
ATOM     23  C   UNL     1      -4.516  -1.352  -0.724  0.00  0.00    +0.027 A 
ATOM     24  C   UNL     1      -3.507  -2.279  -0.906  0.00  0.00    +0.002 A 
ATOM     25  C   UNL     1      -3.143  -2.669  -2.182  0.00  0.00    +0.004 A 
ATOM     26  C   UNL     1      -3.787  -2.134  -3.282  0.00  0.00    +0.047 A 
ATOM     27  C   UNL     1      -4.803  -1.208  -3.109  0.00  0.00    +0.141 A 
BRANCH  27  28
ATOM     28  O   UNL     1      -5.441  -0.685  -4.190  0.00  0.00    -0.493 OA
ATOM     29  C   UNL     1      -5.016  -1.139  -5.476  0.00  0.00    +0.277 C 
ENDBRANCH  27  28
ENDBRANCH  20  22
ENDBRANCH   5  20
BRANCH   3  30
ATOM     30  C   UNL     1      -5.643   2.518   3.220  0.00  0.00    +0.202 C 
ATOM     31  O   UNL     1      -6.426   3.209   3.849  0.00  0.00    -0.286 OA
BRANCH  30  32
ATOM     32  C   UNL     1      -4.315   2.197   3.790  0.00  0.00    +0.026 A 
ATOM     33  C   UNL     1      -4.200   1.251   4.809  0.00  0.00    +0.015 A 
ATOM     34  C   UNL     1      -2.960   0.960   5.340  0.00  0.00    -0.050 A 
ATOM     35  C   UNL     1      -1.831   1.597   4.856  0.00  0.00    +0.003 A 
ATOM     36  C   UNL     1      -1.938   2.533   3.843  0.00  0.00    +0.004 A 
ATOM     37  C   UNL     1      -3.172   2.836   3.307  0.00  0.00    -0.040 A 
ATOM     38  C   UNL     1      -3.287   3.855   2.203  0.00  0.00    +0.044 C 
ATOM     39  C   UNL     1      -2.834  -0.058   6.444  0.00  0.00    +0.044 C 
ENDBRANCH  30  32
ENDBRANCH   3  30
TORSDOF 8
