REMARK  Name = ZINC38639432
REMARK  7 active torsions:
REMARK  status: ('A' for Active; 'I' for Inactive)
REMARK    1  A    between atoms: C_1  and  C_2
REMARK    2  A    between atoms: C_6  and  N_12
REMARK    3  A    between atoms: C_9  and  C_11
REMARK    4  A    between atoms: C_13  and  C_15
REMARK    5  A    between atoms: C_15  and  S_16
REMARK    6  A    between atoms: S_16  and  C_17
REMARK    7  A    between atoms: N_31  and  C_32
REMARK                            x       y       z     vdW  Elec       q    Type
REMARK                         _______ _______ _______ _____ _____    ______ ____
ROOT
ATOM      1  N   UNL     1       3.313  -2.384  -2.487  0.00  0.00    -0.285 N 
ATOM      2  C   UNL     1       4.379  -2.496  -3.305  0.00  0.00    +0.225 C 
ATOM      3  O   UNL     1       4.612  -1.628  -4.119  0.00  0.00    -0.275 OA
ATOM      4  H   UNL     1       3.127  -3.079  -1.835  0.00  0.00    +0.151 HD
ENDROOT
BRANCH   1   9
ATOM      5  C   UNL     1      -0.019   1.526   0.010  0.00  0.00    +0.030 C 
ATOM      6  C   UNL     1       0.002  -0.004   0.002  0.00  0.00    +0.099 C 
ATOM      7  C   UNL     1       0.712  -0.492  -1.232  0.00  0.00    -0.011 C 
ATOM      8  C   UNL     1       2.029  -0.763  -1.215  0.00  0.00    +0.065 C 
ATOM      9  C   UNL     1       2.437  -1.214  -2.581  0.00  0.00    +0.243 C 
ATOM     10  O   UNL     1       1.211  -1.562  -3.261  0.00  0.00    -0.347 OA
ATOM     11  C   UNL     1       0.198  -0.762  -2.613  0.00  0.00    +0.146 C 
ATOM     12  C   UNL     1       0.002   0.554  -3.369  0.00  0.00    +0.043 C 
ATOM     13  C   UNL     1       2.797  -0.603   0.029  0.00  0.00    +0.258 C 
ATOM     14  O   UNL     1       4.009  -0.695   0.056  0.00  0.00    -0.269 OA
ATOM     15  N   UNL     1       2.069  -0.345   1.144  0.00  0.00    -0.247 N 
ATOM     16  N   UNL     1       0.718  -0.493   1.188  0.00  0.00    -0.233 NA
ATOM     17  H   UNL     1       2.530  -0.044   1.943  0.00  0.00    +0.169 HD
ATOM     18  H   UNL     1       0.464  -1.448   1.395  0.00  0.00    +0.145 HD
ENDBRANCH   1   9
BRANCH   2  19
ATOM     19  C   UNL     1       5.281  -3.699  -3.207  0.00  0.00    +0.168 C 
BRANCH  19  20
ATOM     20  S   UNL     1       6.613  -3.557  -4.431  0.00  0.00    -0.110 S 
BRANCH  20  21
ATOM     21  C   UNL     1       7.595  -5.062  -4.186  0.00  0.00    +0.222 C 
ATOM     22  N   UNL     1       6.747  -6.239  -4.445  0.00  0.00    -0.311 N 
ATOM     23  C   UNL     1       5.935  -6.652  -3.417  0.00  0.00    +0.080 A 
ATOM     24  C   UNL     1       6.222  -6.369  -2.074  0.00  0.00    +0.069 A 
ATOM     25  C   UNL     1       5.256  -6.865  -1.107  0.00  0.00    -0.023 A 
ATOM     26  C   UNL     1       4.217  -7.539  -1.648  0.00  0.00    -0.005 A 
ATOM     27  S   UNL     1       4.517  -7.513  -3.394  0.00  0.00    -0.078 S 
ATOM     28  C   UNL     1       3.071  -8.166  -0.916  0.00  0.00    +0.043 C 
ATOM     29  C   UNL     1       3.439  -8.255   0.573  0.00  0.00    +0.005 C 
ATOM     30  C   UNL     1       3.993  -6.901   1.028  0.00  0.00    +0.005 C 
ATOM     31  C   UNL     1       5.366  -6.663   0.397  0.00  0.00    +0.037 C 
ATOM     32  C   UNL     1       7.461  -5.614  -1.778  0.00  0.00    +0.251 C 
ATOM     33  O   UNL     1       7.869  -5.486  -0.638  0.00  0.00    -0.270 OA
ATOM     34  N   UNL     1       8.118  -5.075  -2.825  0.00  0.00    -0.273 N 
ATOM     35  C   UNL     1       9.430  -4.470  -2.580  0.00  0.00    +0.135 C 
ATOM     36  H   UNL     1       6.761  -6.700  -5.299  0.00  0.00    +0.149 HD
ENDBRANCH  20  21
ENDBRANCH  19  20
ENDBRANCH   2  19
TORSDOF 4
