REMARK  Name = ZINC60361356
REMARK  8 active torsions:
REMARK  status: ('A' for Active; 'I' for Inactive)
REMARK    1  A    between atoms: C_1  and  C_2
REMARK    2  A    between atoms: C_2  and  C_4
REMARK    3  A    between atoms: C_2  and  N_19
REMARK    4  A    between atoms: N_6  and  C_7
REMARK    5  A    between atoms: C_7  and  C_8
REMARK    6  A    between atoms: C_8  and  C_9
REMARK    7  A    between atoms: C_12  and  S_15
REMARK    8  A    between atoms: S_15  and  N_18
REMARK                            x       y       z     vdW  Elec       q    Type
REMARK                         _______ _______ _______ _____ _____    ______ ____
ROOT
ATOM      1  C   UNL     1      -0.008   1.526   0.003  0.00  0.00    -0.004 C 
ATOM      2  C   UNL     1       0.002  -0.004   0.002  0.00  0.00    +0.017 C 
ENDROOT
BRANCH   2   3
ATOM      3  N   UNL     1       0.814  -0.489   1.126  0.00  0.00    +0.392 N 
ATOM      4  C   UNL     1       2.129   0.152   1.079  0.00  0.00    -0.041 C 
ATOM      5  C   UNL     1       2.996  -0.443   0.006  0.00  0.00    -0.056 A 
ATOM      6  C   UNL     1       3.187   0.204  -1.197  0.00  0.00    +0.002 A 
ATOM      7  C   UNL     1       4.007  -0.358  -2.160  0.00  0.00    +0.000 A 
ATOM      8  C   UNL     1       4.640  -1.565  -1.925  0.00  0.00    +0.001 A 
ATOM      9  C   UNL     1       4.451  -2.226  -0.726  0.00  0.00    +0.009 A 
ATOM     10  C   UNL     1       3.621  -1.669   0.238  0.00  0.00    -0.016 A 
ATOM     11  C   UNL     1       3.346  -2.359   1.521  0.00  0.00    -0.016 A 
ATOM     12  C   UNL     1       4.367  -2.884   2.302  0.00  0.00    +0.009 A 
ATOM     13  C   UNL     1       4.061  -3.501   3.499  0.00  0.00    +0.001 A 
ATOM     14  C   UNL     1       2.744  -3.593   3.916  0.00  0.00    +0.000 A 
ATOM     15  C   UNL     1       1.724  -3.078   3.136  0.00  0.00    +0.002 A 
ATOM     16  C   UNL     1       2.017  -2.469   1.934  0.00  0.00    -0.056 A 
ATOM     17  C   UNL     1       0.927  -1.945   1.042  0.00  0.00    -0.041 C 
ATOM     18  H   UNL     1       0.358  -0.243   1.992  0.00  0.00    -0.080 HD
ENDBRANCH   2   3
BRANCH   2  19
ATOM     19  C   UNL     1      -1.408  -0.516   0.143  0.00  0.00    +0.199 C 
ATOM     20  O   UNL     1      -1.708  -1.215   1.088  0.00  0.00    -0.278 OA
ATOM     21  N   UNL     1      -2.337  -0.196  -0.779  0.00  0.00    -0.316 N 
ATOM     22  H   UNL     1      -2.097   0.364  -1.535  0.00  0.00    +0.149 HD
BRANCH  21  23
ATOM     23  C   UNL     1      -3.708  -0.693  -0.642  0.00  0.00    +0.109 C 
BRANCH  23  24
ATOM     24  C   UNL     1      -4.554  -0.188  -1.813  0.00  0.00    +0.054 C 
BRANCH  24  25
ATOM     25  C   UNL     1      -5.964  -0.699  -1.671  0.00  0.00    -0.046 A 
ATOM     26  C   UNL     1      -6.319  -1.912  -2.232  0.00  0.00    +0.005 A 
ATOM     27  C   UNL     1      -7.613  -2.381  -2.103  0.00  0.00    +0.029 A 
ATOM     28  C   UNL     1      -8.552  -1.638  -1.412  0.00  0.00    +0.105 A 
ATOM     29  C   UNL     1      -8.196  -0.426  -0.850  0.00  0.00    +0.029 A 
ATOM     30  C   UNL     1      -6.902   0.041  -0.976  0.00  0.00    +0.005 A 
BRANCH  28  31
ATOM     31  S   UNL     1     -10.201  -2.236  -1.247  0.00  0.00    +0.056 S 
ATOM     32  O   UNL     1     -11.024  -1.099  -1.024  0.00  0.00    -0.153 OA
ATOM     33  O   UNL     1     -10.417  -3.133  -2.328  0.00  0.00    -0.153 OA
BRANCH  31  34
ATOM     34  N   UNL     1     -10.258  -3.141   0.138  0.00  0.00    -0.204 NA
ATOM     35  H   UNL     1      -9.460  -3.249   0.680  0.00  0.00    +0.144 HD
ATOM     36  H   UNL     1     -11.089  -3.562   0.409  0.00  0.00    +0.144 HD
ENDBRANCH  31  34
ENDBRANCH  28  31
ENDBRANCH  24  25
ENDBRANCH  23  24
ENDBRANCH  21  23
ENDBRANCH   2  19
TORSDOF 7
