REMARK  Name = ZINC39630960
REMARK  12 active torsions:
REMARK  status: ('A' for Active; 'I' for Inactive)
REMARK    1  A    between atoms: C_1  and  C_2
REMARK    2  A    between atoms: C_4  and  C_11
REMARK    3  A    between atoms: C_5  and  C_7
REMARK    4  A    between atoms: C_15  and  C_24
REMARK    5  A    between atoms: N_26  and  C_27
REMARK    6  A    between atoms: C_27  and  C_28
REMARK    7  A    between atoms: C_28  and  C_29
REMARK    8  A    between atoms: C_28  and  C_30
REMARK    9  A    between atoms: C_28  and  C_31
REMARK   10  A    between atoms: C_31  and  N_32
REMARK   11  A    between atoms: N_32  and  C_33
REMARK   12  A    between atoms: N_32  and  C_34
REMARK                            x       y       z     vdW  Elec       q    Type
REMARK                         _______ _______ _______ _____ _____    ______ ____
ROOT
ATOM      1  C   UNL     1      -0.956  -1.554  -1.711  0.00  0.00    +0.250 C 
ATOM      2  O   UNL     1      -0.237  -2.470  -2.063  0.00  0.00    -0.270 OA
ATOM      3  N   UNL     1      -2.247  -1.789  -1.407  0.00  0.00    -0.296 N 
ATOM      4  C   UNL     1      -3.291  -0.800  -1.048  0.00  0.00    +0.121 C 
ATOM      5  C   UNL     1      -4.568  -1.306  -1.754  0.00  0.00    +0.100 C 
ATOM      6  C   UNL     1      -4.336  -2.813  -1.953  0.00  0.00    -0.004 C 
ATOM      7  C   UNL     1      -2.947  -3.095  -1.363  0.00  0.00    +0.115 C 
ATOM      8  C   UNL     1      -4.352  -3.159  -3.438  0.00  0.00    -0.010 C 
ATOM      9  C   UNL     1      -4.176  -4.671  -3.607  0.00  0.00    -0.082 C 
ATOM     10  N   UNL     1      -5.261  -5.372  -2.909  0.00  0.00    +0.379 N 
ATOM     11  C   UNL     1      -5.182  -5.108  -1.468  0.00  0.00    -0.082 C 
ATOM     12  C   UNL     1      -5.400  -3.614  -1.208  0.00  0.00    -0.010 C 
ATOM     13  H   UNL     1      -6.150  -5.050  -3.261  0.00  0.00    -0.086 HD
ATOM     14  H   UNL     1      -5.178  -6.365  -3.072  0.00  0.00    -0.086 HD
ENDROOT
BRANCH   1  18
ATOM     15  C   UNL     1      -0.171   3.291  -0.316  0.00  0.00    +0.086 C 
ATOM     16  C   UNL     1      -0.083   1.945  -0.988  0.00  0.00    +0.103 A 
ATOM     17  C   UNL     1      -0.866   0.889  -0.722  0.00  0.00    +0.058 A 
ATOM     18  C   UNL     1      -0.413  -0.187  -1.616  0.00  0.00    +0.087 A 
ATOM     19  C   UNL     1       0.613   0.345  -2.340  0.00  0.00    +0.220 A 
ATOM     20  O   UNL     1       0.789   1.613  -1.954  0.00  0.00    -0.455 OA
BRANCH  19  21
ATOM     21  C   UNL     1       1.411  -0.372  -3.398  0.00  0.00    +0.451 C 
ATOM     22  F   UNL     1       0.801  -0.191  -4.644  0.00  0.00    -0.163 F 
ATOM     23  F   UNL     1       2.710   0.146  -3.435  0.00  0.00    -0.163 F 
ATOM     24  F   UNL     1       1.461  -1.738  -3.098  0.00  0.00    -0.163 F 
ENDBRANCH  19  21
ENDBRANCH   1  18
BRANCH   5  25
ATOM     25  C   UNL     1      -5.777  -1.068  -0.887  0.00  0.00    +0.218 C 
ATOM     26  O   UNL     1      -5.656  -1.006   0.318  0.00  0.00    -0.275 OA
ATOM     27  N   UNL     1      -6.993  -0.925  -1.450  0.00  0.00    -0.315 N 
ATOM     28  H   UNL     1      -7.090  -0.974  -2.414  0.00  0.00    +0.149 HD
BRANCH  27  29
ATOM     29  C   UNL     1      -8.168  -0.694  -0.606  0.00  0.00    +0.108 C 
BRANCH  29  30
ATOM     30  C   UNL     1      -9.412  -0.567  -1.488  0.00  0.00    -0.034 C 
ATOM     31  C   UNL     1      -9.237   0.608  -2.452  0.00  0.00    +0.010 C 
ATOM     32  C   UNL     1      -9.604  -1.858  -2.288  0.00  0.00    +0.010 C 
BRANCH  30  33
ATOM     33  C   UNL     1     -10.640  -0.326  -0.607  0.00  0.00    -0.072 C 
BRANCH  33  34
ATOM     34  N   UNL     1     -11.837  -0.223  -1.453  0.00  0.00    +0.376 N 
ATOM     35  C   UNL     1     -12.374  -1.566  -1.706  0.00  0.00    -0.097 C 
ATOM     36  C   UNL     1     -12.851   0.589  -0.768  0.00  0.00    -0.097 C 
ATOM     37  H   UNL     1     -11.593   0.213  -2.329  0.00  0.00    -0.083 HD
ENDBRANCH  33  34
ENDBRANCH  30  33
ENDBRANCH  29  30
ENDBRANCH  27  29
ENDBRANCH   5  25
TORSDOF 7
