REMARK  Name = ZINC15443628
REMARK  10 active torsions:
REMARK  status: ('A' for Active; 'I' for Inactive)
REMARK    1  A    between atoms: C_1  and  C_2
REMARK    2  A    between atoms: C_2  and  C_3
REMARK    3  A    between atoms: C_3  and  N_4
REMARK    4  A    between atoms: N_4  and  C_5
REMARK    5  A    between atoms: N_4  and  C_16
REMARK    6  A    between atoms: C_5  and  C_6
REMARK    7  A    between atoms: N_8  and  C_9
REMARK    8  A    between atoms: C_14  and  C_15
REMARK    9  A    between atoms: C_16  and  C_17
REMARK   10  A    between atoms: N_19  and  N_20
REMARK                            x       y       z     vdW  Elec       q    Type
REMARK                         _______ _______ _______ _____ _____    ______ ____
ROOT
ATOM      1  C   UNL     1      -0.504  -2.550  -1.416  0.00  0.00    +0.021 C 
ENDROOT
BRANCH   1   2
ATOM      2  C   UNL     1      -0.497  -4.020  -1.085  0.00  0.00    +0.213 C 
ATOM      3  O   UNL     1       0.516  -4.544  -0.673  0.00  0.00    -0.276 OA
ATOM      4  N   UNL     1      -1.617  -4.753  -1.247  0.00  0.00    -0.225 N 
ATOM      5  H   UNL     1      -2.427  -4.333  -1.577  0.00  0.00    +0.173 HD
BRANCH   4   6
ATOM      6  N   UNL     1      -1.610  -6.119  -0.940  0.00  0.00    -0.137 N 
ATOM      7  C   UNL     1      -1.585  -7.104  -1.862  0.00  0.00    +0.263 C 
ATOM      8  O   UNL     1      -1.564  -6.980  -3.068  0.00  0.00    -0.271 OA
ATOM      9  C   UNL     1      -1.587  -8.394  -1.075  0.00  0.00    +0.114 C 
ATOM     10  C   UNL     1      -0.320  -9.193  -1.359  0.00  0.00    +0.035 C 
ATOM     11  C   UNL     1      -0.328 -10.480  -0.530  0.00  0.00    +0.003 C 
ATOM     12  C   UNL     1      -1.564 -11.308  -0.888  0.00  0.00    +0.000 C 
ATOM     13  C   UNL     1      -2.827 -10.502  -0.575  0.00  0.00    +0.003 C 
ATOM     14  C   UNL     1      -2.829  -9.216  -1.404  0.00  0.00    +0.035 C 
ATOM     15  N   UNL     1      -1.616  -7.957   0.327  0.00  0.00    -0.284 N 
ATOM     16  C   UNL     1      -1.623  -6.610   0.305  0.00  0.00    +0.326 C 
ATOM     17  O   UNL     1      -1.641  -5.919   1.305  0.00  0.00    -0.251 OA
ATOM     18  H   UNL     1      -1.625  -8.525   1.113  0.00  0.00    +0.151 HD
ENDBRANCH   4   6
ENDBRANCH   1   2
BRANCH   1  19
ATOM     19  N   UNL     1       0.856  -2.011  -1.280  0.00  0.00    +0.391 N 
ATOM     20  H   UNL     1       1.216  -2.235  -0.364  0.00  0.00    -0.080 HD
BRANCH  19  21
ATOM     21  C   UNL     1       0.823  -0.552  -1.450  0.00  0.00    -0.078 C 
BRANCH  21  23
ATOM     22  C   UNL     1       0.121   1.604  -0.400  0.00  0.00    +0.002 C 
ATOM     23  C   UNL     1       0.047   0.080  -0.292  0.00  0.00    -0.022 C 
ENDBRANCH  21  23
ENDBRANCH  19  21
BRANCH  19  24
ATOM     24  C   UNL     1       1.723  -2.604  -2.305  0.00  0.00    +0.020 C 
BRANCH  24  25
ATOM     25  C   UNL     1       3.143  -2.146  -2.089  0.00  0.00    +0.201 C 
ATOM     26  O   UNL     1       3.405  -1.399  -1.171  0.00  0.00    -0.278 OA
ATOM     27  N   UNL     1       4.120  -2.567  -2.917  0.00  0.00    -0.287 N 
ATOM     28  H   UNL     1       3.925  -3.225  -3.602  0.00  0.00    +0.155 HD
BRANCH  27  29
ATOM     29  C   UNL     1       5.415  -2.054  -2.787  0.00  0.00    +0.036 A 
ATOM     30  C   UNL     1       5.616  -0.807  -2.209  0.00  0.00    +0.023 A 
ATOM     31  C   UNL     1       6.895  -0.304  -2.082  0.00  0.00    +0.002 A 
ATOM     32  C   UNL     1       7.977  -1.040  -2.531  0.00  0.00    +0.000 A 
ATOM     33  C   UNL     1       7.781  -2.281  -3.107  0.00  0.00    +0.005 A 
ATOM     34  C   UNL     1       6.504  -2.793  -3.231  0.00  0.00    -0.029 A 
ATOM     35  C   UNL     1       6.292  -4.149  -3.853  0.00  0.00    +0.045 C 
ENDBRANCH  27  29
ENDBRANCH  24  25
ENDBRANCH  19  24
ENDBRANCH   1  19
TORSDOF 8
