REMARK  Name = ZINC39422093
REMARK  11 active torsions:
REMARK  status: ('A' for Active; 'I' for Inactive)
REMARK    1  A    between atoms: C_1  and  C_2
REMARK    2  A    between atoms: C_2  and  C_32
REMARK    3  A    between atoms: C_4  and  N_10
REMARK    4  A    between atoms: C_6  and  C_8
REMARK    5  A    between atoms: C_6  and  C_9
REMARK    6  A    between atoms: N_10  and  C_11
REMARK    7  A    between atoms: N_10  and  C_18
REMARK    8  A    between atoms: C_11  and  C_12
REMARK    9  A    between atoms: C_18  and  N_20
REMARK   10  A    between atoms: N_20  and  C_21
REMARK   11  A    between atoms: C_24  and  C_28
REMARK                            x       y       z     vdW  Elec       q    Type
REMARK                         _______ _______ _______ _____ _____    ______ ____
ROOT
ATOM      1  N   UNL     1      -2.861  -2.430   0.177  0.00  0.00    -0.305 N 
ENDROOT
BRANCH   1   5
ATOM      2  C   UNL     1       1.818  -3.915   0.227  0.00  0.00    -0.010 C 
ATOM      3  C   UNL     1       0.927  -2.651   0.218  0.00  0.00    -0.072 C 
ATOM      4  C   UNL     1      -0.521  -3.114   0.343  0.00  0.00    +0.009 C 
ATOM      5  C   UNL     1      -1.477  -1.950   0.082  0.00  0.00    +0.073 C 
ATOM      6  C   UNL     1      -1.220  -1.430  -1.333  0.00  0.00    +0.009 C 
ATOM      7  C   UNL     1       0.222  -0.954  -1.470  0.00  0.00    -0.072 C 
ATOM      8  N   UNL     1       1.196  -1.930  -1.014  0.00  0.00    +0.386 N 
ATOM      9  C   UNL     1       0.396   0.386  -0.748  0.00  0.00    -0.010 C 
ATOM     10  C   UNL     1       0.483  -0.696  -2.972  0.00  0.00    -0.010 C 
ATOM     11  C   UNL     1       1.313  -1.820   1.446  0.00  0.00    -0.010 C 
ATOM     12  H   UNL     1       2.102  -1.460  -0.919  0.00  0.00    -0.084 HD
ATOM     13  H   UNL     1       1.336  -2.616  -1.762  0.00  0.00    -0.084 HD
ENDBRANCH   1   5
BRANCH   1  14
ATOM     14  C   UNL     1      -3.659  -1.993   1.172  0.00  0.00    +0.138 C 
ATOM     15  S   UNL     1      -5.241  -2.625   1.340  0.00  0.00    -0.018 S 
BRANCH  14  16
ATOM     16  N   UNL     1      -3.211  -1.060   2.034  0.00  0.00    -0.296 N 
ATOM     17  H   UNL     1      -2.897  -1.323   2.914  0.00  0.00    +0.154 HD
BRANCH  16  18
ATOM     18  C   UNL     1      -3.197   0.289   1.661  0.00  0.00    +0.051 A 
ATOM     19  C   UNL     1      -3.750   0.681   0.449  0.00  0.00    +0.025 A 
ATOM     20  C   UNL     1      -3.735   2.013   0.083  0.00  0.00    +0.014 A 
ATOM     21  C   UNL     1      -3.170   2.956   0.922  0.00  0.00    +0.056 A 
ATOM     22  C   UNL     1      -2.619   2.570   2.129  0.00  0.00    +0.034 A 
ATOM     23  C   UNL     1      -2.636   1.240   2.505  0.00  0.00    +0.063 A 
ATOM     24 CL   UNL     1      -1.950   0.756   4.024  0.00  0.00    -0.082 Cl
BRANCH  21  25
ATOM     25  C   UNL     1      -3.156   4.408   0.519  0.00  0.00    +0.417 C 
ATOM     26  F   UNL     1      -4.319   5.032   0.983  0.00  0.00    -0.166 F 
ATOM     27  F   UNL     1      -2.036   5.035   1.075  0.00  0.00    -0.166 F 
ATOM     28  F   UNL     1      -3.100   4.504  -0.876  0.00  0.00    -0.166 F 
ENDBRANCH  21  25
ENDBRANCH  16  18
ENDBRANCH  14  16
ENDBRANCH   1  14
BRANCH   1  29
ATOM     29  C   UNL     1      -3.376  -3.383  -0.809  0.00  0.00    +0.142 C 
BRANCH  29  30
ATOM     30  C   UNL     1      -3.179  -4.788  -0.300  0.00  0.00    -0.030 A 
ATOM     31  C   UNL     1      -2.080  -5.522  -0.705  0.00  0.00    +0.005 A 
ATOM     32  C   UNL     1      -1.900  -6.811  -0.238  0.00  0.00    +0.000 A 
ATOM     33  C   UNL     1      -2.818  -7.365   0.634  0.00  0.00    +0.000 A 
ATOM     34  C   UNL     1      -3.917  -6.630   1.040  0.00  0.00    +0.000 A 
ATOM     35  C   UNL     1      -4.095  -5.340   0.576  0.00  0.00    +0.005 A 
ENDBRANCH  29  30
ENDBRANCH   1  29
TORSDOF 7
