REMARK  Name = ZINC26164329
REMARK  11 active torsions:
REMARK  status: ('A' for Active; 'I' for Inactive)
REMARK    1  A    between atoms: C_1  and  C_2
REMARK    2  A    between atoms: C_4  and  C_31
REMARK    3  A    between atoms: C_5  and  N_9
REMARK    4  A    between atoms: C_6  and  C_8
REMARK    5  A    between atoms: C_10  and  C_12
REMARK    6  A    between atoms: C_12  and  N_13
REMARK    7  A    between atoms: N_16  and  C_17
REMARK    8  A    between atoms: C_17  and  C_18
REMARK    9  A    between atoms: C_18  and  C_19
REMARK   10  A    between atoms: C_18  and  C_20
REMARK   11  A    between atoms: C_18  and  N_21
REMARK                            x       y       z     vdW  Elec       q    Type
REMARK                         _______ _______ _______ _____ _____    ______ ____
ROOT
ATOM      1  N   UNL     1       1.209   8.502  -2.498  0.00  0.00    -0.291 N 
ATOM      2  C   UNL     1       0.107   7.992  -3.082  0.00  0.00    +0.300 C 
ATOM      3  O   UNL     1      -0.996   8.322  -2.691  0.00  0.00    -0.253 OA
ATOM      4  N   UNL     1       0.227   7.117  -4.100  0.00  0.00    -0.301 N 
ATOM      5  H   UNL     1       2.207   8.204  -2.853  0.00  0.00    +0.151 HD
ATOM      6  H   UNL     1       1.225   6.818  -4.454  0.00  0.00    +0.150 HD
ENDROOT
BRANCH   1   7
ATOM      7  C   UNL     1       1.079   9.454  -1.392  0.00  0.00    +0.202 C 
BRANCH   7   9
ATOM      8  N   UNL     1       2.576  10.744   0.095  0.00  0.00    -0.284 N 
ATOM      9  C   UNL     1       2.449   9.868  -0.922  0.00  0.00    +0.234 C 
ATOM     10  O   UNL     1       3.437   9.413  -1.458  0.00  0.00    -0.274 OA
ATOM     11  H   UNL     1       1.681  11.202   0.541  0.00  0.00    +0.155 HD
BRANCH   8  16
ATOM     12  C   UNL     1       7.726  12.069   2.072  0.00  0.00    +0.044 C 
ATOM     13  C   UNL     1       6.358  11.717   1.547  0.00  0.00    -0.050 A 
ATOM     14  C   UNL     1       5.481  12.721   1.178  0.00  0.00    +0.008 A 
ATOM     15  C   UNL     1       4.227  12.402   0.696  0.00  0.00    -0.029 A 
ATOM     16  C   UNL     1       3.846  11.071   0.582  0.00  0.00    +0.039 A 
ATOM     17  C   UNL     1       4.727  10.065   0.958  0.00  0.00    -0.029 A 
ATOM     18  C   UNL     1       5.982  10.391   1.434  0.00  0.00    +0.008 A 
ATOM     19  C   UNL     1       4.316   8.620   0.841  0.00  0.00    +0.045 C 
ATOM     20  C   UNL     1       3.272  13.496   0.294  0.00  0.00    +0.045 C 
ENDBRANCH   8  16
ENDBRANCH   7   9
ENDBRANCH   1   7
BRANCH   4  21
ATOM     21  C   UNL     1      -0.972   6.562  -4.735  0.00  0.00    +0.093 C 
BRANCH  21  22
ATOM     22  C   UNL     1      -0.559   5.602  -5.852  0.00  0.00    -0.055 C 
ATOM     23  C   UNL     1       0.267   6.359  -6.895  0.00  0.00    -0.008 C 
ATOM     24  C   UNL     1      -1.810   5.023  -6.515  0.00  0.00    -0.008 C 
BRANCH  22  25
ATOM     25  N   UNL     1       0.246   4.511  -5.288  0.00  0.00    +0.387 N 
ATOM     26  C   UNL     1       0.662   3.566  -6.337  0.00  0.00    -0.073 C 
ATOM     27  C   UNL     1       1.776   2.680  -5.777  0.00  0.00    +0.017 C 
ATOM     28  C   UNL     1       1.354   2.102  -4.451  0.00  0.00    -0.048 A 
ATOM     29  C   UNL     1       2.052   1.013  -3.952  0.00  0.00    +0.004 A 
ATOM     30  C   UNL     1       1.701   0.455  -2.739  0.00  0.00    +0.000 A 
ATOM     31  C   UNL     1       0.647   0.986  -2.018  0.00  0.00    +0.000 A 
ATOM     32  C   UNL     1      -0.044   2.068  -2.512  0.00  0.00    +0.002 A 
ATOM     33  C   UNL     1       0.304   2.629  -3.732  0.00  0.00    -0.061 A 
ATOM     34  C   UNL     1      -0.490   3.807  -4.233  0.00  0.00    -0.042 C 
ATOM     35  H   UNL     1       1.147   4.957  -4.841  0.00  0.00    -0.080 HD
ENDBRANCH  22  25
ENDBRANCH  21  22
ENDBRANCH   4  21
TORSDOF 6
