REMARK  Name = ZINC66924276
REMARK  10 active torsions:
REMARK  status: ('A' for Active; 'I' for Inactive)
REMARK    1  A    between atoms: C_1  and  N_2
REMARK    2  A    between atoms: N_2  and  C_3
REMARK    3  A    between atoms: N_2  and  C_22
REMARK    4  A    between atoms: C_3  and  C_4
REMARK    5  A    between atoms: C_4  and  N_5
REMARK    6  A    between atoms: C_6  and  C_8
REMARK    7  A    between atoms: C_8  and  S_9
REMARK    8  A    between atoms: S_9  and  C_10
REMARK    9  A    between atoms: C_13  and  C_19
REMARK   10  A    between atoms: C_15  and  N_16
REMARK                            x       y       z     vdW  Elec       q    Type
REMARK                         _______ _______ _______ _____ _____    ______ ____
ROOT
ATOM      1  S   UNL     1       6.673  -0.289   3.593  0.00  0.00    -0.114 S 
ENDROOT
BRANCH   1   2
ATOM      2  C   UNL     1       7.379  -0.939   5.070  0.00  0.00    +0.039 A 
ATOM      3  C   UNL     1       6.585  -1.657   5.962  0.00  0.00    +0.018 A 
ATOM      4  C   UNL     1       7.127  -2.163   7.109  0.00  0.00    +0.014 A 
ATOM      5  C   UNL     1       8.482  -1.962   7.392  0.00  0.00    +0.039 A 
ATOM      6  C   UNL     1       9.280  -1.241   6.499  0.00  0.00    +0.047 A 
ATOM      7  C   UNL     1       8.730  -0.739   5.342  0.00  0.00    +0.140 A 
BRANCH   5   8
ATOM      8  C   UNL     1       9.067  -2.508   8.631  0.00  0.00    +0.242 C 
ATOM      9  O   UNL     1      10.245  -2.332   8.876  0.00  0.00    -0.270 OA
ATOM     10  N   UNL     1       8.296  -3.201   9.492  0.00  0.00    -0.325 N 
ATOM     11  H   UNL     1       7.356  -3.342   9.296  0.00  0.00    +0.145 HD
ATOM     12  H   UNL     1       8.680  -3.561  10.306  0.00  0.00    +0.145 HD
ENDBRANCH   5   8
BRANCH   7  13
ATOM     13  N   UNL     1       9.572   0.020   4.389  0.00  0.00    +0.058 N 
ATOM     14  O   UNL     1      10.745   0.193   4.625  0.00  0.00    -0.126 OA
ATOM     15  O   UNL     1       9.087   0.466   3.376  0.00  0.00    -0.126 OA
ENDBRANCH   7  13
ENDBRANCH   1   2
BRANCH   1  16
ATOM     16  C   UNL     1       4.932  -0.793   3.679  0.00  0.00    +0.170 C 
BRANCH  16  18
ATOM     17  N   UNL     1       2.889  -0.551   2.306  0.00  0.00    -0.316 N 
ATOM     18  C   UNL     1       4.203  -0.293   2.458  0.00  0.00    +0.223 C 
ATOM     19  O   UNL     1       4.799   0.340   1.613  0.00  0.00    -0.275 OA
ATOM     20  H   UNL     1       2.412  -1.058   2.982  0.00  0.00    +0.149 HD
BRANCH  17  21
ATOM     21  C   UNL     1       2.180  -0.066   1.119  0.00  0.00    +0.085 C 
BRANCH  21  22
ATOM     22  C   UNL     1       0.713  -0.491   1.192  0.00  0.00    -0.060 C 
BRANCH  22  24
ATOM     23  C   UNL     1      -0.018   1.465   0.010  0.00  0.00    -0.096 C 
ATOM     24  N   UNL     1       0.002  -0.004   0.002  0.00  0.00    +0.381 N 
ATOM     25  H   UNL     1       0.474  -0.330  -0.828  0.00  0.00    -0.082 HD
BRANCH  24  26
ATOM     26  C   UNL     1      -1.376  -0.512   0.012  0.00  0.00    -0.069 C 
ATOM     27  C   UNL     1      -1.756  -1.546  -1.050  0.00  0.00    -0.017 C 
ATOM     28  C   UNL     1      -2.285  -0.114  -1.152  0.00  0.00    -0.017 C 
ENDBRANCH  24  26
ENDBRANCH  22  24
ENDBRANCH  21  22
ENDBRANCH  17  21
ENDBRANCH  16  18
ENDBRANCH   1  16
TORSDOF 9
