REMARK  Name = ZINC20480419
REMARK  9 active torsions:
REMARK  status: ('A' for Active; 'I' for Inactive)
REMARK    1  A    between atoms: C_1  and  O_2
REMARK    2  A    between atoms: O_2  and  C_3
REMARK    3  A    between atoms: C_5  and  O_21
REMARK    4  A    between atoms: C_6  and  C_11
REMARK    5  A    between atoms: C_7  and  O_9
REMARK    6  A    between atoms: O_9  and  C_10
REMARK    7  A    between atoms: C_11  and  C_13
REMARK    8  A    between atoms: C_11  and  N_20
REMARK    9  A    between atoms: O_21  and  C_22
REMARK                            x       y       z     vdW  Elec       q    Type
REMARK                         _______ _______ _______ _____ _____    ______ ____
ROOT
ATOM      1  C   UNL     1      -0.787   2.892   1.346  0.00  0.00    +0.127 A 
ATOM      2  C   UNL     1      -0.253   3.749   0.396  0.00  0.00    +0.091 A 
ATOM      3  C   UNL     1      -0.365   5.122   0.559  0.00  0.00    +0.129 A 
ATOM      4  C   UNL     1      -1.003   5.637   1.678  0.00  0.00    +0.026 A 
ATOM      5  C   UNL     1      -1.532   4.780   2.631  0.00  0.00    +0.129 A 
ATOM      6  C   UNL     1      -1.425   3.407   2.465  0.00  0.00    +0.091 A 
ENDROOT
BRANCH   1   8
ATOM      7  C   UNL     1      -0.013   1.086   0.008  0.00  0.00    +0.277 C 
ATOM      8  O   UNL     1      -0.682   1.547   1.184  0.00  0.00    -0.495 OA
ENDBRANCH   1   8
BRANCH   5   9
ATOM      9  O   UNL     1      -2.156   5.285   3.727  0.00  0.00    -0.495 OA
ATOM     10  C   UNL     1      -2.678   4.344   4.668  0.00  0.00    +0.277 C 
ENDBRANCH   5   9
BRANCH   3  11
ATOM     11  O   UNL     1       0.154   5.962  -0.374  0.00  0.00    -0.495 OA
ATOM     12  C   UNL     1       0.796   5.362  -1.501  0.00  0.00    +0.277 C 
ENDBRANCH   3  11
BRANCH   4  13
ATOM     13  C   UNL     1      -1.119   7.128   1.859  0.00  0.00    -0.006 C 
BRANCH  13  14
ATOM     14  C   UNL     1      -2.174   7.666   0.927  0.00  0.00    -0.057 A 
ATOM     15  C   UNL     1      -1.872   7.891  -0.403  0.00  0.00    +0.003 A 
ATOM     16  C   UNL     1      -2.842   8.379  -1.259  0.00  0.00    +0.014 A 
ATOM     17  C   UNL     1      -4.110   8.654  -0.782  0.00  0.00    +0.013 A 
ATOM     18  C   UNL     1      -4.411   8.434   0.550  0.00  0.00    +0.014 A 
ATOM     19  C   UNL     1      -3.443   7.940   1.404  0.00  0.00    +0.003 A 
ATOM     20  I   UNL     1      -5.577   9.402  -2.078  0.00  0.00    -0.044 I 
ENDBRANCH  13  14
BRANCH  13  21
ATOM     21  N   UNL     1       0.171   7.761   1.554  0.00  0.00    +0.385 N 
ATOM     22  H   UNL     1       0.086   8.850   1.686  0.00  0.00    -0.089 HD
ATOM     23  H   UNL     1       0.452   7.538   0.514  0.00  0.00    -0.089 HD
ATOM     24  H   UNL     1       0.942   7.368   2.234  0.00  0.00    -0.089 HD
ENDBRANCH  13  21
ENDBRANCH   4  13
TORSDOF 6
