REMARK  Name = ZINC43741815
REMARK  12 active torsions:
REMARK  status: ('A' for Active; 'I' for Inactive)
REMARK    1  A    between atoms: C_1  and  C_2
REMARK    2  A    between atoms: N_6  and  O_7
REMARK    3  A    between atoms: O_7  and  C_8
REMARK    4  A    between atoms: C_8  and  C_9
REMARK    5  A    between atoms: N_11  and  C_12
REMARK    6  A    between atoms: C_12  and  C_13
REMARK    7  A    between atoms: C_27  and  O_42
REMARK    8  A    between atoms: C_30  and  C_41
REMARK    9  A    between atoms: C_35  and  C_36
REMARK   10  A    between atoms: C_35  and  O_40
REMARK   11  A    between atoms: C_36  and  C_38
REMARK   12  A    between atoms: C_38  and  O_39
REMARK                            x       y       z     vdW  Elec       q    Type
REMARK                         _______ _______ _______ _____ _____    ______ ____
ROOT
ATOM      1  C   UNL     1       0.231   0.961  -0.813  0.00  0.00    +0.016 C 
ATOM      2  C   UNL     1       0.116  -0.565  -0.616  0.00  0.00    -0.005 C 
ATOM      3  C   UNL     1       0.742  -1.173  -1.857  0.00  0.00    +0.017 C 
ATOM      4  C   UNL     1       2.247  -0.904  -1.936  0.00  0.00    +0.059 C 
ATOM      5  C   UNL     1       2.886  -1.481  -0.689  0.00  0.00    +0.080 C 
ATOM      6  N   UNL     1       4.020  -2.109  -0.745  0.00  0.00    -0.089 NA
ATOM      7  C   UNL     1       2.169  -1.300   0.583  0.00  0.00    +0.026 C 
ATOM      8  C   UNL     1       0.918  -0.852   0.611  0.00  0.00    -0.061 C 
ATOM      9  C   UNL     1       0.311  -0.587   1.975  0.00  0.00    +0.031 C 
ATOM     10  C   UNL     1      -1.074  -1.206   2.015  0.00  0.00    +0.008 C 
ATOM     11  C   UNL     1      -1.961  -0.685   0.896  0.00  0.00    -0.001 C 
ATOM     12  C   UNL     1      -1.359  -0.814  -0.492  0.00  0.00    +0.031 C 
ATOM     13  C   UNL     1      -1.943  -2.003  -1.232  0.00  0.00    +0.119 C 
ATOM     14  C   UNL     1      -3.441  -1.754  -1.528  0.00  0.00    +0.041 C 
ATOM     15  C   UNL     1      -4.114  -1.167  -0.315  0.00  0.00    +0.009 C 
ATOM     16  C   UNL     1      -3.267  -1.468   0.939  0.00  0.00    +0.002 C 
ATOM     17  C   UNL     1      -4.217  -1.061   2.076  0.00  0.00    +0.008 C 
ATOM     18  C   UNL     1      -5.615  -1.502   1.569  0.00  0.00    +0.043 C 
ATOM     19  C   UNL     1      -5.462  -1.808   0.059  0.00  0.00    +0.131 C 
ATOM     20  C   UNL     1      -4.337   0.337  -0.492  0.00  0.00    +0.015 C 
ENDROOT
BRANCH  19  21
ATOM     21  C   UNL     1      -6.577  -1.173  -0.724  0.00  0.00    +0.190 C 
ATOM     22  O   UNL     1      -7.214  -0.267  -0.242  0.00  0.00    -0.292 OA
BRANCH  21  23
ATOM     23  C   UNL     1      -6.900  -1.667  -2.111  0.00  0.00    +0.233 C 
BRANCH  23  24
ATOM     24  O   UNL     1      -7.989  -0.911  -2.644  0.00  0.00    -0.387 OA
ATOM     25  H   UNL     1      -8.252  -1.175  -3.536  0.00  0.00    +0.210 HD
ENDBRANCH  23  24
ENDBRANCH  21  23
ENDBRANCH  19  21
BRANCH  19  26
ATOM     26  O   UNL     1      -5.424  -3.215  -0.161  0.00  0.00    -0.380 OA
ATOM     27  H   UNL     1      -6.249  -3.670   0.059  0.00  0.00    +0.211 HD
ENDBRANCH  19  26
BRANCH  13  28
ATOM     28  O   UNL     1      -1.326  -2.231  -2.502  0.00  0.00    -0.391 OA
ATOM     29  H   UNL     1      -1.687  -2.986  -2.985  0.00  0.00    +0.210 HD
ENDBRANCH  13  28
BRANCH   6  30
ATOM     30  O   UNL     1       4.595  -2.638   0.436  0.00  0.00    -0.384 OA
BRANCH  30  31
ATOM     31  C   UNL     1       5.842  -3.304   0.228  0.00  0.00    +0.358 C 
BRANCH  31  32
ATOM     32  C   UNL     1       6.360  -3.824   1.544  0.00  0.00    +0.254 C 
ATOM     33  O   UNL     1       5.724  -3.642   2.561  0.00  0.00    -0.272 OA
ATOM     34  N   UNL     1       7.530  -4.491   1.592  0.00  0.00    -0.308 N 
ATOM     35  H   UNL     1       8.039  -4.636   0.779  0.00  0.00    +0.149 HD
BRANCH  34  36
ATOM     36  C   UNL     1       8.034  -4.997   2.871  0.00  0.00    +0.139 C 
BRANCH  36  37
ATOM     37  C   UNL     1       9.349  -5.699   2.651  0.00  0.00    -0.027 A 
ATOM     38  C   UNL     1       9.390  -7.054   2.364  0.00  0.00    +0.025 A 
ATOM     39  C   UNL     1      10.615  -7.665   2.169  0.00  0.00    +0.111 A 
ATOM     40  N   UNL     1      11.734  -6.973   2.253  0.00  0.00    -0.263 NA
ATOM     41  C   UNL     1      11.733  -5.682   2.525  0.00  0.00    +0.111 A 
ATOM     42  C   UNL     1      10.546  -5.003   2.726  0.00  0.00    +0.025 A 
ENDBRANCH  36  37
ENDBRANCH  34  36
ENDBRANCH  31  32
ENDBRANCH  30  31
ENDBRANCH   6  30
TORSDOF 10
