REMARK  Name = ZINC39631798
REMARK  11 active torsions:
REMARK  status: ('A' for Active; 'I' for Inactive)
REMARK    1  A    between atoms: C_1  and  C_2
REMARK    2  A    between atoms: C_2  and  C_4
REMARK    3  A    between atoms: C_2  and  N_11
REMARK    4  A    between atoms: C_4  and  C_5
REMARK    5  A    between atoms: C_5  and  C_6
REMARK    6  A    between atoms: C_6  and  C_7
REMARK    7  A    between atoms: C_7  and  C_8
REMARK    8  A    between atoms: C_7  and  C_9
REMARK    9  A    between atoms: C_7  and  O_10
REMARK   10  A    between atoms: C_12  and  C_14
REMARK   11  A    between atoms: C_25  and  C_27
REMARK                            x       y       z     vdW  Elec       q    Type
REMARK                         _______ _______ _______ _____ _____    ______ ____
ROOT
ATOM      1  C   UNL     1       0.289  -0.845   3.377  0.00  0.00    +0.100 C 
ATOM      2  C   UNL     1       1.608  -0.103   3.689  0.00  0.00    +0.121 C 
ATOM      3  N   UNL     1       1.274   0.795   4.820  0.00  0.00    -0.296 N 
ATOM      4  C   UNL     1       0.374  -0.012   5.678  0.00  0.00    +0.115 C 
ATOM      5  C   UNL     1      -0.516  -0.786   4.686  0.00  0.00    -0.004 C 
ATOM      6  C   UNL     1      -0.784  -2.196   5.205  0.00  0.00    -0.010 C 
ATOM      7  C   UNL     1      -1.636  -2.113   6.475  0.00  0.00    -0.082 C 
ATOM      8  N   UNL     1      -2.901  -1.432   6.175  0.00  0.00    +0.379 N 
ATOM      9  C   UNL     1      -2.639  -0.047   5.766  0.00  0.00    -0.082 C 
ATOM     10  C   UNL     1      -1.830  -0.042   4.466  0.00  0.00    -0.010 C 
ATOM     11  C   UNL     1       1.694   2.059   5.022  0.00  0.00    +0.249 C 
ATOM     12  O   UNL     1       1.406   2.638   6.052  0.00  0.00    -0.270 OA
ATOM     13  H   UNL     1      -3.375  -1.918   5.429  0.00  0.00    -0.086 HD
ATOM     14  H   UNL     1      -3.486  -1.433   6.998  0.00  0.00    -0.086 HD
ENDROOT
BRANCH  11  15
ATOM     15  C   UNL     1       2.504   2.742   3.993  0.00  0.00    +0.073 A 
ATOM     16  C   UNL     1       3.424   2.019   3.230  0.00  0.00    +0.036 A 
ATOM     17  C   UNL     1       4.177   2.663   2.270  0.00  0.00    +0.042 A 
ATOM     18  C   UNL     1       4.023   4.024   2.061  0.00  0.00    +0.023 A 
ATOM     19  C   UNL     1       3.115   4.747   2.811  0.00  0.00    +0.040 A 
ATOM     20  C   UNL     1       2.349   4.114   3.773  0.00  0.00    +0.136 A 
ATOM     21  F   UNL     1       1.458   4.821   4.503  0.00  0.00    -0.205 F 
ATOM     22 CL   UNL     1       5.321   1.766   1.322  0.00  0.00    -0.084 Cl
ENDBRANCH  11  15
BRANCH   1  24
ATOM     23  N   UNL     1      -1.273  -0.847   1.459  0.00  0.00    -0.312 N 
ATOM     24  C   UNL     1      -0.458  -0.145   2.270  0.00  0.00    +0.218 C 
ATOM     25  O   UNL     1      -0.324   1.049   2.110  0.00  0.00    -0.275 OA
ATOM     26  H   UNL     1      -1.380  -1.803   1.587  0.00  0.00    +0.149 HD
BRANCH  23  28
ATOM     27  C   UNL     1      -1.100  -0.064  -0.852  0.00  0.00    +0.028 C 
ATOM     28  C   UNL     1      -1.998  -0.167   0.383  0.00  0.00    +0.070 C 
BRANCH  28  29
ATOM     29  C   UNL     1      -3.257  -0.965   0.033  0.00  0.00    +0.022 C 
BRANCH  29  30
ATOM     30  C   UNL     1      -4.211  -0.962   1.229  0.00  0.00    +0.005 C 
BRANCH  30  31
ATOM     31  C   UNL     1      -5.469  -1.759   0.879  0.00  0.00    +0.034 C 
BRANCH  31  32
ATOM     32  C   UNL     1      -6.423  -1.756   2.075  0.00  0.00    +0.061 C 
ATOM     33  C   UNL     1      -7.624  -2.655   1.772  0.00  0.00    +0.041 C 
ATOM     34  C   UNL     1      -5.692  -2.282   3.312  0.00  0.00    +0.041 C 
BRANCH  32  35
ATOM     35  O   UNL     1      -6.876  -0.423   2.321  0.00  0.00    -0.389 OA
ATOM     36  H   UNL     1      -7.350  -0.026   1.577  0.00  0.00    +0.210 HD
ENDBRANCH  32  35
ENDBRANCH  31  32
ENDBRANCH  30  31
ENDBRANCH  29  30
ENDBRANCH  28  29
ENDBRANCH  23  28
ENDBRANCH   1  24
TORSDOF 8
