REMARK  Name = ZINC40687257
REMARK  7 active torsions:
REMARK  status: ('A' for Active; 'I' for Inactive)
REMARK    1  A    between atoms: C_1  and  C_2
REMARK    2  A    between atoms: C_4  and  C_26
REMARK    3  A    between atoms: C_7  and  N_8
REMARK    4  A    between atoms: C_10  and  N_24
REMARK    5  A    between atoms: C_11  and  N_15
REMARK    6  A    between atoms: C_26  and  C_28
REMARK    7  A    between atoms: C_26  and  C_30
REMARK                            x       y       z     vdW  Elec       q    Type
REMARK                         _______ _______ _______ _____ _____    ______ ____
ROOT
ATOM      1  N   UNL     1      -1.347   0.390   2.383  0.00  0.00    -0.299 N 
ATOM      2  C   UNL     1      -1.256  -0.237   3.621  0.00  0.00    +0.126 A 
ATOM      3  C   UNL     1      -1.648   0.429   4.784  0.00  0.00    +0.104 A 
ATOM      4  C   UNL     1      -1.536  -0.247   6.000  0.00  0.00    +0.151 A 
ATOM      5  N   UNL     1      -1.064  -1.492   6.004  0.00  0.00    -0.220 NA
ATOM      6  C   UNL     1      -0.705  -2.084   4.883  0.00  0.00    +0.200 A 
ATOM      7  N   UNL     1      -0.800  -1.484   3.714  0.00  0.00    -0.333 N 
ATOM      8  H   UNL     1      -1.698   1.292   2.321  0.00  0.00    +0.154 HD
ATOM      9  H   UNL     1      -0.530  -1.956   2.911  0.00  0.00    +0.168 HD
ENDROOT
BRANCH   4  10
ATOM     10  N   UNL     1      -1.911   0.370   7.188  0.00  0.00    -0.283 N 
ATOM     11  C   UNL     1      -3.224   0.239   7.824  0.00  0.00    +0.117 C 
ATOM     12  C   UNL     1      -3.144   1.099   9.096  0.00  0.00    +0.056 C 
ATOM     13  C   UNL     1      -1.744   1.669   9.081  0.00  0.00    -0.025 A 
ATOM     14  C   UNL     1      -1.089   1.201   7.953  0.00  0.00    +0.038 A 
ATOM     15  C   UNL     1       0.232   1.591   7.724  0.00  0.00    +0.024 A 
ATOM     16  C   UNL     1       0.873   2.428   8.614  0.00  0.00    +0.002 A 
ATOM     17  C   UNL     1       0.212   2.887   9.738  0.00  0.00    +0.000 A 
ATOM     18  C   UNL     1      -1.099   2.511   9.966  0.00  0.00    +0.005 A 
ENDBRANCH   4  10
BRANCH   1  25
ATOM     19  C   UNL     1       1.446   0.076   1.943  0.00  0.00    +0.045 C 
ATOM     20  C   UNL     1       0.421  -0.455   0.974  0.00  0.00    -0.029 A 
ATOM     21  C   UNL     1       0.828  -1.122  -0.165  0.00  0.00    +0.011 A 
ATOM     22  C   UNL     1      -0.111  -1.610  -1.055  0.00  0.00    -0.008 A 
ATOM     23  C   UNL     1      -1.461  -1.431  -0.808  0.00  0.00    +0.047 A 
ATOM     24  C   UNL     1      -1.875  -0.765   0.330  0.00  0.00    +0.043 A 
ATOM     25  C   UNL     1      -0.933  -0.279   1.228  0.00  0.00    +0.037 A 
ATOM     26 CL   UNL     1      -2.636  -2.045  -1.929  0.00  0.00    -0.083 Cl
BRANCH  22  27
ATOM     27  C   UNL     1       0.337  -2.337  -2.297  0.00  0.00    +0.153 C 
BRANCH  27  28
ATOM     28  C   UNL     1       1.010  -3.628  -1.908  0.00  0.00    -0.026 A 
ATOM     29  C   UNL     1       2.214  -3.602  -1.230  0.00  0.00    +0.006 A 
ATOM     30  C   UNL     1       2.832  -4.786  -0.873  0.00  0.00    +0.020 A 
ATOM     31  C   UNL     1       2.244  -5.997  -1.195  0.00  0.00    +0.041 A 
ATOM     32  C   UNL     1       1.039  -6.022  -1.874  0.00  0.00    +0.020 A 
ATOM     33  C   UNL     1       0.420  -4.837  -2.225  0.00  0.00    +0.006 A 
ATOM     34 CL   UNL     1       3.020  -7.484  -0.748  0.00  0.00    -0.084 Cl
ENDBRANCH  27  28
BRANCH  27  35
ATOM     35  C   UNL     1       1.286  -1.494  -3.043  0.00  0.00    +0.075 C 
ATOM     36  N   UNL     1       2.018  -0.844  -3.619  0.00  0.00    -0.196 NA
ENDBRANCH  27  35
ENDBRANCH  22  27
ENDBRANCH   1  25
BRANCH   3  37
ATOM     37  N   UNL     1      -2.140   1.743   4.732  0.00  0.00    -0.353 N 
ATOM     38  H   UNL     1      -2.140   2.228   3.892  0.00  0.00    +0.143 HD
ATOM     39  H   UNL     1      -2.480   2.166   5.536  0.00  0.00    +0.143 HD
ENDBRANCH   3  37
TORSDOF 6
