REMARK  Name = ZINC43735937
REMARK  10 active torsions:
REMARK  status: ('A' for Active; 'I' for Inactive)
REMARK    1  A    between atoms: C_1  and  C_2
REMARK    2  A    between atoms: C_2  and  C_3
REMARK    3  A    between atoms: C_4  and  O_38
REMARK    4  A    between atoms: C_7  and  C_9
REMARK    5  A    between atoms: N_10  and  C_11
REMARK    6  A    between atoms: C_11  and  C_12
REMARK    7  A    between atoms: C_12  and  C_14
REMARK    8  A    between atoms: C_14  and  O_37
REMARK    9  A    between atoms: C_19  and  C_36
REMARK   10  A    between atoms: C_34  and  C_35
REMARK                            x       y       z     vdW  Elec       q    Type
REMARK                         _______ _______ _______ _____ _____    ______ ____
ROOT
ATOM      1  C   UNL     1       6.586  -1.474  -5.099  0.00  0.00    +0.131 C 
ATOM      2  C   UNL     1       7.759  -2.398  -4.677  0.00  0.00    +0.043 C 
ATOM      3  C   UNL     1       9.059  -1.710  -5.187  0.00  0.00    +0.008 C 
ATOM      4  C   UNL     1       8.508  -0.798  -6.295  0.00  0.00    +0.002 C 
ATOM      5  C   UNL     1       7.284  -0.185  -5.588  0.00  0.00    +0.007 C 
ATOM      6  C   UNL     1       6.490   0.650  -6.556  0.00  0.00    +0.010 C 
ATOM      7  C   UNL     1       7.394   1.606  -7.347  0.00  0.00    +0.005 C 
ATOM      8  C   UNL     1       8.832   1.617  -6.866  0.00  0.00    +0.002 C 
ATOM      9  C   UNL     1       9.458   0.231  -6.861  0.00  0.00    -0.003 C 
ATOM     10  C   UNL     1       9.780  -0.212  -8.300  0.00  0.00    +0.008 C 
ATOM     11  C   UNL     1      10.818   0.728  -8.908  0.00  0.00    +0.032 C 
ATOM     12  C   UNL     1      10.243   2.132  -8.885  0.00  0.00    -0.060 C 
ATOM     13  C   UNL     1      10.260   2.826 -10.023  0.00  0.00    +0.046 C 
ATOM     14  C   UNL     1       9.757   4.202 -10.066  0.00  0.00    +0.156 C 
ATOM     15  O   UNL     1       9.524   4.762 -11.119  0.00  0.00    -0.293 OA
ATOM     16  C   UNL     1       9.567   4.909  -8.739  0.00  0.00    +0.080 C 
ATOM     17  C   UNL     1       8.873   3.935  -7.787  0.00  0.00    +0.019 C 
ATOM     18  C   UNL     1       9.676   2.655  -7.606  0.00  0.00    -0.007 C 
ATOM     19  C   UNL     1      10.857   2.998  -6.687  0.00  0.00    +0.016 C 
ATOM     20  C   UNL     1       7.639   0.601  -4.327  0.00  0.00    +0.015 C 
ENDROOT
BRANCH   1  21
ATOM     21  C   UNL     1       5.707  -1.163  -3.920  0.00  0.00    +0.184 C 
ATOM     22  O   UNL     1       6.146  -1.254  -2.799  0.00  0.00    -0.292 OA
BRANCH  21  23
ATOM     23  C   UNL     1       4.278  -0.739  -4.138  0.00  0.00    +0.190 C 
BRANCH  23  31
ATOM     24  C   UNL     1       0.989  -1.883  -0.778  0.00  0.00    +0.060 A 
ATOM     25  C   UNL     1       2.036  -1.100  -1.116  0.00  0.00    +0.159 A 
ATOM     26  C   UNL     1       2.613  -1.239  -2.461  0.00  0.00    +0.081 A 
ATOM     27  C   UNL     1       2.036  -2.197  -3.341  0.00  0.00    +0.050 A 
ATOM     28  C   UNL     1       0.993  -2.935  -2.916  0.00  0.00    +0.015 A 
ATOM     29  N   UNL     1       0.484  -2.788  -1.666  0.00  0.00    -0.359 N 
ATOM     30  C   UNL     1       0.380  -3.950  -3.847  0.00  0.00    +0.063 C 
ATOM     31  N   UNL     1       3.638  -0.496  -2.842  0.00  0.00    -0.375 N 
ATOM     32  H   UNL     1       3.967   0.210  -2.264  0.00  0.00    +0.160 HD
ATOM     33  H   UNL     1      -0.266  -3.341  -1.396  0.00  0.00    +0.165 HD
BRANCH  24  35
ATOM     34  C   UNL     1      -0.824  -0.816   0.535  0.00  0.00    +0.010 C 
ATOM     35  C   UNL     1       0.378  -1.762   0.594  0.00  0.00    +0.053 C 
ENDBRANCH  24  35
BRANCH  25  36
ATOM     36  O   UNL     1       2.545  -0.200  -0.231  0.00  0.00    -0.503 OA
ATOM     37  H   UNL     1       3.293   0.309  -0.574  0.00  0.00    +0.292 HD
ENDBRANCH  25  36
ENDBRANCH  23  31
ENDBRANCH  21  23
ENDBRANCH   1  21
BRANCH   1  38
ATOM     38  O   UNL     1       5.839  -2.063  -6.157  0.00  0.00    -0.380 OA
ATOM     39  H   UNL     1       5.396  -2.888  -5.914  0.00  0.00    +0.211 HD
ENDBRANCH   1  38
TORSDOF 6
