REMARK  Name = ZINC08130104
REMARK  8 active torsions:
REMARK  status: ('A' for Active; 'I' for Inactive)
REMARK    1  A    between atoms: C_1  and  C_2
REMARK    2  A    between atoms: C_2  and  C_3
REMARK    3  A    between atoms: C_3  and  C_5
REMARK    4  A    between atoms: C_3  and  N_40
REMARK    5  A    between atoms: C_12  and  C_13
REMARK    6  A    between atoms: C_12  and  N_40
REMARK    7  A    between atoms: N_15  and  C_16
REMARK    8  A    between atoms: C_17  and  C_21
REMARK                            x       y       z     vdW  Elec       q    Type
REMARK                         _______ _______ _______ _____ _____    ______ ____
ROOT
ATOM      1  C   UNL     1      -1.921   3.576   0.544  0.00  0.00    +0.016 C 
ENDROOT
BRANCH   1   2
ATOM      2  C   UNL     1      -1.960   5.076   0.681  0.00  0.00    +0.201 C 
ATOM      3  O   UNL     1      -1.082   5.652   1.288  0.00  0.00    -0.278 OA
ATOM      4  N   UNL     1      -2.970   5.778   0.130  0.00  0.00    -0.281 N 
ATOM      5  H   UNL     1      -3.672   5.317  -0.355  0.00  0.00    +0.155 HD
BRANCH   4   6
ATOM      6  C   UNL     1      -3.006   7.158   0.257  0.00  0.00    +0.084 A 
ATOM      7  C   UNL     1      -3.952   8.047  -0.241  0.00  0.00    +0.065 A 
ATOM      8  C   UNL     1      -3.742   9.446   0.046  0.00  0.00    +0.022 A 
ATOM      9  C   UNL     1      -2.648   9.770   0.759  0.00  0.00    +0.048 A 
ATOM     10  S   UNL     1      -1.879   8.193   1.067  0.00  0.00    -0.081 S 
BRANCH   7  11
ATOM     11  C   UNL     1      -5.107   7.585  -1.016  0.00  0.00    +0.244 C 
ATOM     12  O   UNL     1      -5.256   6.398  -1.238  0.00  0.00    -0.270 OA
ATOM     13  N   UNL     1      -6.005   8.476  -1.484  0.00  0.00    -0.325 N 
ATOM     14  H   UNL     1      -5.886   9.422  -1.307  0.00  0.00    +0.145 HD
ATOM     15  H   UNL     1      -6.769   8.171  -1.997  0.00  0.00    +0.145 HD
ENDBRANCH   7  11
ENDBRANCH   4   6
ENDBRANCH   1   2
BRANCH   1  16
ATOM     16  N   UNL     1      -0.723   3.058   1.231  0.00  0.00    +0.389 N 
ATOM     17  H   UNL     1       0.117   3.397   0.748  0.00  0.00    -0.084 HD
ATOM     18  H   UNL     1      -0.718   3.393   2.201  0.00  0.00    -0.084 HD
BRANCH  16  19
ATOM     19  C   UNL     1      -0.726   1.583   1.224  0.00  0.00    -0.041 C 
BRANCH  19  20
ATOM     20  C   UNL     1       0.059   1.082   2.409  0.00  0.00    -0.061 A 
ATOM     21  C   UNL     1       1.230   1.716   2.781  0.00  0.00    +0.003 A 
ATOM     22  C   UNL     1       1.947   1.259   3.870  0.00  0.00    +0.015 A 
ATOM     23  C   UNL     1       1.499   0.161   4.582  0.00  0.00    +0.018 A 
ATOM     24  C   UNL     1       0.330  -0.476   4.207  0.00  0.00    +0.015 A 
ATOM     25  C   UNL     1      -0.389  -0.016   3.120  0.00  0.00    +0.003 A 
ATOM     26 BR   UNL     1       2.485  -0.469   6.068  0.00  0.00    -0.050 Br
ENDBRANCH  19  20
BRANCH  19  28
ATOM     27  C   UNL     1      -0.201  -0.447  -0.134  0.00  0.00    +0.002 C 
ATOM     28  C   UNL     1      -0.080   1.077  -0.067  0.00  0.00    -0.015 C 
ENDBRANCH  19  28
ENDBRANCH  16  19
ENDBRANCH   1  16
TORSDOF 7
