REMARK  Name = ZINC36358613
REMARK  8 active torsions:
REMARK  status: ('A' for Active; 'I' for Inactive)
REMARK    1  A    between atoms: C_1  and  C_2
REMARK    2  A    between atoms: C_2  and  C_3
REMARK    3  A    between atoms: C_2  and  C_4
REMARK    4  A    between atoms: N_6  and  C_7
REMARK    5  A    between atoms: C_16  and  C_17
REMARK    6  A    between atoms: C_17  and  C_19
REMARK    7  A    between atoms: C_17  and  N_22
REMARK    8  A    between atoms: N_25  and  C_28
REMARK                            x       y       z     vdW  Elec       q    Type
REMARK                         _______ _______ _______ _____ _____    ______ ____
ROOT
ATOM      1  C   UNL     1       4.949  -2.843  -6.930  0.00  0.00    +0.080 C 
ENDROOT
BRANCH   1  11
ATOM      2  C   UNL     1       2.718  -0.643  -2.550  0.00  0.00    +0.035 A 
ATOM      3  C   UNL     1       2.081  -1.440  -3.500  0.00  0.00    +0.024 A 
ATOM      4  C   UNL     1       2.775  -1.933  -4.567  0.00  0.00    +0.012 A 
ATOM      5  C   UNL     1       4.133  -1.638  -4.710  0.00  0.00    +0.002 A 
ATOM      6  C   UNL     1       4.783  -0.834  -3.756  0.00  0.00    +0.048 A 
ATOM      7  C   UNL     1       4.060  -0.335  -2.678  0.00  0.00    +0.049 A 
ATOM      8  N   UNL     1       6.097  -0.716  -4.152  0.00  0.00    -0.360 N 
ATOM      9  H   UNL     1       6.778  -0.214  -3.678  0.00  0.00    +0.165 HD
ATOM     10  C   UNL     1       6.297  -1.411  -5.314  0.00  0.00    +0.086 A 
ATOM     11  C   UNL     1       5.151  -1.991  -5.704  0.00  0.00    -0.025 A 
BRANCH   2  14
ATOM     12  C   UNL     1       1.017  -0.892  -0.904  0.00  0.00    +0.220 C 
ATOM     13  O   UNL     1       0.712  -1.958  -1.397  0.00  0.00    -0.275 OA
ATOM     14  N   UNL     1       1.991  -0.146  -1.462  0.00  0.00    -0.285 N 
ATOM     15  H   UNL     1       2.189   0.736  -1.108  0.00  0.00    +0.155 HD
BRANCH  12  17
ATOM     16  C   UNL     1      -0.378   0.934   0.028  0.00  0.00    +0.017 C 
ATOM     17  C   UNL     1       0.305  -0.401   0.330  0.00  0.00    +0.069 C 
ATOM     18  C   UNL     1      -0.747  -1.428   0.754  0.00  0.00    +0.017 C 
ENDBRANCH  12  17
ENDBRANCH   2  14
ENDBRANCH   1  11
BRANCH   1  19
ATOM     19  N   UNL     1       6.027  -2.578  -7.893  0.00  0.00    +0.393 N 
ATOM     20  C   UNL     1       5.830  -3.410  -9.088  0.00  0.00    -0.062 C 
ATOM     21  C   UNL     1       6.963  -3.148 -10.083  0.00  0.00    +0.066 C 
ATOM     22  N   UNL     1       6.969  -1.726 -10.451  0.00  0.00    -0.301 NA
ATOM     23  C   UNL     1       7.140  -0.879  -9.262  0.00  0.00    +0.066 C 
ATOM     24  C   UNL     1       6.006  -1.159  -8.273  0.00  0.00    -0.062 C 
ATOM     25  H   UNL     1       6.916  -2.800  -7.471  0.00  0.00    -0.080 HD
BRANCH  22  26
ATOM     26  C   UNL     1       8.009  -1.445 -11.450  0.00  0.00    +0.079 C 
ATOM     27  C   UNL     1       9.399  -1.657 -10.828  0.00  0.00    +0.043 C 
ATOM     28  C   UNL     1      10.488  -1.064 -11.753  0.00  0.00    +0.167 C 
ATOM     29  S   UNL     1       9.589   0.286 -12.621  0.00  0.00    -0.029 S 
ATOM     30  O   UNL     1      10.095   1.538 -12.180  0.00  0.00    -0.174 OA
ATOM     31  O   UNL     1       9.553  -0.003 -14.012  0.00  0.00    -0.174 OA
ATOM     32  C   UNL     1       7.907   0.037 -11.913  0.00  0.00    +0.184 C 
ENDBRANCH  22  26
ENDBRANCH   1  19
BRANCH   1  33
ATOM     33  C   UNL     1       4.970  -4.298  -6.540  0.00  0.00    +0.347 C 
ATOM     34  O   UNL     1       3.935  -4.861  -6.228  0.00  0.00    -0.248 OA
ATOM     35  O   UNL     1       6.023  -4.913  -6.536  0.00  0.00    -0.248 OA
ENDBRANCH   1  33
TORSDOF 6
