REMARK  Name = ZINC63746609
REMARK  8 active torsions:
REMARK  status: ('A' for Active; 'I' for Inactive)
REMARK    1  A    between atoms: C_1  and  C_2
REMARK    2  A    between atoms: C_2  and  O_3
REMARK    3  A    between atoms: O_3  and  C_4
REMARK    4  A    between atoms: C_9  and  N_10
REMARK    5  A    between atoms: N_13  and  C_14
REMARK    6  A    between atoms: C_16  and  C_38
REMARK    7  A    between atoms: C_19  and  C_32
REMARK    8  A    between atoms: C_20  and  C_24
REMARK                            x       y       z     vdW  Elec       q    Type
REMARK                         _______ _______ _______ _____ _____    ______ ____
ROOT
ATOM      1  C   UNL     1      -7.460  -1.935  -0.119  0.00  0.00    +0.059 A 
ATOM      2  C   UNL     1      -7.635  -3.283  -0.123  0.00  0.00    +0.028 A 
ATOM      3  C   UNL     1      -8.908  -3.861  -0.119  0.00  0.00    -0.048 A 
ATOM      4  C   UNL     1     -10.040  -3.121  -0.113  0.00  0.00    +0.013 A 
ATOM      5  C   UNL     1      -9.971  -1.706  -0.109  0.00  0.00    +0.006 A 
ATOM      6  C   UNL     1     -10.942  -0.720  -0.102  0.00  0.00    -0.000 C 
ATOM      7  C   UNL     1     -10.191   0.594  -0.101  0.00  0.00    +0.198 C 
ATOM      8  N   UNL     1      -8.767   0.245  -0.107  0.00  0.00    -0.368 N 
ATOM      9  C   UNL     1      -8.644  -1.061  -0.106  0.00  0.00    +0.065 A 
ATOM     10  C   UNL     1      -9.024  -5.363  -0.124  0.00  0.00    +0.044 C 
ATOM     11  H   UNL     1      -8.032   0.879  -0.109  0.00  0.00    +0.161 HD
ENDROOT
BRANCH   7  12
ATOM     12  C   UNL     1     -10.537   1.391  -1.332  0.00  0.00    +0.243 C 
ATOM     13  O   UNL     1      -9.829   1.327  -2.315  0.00  0.00    -0.273 OA
ATOM     14  N   UNL     1     -11.633   2.174  -1.341  0.00  0.00    -0.295 N 
ATOM     15  C   UNL     1     -12.442   2.359  -0.126  0.00  0.00    +0.136 C 
ATOM     16  C   UNL     1     -12.649   3.862   0.093  0.00  0.00    +0.179 C 
ATOM     17  O   UNL     1     -13.163   4.446  -1.107  0.00  0.00    -0.377 OA
ATOM     18  C   UNL     1     -12.282   4.349  -2.229  0.00  0.00    +0.179 C 
ATOM     19  C   UNL     1     -12.053   2.875  -2.565  0.00  0.00    +0.136 C 
ENDBRANCH   7  12
BRANCH   1  23
ATOM     20  N   UNL     1      -3.959  -1.430   0.614  0.00  0.00    -0.266 N 
ATOM     21  C   UNL     1      -5.176  -2.005   0.538  0.00  0.00    +0.308 C 
ATOM     22  O   UNL     1      -5.372  -3.083   1.065  0.00  0.00    -0.252 OA
ATOM     23  N   UNL     1      -6.174  -1.386  -0.123  0.00  0.00    -0.267 N 
ATOM     24  H   UNL     1      -3.824  -0.535   0.265  0.00  0.00    +0.156 HD
ATOM     25  H   UNL     1      -6.000  -0.561  -0.601  0.00  0.00    +0.156 HD
BRANCH  20  31
ATOM     26  C   UNL     1      -1.817  -1.424   1.742  0.00  0.00    +0.142 A 
ATOM     27  C   UNL     1      -0.766  -2.115   2.322  0.00  0.00    +0.047 A 
ATOM     28  C   UNL     1      -0.781  -3.498   2.354  0.00  0.00    +0.004 A 
ATOM     29  C   UNL     1      -1.844  -4.194   1.808  0.00  0.00    +0.002 A 
ATOM     30  C   UNL     1      -2.897  -3.511   1.228  0.00  0.00    +0.027 A 
ATOM     31  C   UNL     1      -2.890  -2.124   1.197  0.00  0.00    +0.077 A 
BRANCH  26  32
ATOM     32  O   UNL     1      -1.803  -0.064   1.709  0.00  0.00    -0.490 OA
BRANCH  32  34
ATOM     33  C   UNL     1      -0.831   2.103   2.157  0.00  0.00    +0.048 C 
ATOM     34  C   UNL     1      -0.669   0.587   2.287  0.00  0.00    +0.226 C 
ENDBRANCH  32  34
ENDBRANCH  26  32
ENDBRANCH  20  31
ENDBRANCH   1  23
BRANCH   6  35
ATOM     35  C   UNL     1     -12.394  -0.908  -0.097  0.00  0.00    -0.019 A 
ATOM     36  C   UNL     1     -13.084  -1.106  -1.302  0.00  0.00    +0.008 A 
ATOM     37  C   UNL     1     -14.450  -1.282  -1.287  0.00  0.00    +0.001 A 
ATOM     38  C   UNL     1     -15.142  -1.265  -0.088  0.00  0.00    +0.000 A 
ATOM     39  C   UNL     1     -14.470  -1.070   1.107  0.00  0.00    +0.001 A 
ATOM     40  C   UNL     1     -13.103  -0.898   1.113  0.00  0.00    +0.008 A 
ENDBRANCH   6  35
TORSDOF 6
