REMARK  Name = ZINC20462308
REMARK  3 active torsions:
REMARK  status: ('A' for Active; 'I' for Inactive)
REMARK    1  A    between atoms: C_1  and  C_2
REMARK    2  A    between atoms: C_2  and  C_20
REMARK    3  A    between atoms: N_11  and  C_17
REMARK                            x       y       z     vdW  Elec       q    Type
REMARK                         _______ _______ _______ _____ _____    ______ ____
ROOT
ATOM      1  C   UNL     1      -0.019   1.526   0.010  0.00  0.00    +0.023 C 
ATOM      2  C   UNL     1       0.002  -0.004   0.002  0.00  0.00    +0.015 C 
ATOM      3  C   UNL     1      -1.426  -0.535   0.031  0.00  0.00    +0.053 C 
ATOM      4  C   UNL     1      -2.124  -0.203   1.339  0.00  0.00    -0.021 A 
ATOM      5  C   UNL     1      -1.517   0.088   2.498  0.00  0.00    +0.005 A 
ATOM      6  S   UNL     1      -2.840   0.370   3.650  0.00  0.00    -0.076 S 
ATOM      7  C   UNL     1      -4.147   0.124   2.642  0.00  0.00    +0.087 A 
ATOM      8  C   UNL     1      -3.597  -0.183   1.406  0.00  0.00    +0.069 A 
ATOM      9  C   UNL     1      -4.554  -0.453   0.312  0.00  0.00    +0.255 C 
ATOM     10  O   UNL     1      -4.148  -0.730  -0.802  0.00  0.00    -0.269 OA
ATOM     11  N   UNL     1      -5.872  -0.390   0.551  0.00  0.00    -0.243 N 
ATOM     12  C   UNL     1      -6.376  -0.079   1.804  0.00  0.00    +0.192 C 
ATOM     13  N   UNL     1      -7.630   0.010   2.155  0.00  0.00    -0.254 NA
ATOM     14  C   UNL     1      -7.747   0.361   3.572  0.00  0.00    +0.164 C 
ATOM     15  C   UNL     1      -6.288   0.477   4.050  0.00  0.00    +0.137 C 
ATOM     16  N   UNL     1      -5.508   0.176   2.836  0.00  0.00    -0.265 N 
ATOM     17  C   UNL     1      -6.806  -0.660  -0.544  0.00  0.00    +0.141 C 
ATOM     18  C   UNL     1      -0.051   0.184   2.822  0.00  0.00    +0.112 C 
ATOM     19  S   UNL     1       0.882  -0.611   1.476  0.00  0.00    -0.149 S 
ATOM     20  C   UNL     1       0.711  -0.500  -1.260  0.00  0.00    +0.023 C 
ENDROOT
TORSDOF 0
