REMARK  Name = ZINC20203679
REMARK  20 active torsions:
REMARK  status: ('A' for Active; 'I' for Inactive)
REMARK    1  A    between atoms: C_1  and  C_2
REMARK    2  A    between atoms: C_2  and  N_3
REMARK    3  A    between atoms: N_6  and  C_9
REMARK    4  A    between atoms: C_9  and  C_10
REMARK    5  A    between atoms: C_10  and  C_12
REMARK    6  A    between atoms: C_10  and  O_32
REMARK    7  A    between atoms: C_12  and  O_13
REMARK    8  A    between atoms: O_13  and  C_14
REMARK    9  A    between atoms: C_17  and  C_22
REMARK   10  A    between atoms: C_19  and  O_20
REMARK   11  A    between atoms: O_20  and  C_21
REMARK   12  A    between atoms: C_22  and  N_23
REMARK   13  A    between atoms: N_23  and  C_24
REMARK   14  A    between atoms: C_24  and  C_25
REMARK   15  A    between atoms: C_25  and  C_26
REMARK   16  A    between atoms: C_25  and  C_27
REMARK   17  A    between atoms: C_25  and  C_28
REMARK   18  A    between atoms: C_28  and  N_29
REMARK   19  A    between atoms: N_29  and  C_30
REMARK   20  A    between atoms: N_29  and  C_31
REMARK                            x       y       z     vdW  Elec       q    Type
REMARK                         _______ _______ _______ _____ _____    ______ ____
ROOT
ATOM      1  C   UNL     1       3.109  -4.391   8.767  0.00  0.00    +0.162 A 
ATOM      2  C   UNL     1       3.736  -4.076   9.961  0.00  0.00    +0.050 A 
ATOM      3  C   UNL     1       4.302  -5.076  10.730  0.00  0.00    +0.009 A 
ATOM      4  C   UNL     1       4.245  -6.391  10.310  0.00  0.00    -0.030 A 
ATOM      5  C   UNL     1       3.621  -6.713   9.119  0.00  0.00    +0.054 A 
ATOM      6  C   UNL     1       3.046  -5.717   8.347  0.00  0.00    +0.162 A 
ENDROOT
BRANCH   6   7
ATOM      7  O   UNL     1       2.427  -6.032   7.178  0.00  0.00    -0.491 OA
ATOM      8  C   UNL     1       2.401  -7.413   6.809  0.00  0.00    +0.277 C 
ENDBRANCH   6   7
BRANCH   1   9
ATOM      9  O   UNL     1       2.552  -3.409   8.009  0.00  0.00    -0.486 OA
BRANCH   9  10
ATOM     10  C   UNL     1       2.655  -2.072   8.503  0.00  0.00    +0.261 C 
BRANCH  10  11
ATOM     11  C   UNL     1       1.975  -1.113   7.523  0.00  0.00    +0.166 C 
BRANCH  11  12
ATOM     12  O   UNL     1       0.574  -1.393   7.478  0.00  0.00    -0.387 OA
ATOM     13  H   UNL     1       0.126  -1.296   8.329  0.00  0.00    +0.210 HD
ENDBRANCH  11  12
BRANCH  11  14
ATOM     14  C   UNL     1       2.192   0.329   7.987  0.00  0.00    +0.119 C 
BRANCH  14  18
ATOM     15  N   UNL     1       1.459   3.504   5.295  0.00  0.00    +0.381 N 
ATOM     16  C   UNL     1       0.782   3.533   6.598  0.00  0.00    -0.063 C 
ATOM     17  C   UNL     1       1.521   2.619   7.578  0.00  0.00    +0.066 C 
ATOM     18  N   UNL     1       1.540   1.249   7.047  0.00  0.00    -0.303 NA
ATOM     19  C   UNL     1       2.193   1.208   5.731  0.00  0.00    +0.066 C 
ATOM     20  C   UNL     1       1.448   2.134   4.766  0.00  0.00    -0.063 C 
ATOM     21  H   UNL     1       2.413   3.814   5.405  0.00  0.00    -0.082 HD
BRANCH  15  23
ATOM     22  C   UNL     1       0.879   5.841   4.848  0.00  0.00    -0.017 C 
ATOM     23  C   UNL     1       0.760   4.396   4.360  0.00  0.00    -0.082 C 
ENDBRANCH  15  23
ENDBRANCH  14  18
ENDBRANCH  11  14
ENDBRANCH  10  11
ENDBRANCH   9  10
ENDBRANCH   1   9
BRANCH   4  24
ATOM     24  C   UNL     1       4.863  -7.477  11.152  0.00  0.00    +0.116 C 
BRANCH  24  25
ATOM     25  N   UNL     1       3.865  -7.992  12.098  0.00  0.00    -0.312 NA
ATOM     26  H   UNL     1       3.486  -7.248  12.665  0.00  0.00    +0.122 HD
BRANCH  25  27
ATOM     27  C   UNL     1       4.434  -9.055  12.938  0.00  0.00    +0.085 C 
BRANCH  27  28
ATOM     28  C   UNL     1       3.366  -9.565  13.908  0.00  0.00    -0.037 C 
ATOM     29  C   UNL     1       2.892  -8.413  14.796  0.00  0.00    +0.010 C 
ATOM     30  C   UNL     1       2.181 -10.121  13.116  0.00  0.00    +0.010 C 
BRANCH  28  31
ATOM     31  C   UNL     1       3.959 -10.672  14.782  0.00  0.00    -0.072 C 
BRANCH  31  32
ATOM     32  N   UNL     1       2.946 -11.134  15.741  0.00  0.00    +0.376 N 
ATOM     33  C   UNL     1       2.111 -12.166  15.112  0.00  0.00    -0.097 C 
ATOM     34  C   UNL     1       3.612 -11.697  16.923  0.00  0.00    -0.097 C 
ATOM     35  H   UNL     1       2.367 -10.356  16.019  0.00  0.00    -0.083 HD
ENDBRANCH  31  32
ENDBRANCH  28  31
ENDBRANCH  27  28
ENDBRANCH  25  27
ENDBRANCH  24  25
ENDBRANCH   4  24
TORSDOF 14
