REMARK  Name = ZINC27500083
REMARK  5 active torsions:
REMARK  status: ('A' for Active; 'I' for Inactive)
REMARK    1  A    between atoms: C_1  and  O_2
REMARK    2  A    between atoms: O_2  and  C_3
REMARK    3  A    between atoms: C_10  and  C_24
REMARK    4  A    between atoms: N_12  and  N_13
REMARK    5  A    between atoms: C_14  and  C_16
REMARK                            x       y       z     vdW  Elec       q    Type
REMARK                         _______ _______ _______ _____ _____    ______ ____
ROOT
ATOM      1  C   UNL     1       6.684  -8.196   1.657  0.00  0.00    +0.121 A 
ATOM      2  C   UNL     1       5.455  -8.819   1.465  0.00  0.00    +0.049 A 
ATOM      3  C   UNL     1       4.414  -8.146   0.856  0.00  0.00    +0.050 A 
ATOM      4  C   UNL     1       4.588  -6.838   0.431  0.00  0.00    +0.138 A 
ATOM      5  C   UNL     1       5.827  -6.201   0.626  0.00  0.00    +0.022 A 
ATOM      6  C   UNL     1       6.876  -6.891   1.242  0.00  0.00    +0.057 A 
ATOM      7  C   UNL     1       6.003  -4.815   0.178  0.00  0.00    +0.030 A 
ATOM      8  C   UNL     1       4.875  -4.109  -0.167  0.00  0.00    +0.098 A 
ATOM      9  C   UNL     1       3.576  -4.811  -0.056  0.00  0.00    +0.224 A 
ATOM     10  N   UNL     1       2.469  -4.151   0.148  0.00  0.00    -0.273 N 
ATOM     11  O   UNL     1       3.574  -6.169  -0.168  0.00  0.00    -0.437 OA
ATOM     12  H   UNL     1       1.500  -4.668   0.085  0.00  0.00    +0.188 HD
ENDROOT
BRANCH   8  13
ATOM     13  C   UNL     1       4.955  -2.712  -0.627  0.00  0.00    +0.247 C 
ATOM     14  O   UNL     1       5.850  -1.991  -0.229  0.00  0.00    -0.270 OA
ATOM     15  N   UNL     1       4.036  -2.233  -1.488  0.00  0.00    -0.325 N 
ATOM     16  H   UNL     1       4.096  -1.190  -1.832  0.00  0.00    +0.145 HD
ATOM     17  H   UNL     1       3.226  -2.885  -1.848  0.00  0.00    +0.145 HD
ENDBRANCH   8  13
BRANCH  10  18
ATOM     18  N   UNL     1       2.514  -2.782   0.446  0.00  0.00    -0.223 N 
ATOM     19  C   UNL     1       1.370  -2.077   0.550  0.00  0.00    +0.262 C 
ATOM     20  O   UNL     1       0.298  -2.629   0.385  0.00  0.00    -0.269 OA
ATOM     21  H   UNL     1       3.483  -2.284   0.595  0.00  0.00    +0.175 HD
BRANCH  19  22
ATOM     22  C   UNL     1       1.417  -0.634   0.864  0.00  0.00    +0.039 A 
ATOM     23  C   UNL     1       0.234   0.099   0.973  0.00  0.00    +0.013 A 
ATOM     24  C   UNL     1       0.285   1.446   1.267  0.00  0.00    +0.002 A 
ATOM     25  C   UNL     1       1.505   2.071   1.455  0.00  0.00    +0.015 A 
ATOM     26  C   UNL     1       2.682   1.350   1.348  0.00  0.00    +0.019 A 
ATOM     27  C   UNL     1       2.645   0.002   1.054  0.00  0.00    +0.028 A 
ATOM     28 BR   UNL     1       4.344   2.215   1.606  0.00  0.00    -0.050 Br
ENDBRANCH  19  22
ENDBRANCH  10  18
BRANCH   1  30
ATOM     29  C   UNL     1       7.434 -10.217   2.661  0.00  0.00    +0.277 C 
ATOM     30  O   UNL     1       7.700  -8.872   2.256  0.00  0.00    -0.495 OA
ENDBRANCH   1  30
TORSDOF 4
