REMARK  Name = ZINC36167623
REMARK  15 active torsions:
REMARK  status: ('A' for Active; 'I' for Inactive)
REMARK    1  A    between atoms: C_1  and  C_2
REMARK    2  A    between atoms: C_2  and  C_3
REMARK    3  A    between atoms: C_3  and  N_4
REMARK    4  A    between atoms: N_4  and  C_5
REMARK    5  A    between atoms: N_4  and  C_25
REMARK    6  A    between atoms: C_5  and  C_6
REMARK    7  A    between atoms: C_9  and  C_11
REMARK    8  A    between atoms: C_11  and  C_12
REMARK    9  A    between atoms: C_11  and  C_18
REMARK   10  A    between atoms: C_11  and  O_24
REMARK   11  A    between atoms: C_25  and  C_26
REMARK   12  A    between atoms: C_28  and  O_34
REMARK   13  A    between atoms: C_30  and  O_32
REMARK   14  A    between atoms: O_32  and  C_33
REMARK   15  A    between atoms: O_34  and  C_35
REMARK                            x       y       z     vdW  Elec       q    Type
REMARK                         _______ _______ _______ _____ _____    ______ ____
ROOT
ATOM      1  C   UNL     1       4.457  -2.077  -1.420  0.00  0.00    +0.089 A 
ATOM      2  C   UNL     1       5.493  -2.559  -0.710  0.00  0.00    +0.043 A 
ATOM      3  C   UNL     1       6.369  -1.474  -0.476  0.00  0.00    +0.048 A 
ATOM      4  C   UNL     1       5.816  -0.394  -1.057  0.00  0.00    +0.146 A 
ATOM      5  O   UNL     1       4.661  -0.767  -1.632  0.00  0.00    -0.463 OA
ENDROOT
BRANCH   1   6
ATOM      6  C   UNL     1       3.272  -2.875  -1.901  0.00  0.00    -0.003 C 
BRANCH   6   7
ATOM      7  N   UNL     1       2.213  -2.839  -0.884  0.00  0.00    +0.387 N 
ATOM      8  H   UNL     1       2.582  -3.160  -0.002  0.00  0.00    -0.081 HD
BRANCH   7   9
ATOM      9  C   UNL     1       1.721  -1.463  -0.737  0.00  0.00    -0.078 C 
BRANCH   9  11
ATOM     10  C   UNL     1       0.323   0.056   0.670  0.00  0.00    +0.002 C 
ATOM     11  C   UNL     1       0.717  -1.400   0.415  0.00  0.00    -0.022 C 
ENDBRANCH   9  11
ENDBRANCH   7   9
BRANCH   7  12
ATOM     12  C   UNL     1       1.107  -3.712  -1.299  0.00  0.00    -0.042 C 
BRANCH  12  13
ATOM     13  C   UNL     1       1.575  -5.145  -1.311  0.00  0.00    -0.057 A 
ATOM     14  C   UNL     1       1.997  -5.723  -2.493  0.00  0.00    +0.047 A 
ATOM     15  C   UNL     1       2.429  -7.041  -2.507  0.00  0.00    +0.124 A 
ATOM     16  C   UNL     1       2.436  -7.779  -1.333  0.00  0.00    +0.091 A 
ATOM     17  C   UNL     1       2.012  -7.197  -0.148  0.00  0.00    +0.124 A 
ATOM     18  C   UNL     1       1.587  -5.876  -0.139  0.00  0.00    +0.047 A 
BRANCH  17  19
ATOM     19  O   UNL     1       2.018  -7.918   1.004  0.00  0.00    -0.495 OA
ATOM     20  C   UNL     1       2.474  -9.270   0.921  0.00  0.00    +0.277 C 
ENDBRANCH  17  19
BRANCH  15  21
ATOM     21  O   UNL     1       2.844  -7.609  -3.670  0.00  0.00    -0.495 OA
ATOM     22  C   UNL     1       3.275  -8.970  -3.610  0.00  0.00    +0.277 C 
ENDBRANCH  15  21
ENDBRANCH  12  13
ENDBRANCH   7  12
ENDBRANCH   6   7
ENDBRANCH   1   6
BRANCH   4  23
ATOM     23  C   UNL     1       6.396   0.997  -1.066  0.00  0.00    +0.174 C 
BRANCH  23  24
ATOM     24  C   UNL     1       5.969   1.711  -2.322  0.00  0.00    -0.004 A 
ATOM     25  C   UNL     1       6.920   2.159  -3.220  0.00  0.00    +0.007 A 
ATOM     26  C   UNL     1       6.529   2.814  -4.373  0.00  0.00    +0.000 A 
ATOM     27  C   UNL     1       5.186   3.021  -4.628  0.00  0.00    +0.000 A 
ATOM     28  C   UNL     1       4.235   2.572  -3.730  0.00  0.00    +0.000 A 
ATOM     29  C   UNL     1       4.626   1.913  -2.580  0.00  0.00    +0.007 A 
ENDBRANCH  23  24
BRANCH  23  30
ATOM     30  C   UNL     1       5.900   1.756   0.137  0.00  0.00    -0.004 A 
ATOM     31  C   UNL     1       4.609   1.562   0.592  0.00  0.00    +0.007 A 
ATOM     32  C   UNL     1       4.153   2.259   1.696  0.00  0.00    +0.000 A 
ATOM     33  C   UNL     1       4.989   3.149   2.345  0.00  0.00    +0.000 A 
ATOM     34  C   UNL     1       6.280   3.342   1.890  0.00  0.00    +0.000 A 
ATOM     35  C   UNL     1       6.737   2.642   0.789  0.00  0.00    +0.007 A 
ENDBRANCH  23  30
BRANCH  23  36
ATOM     36  O   UNL     1       7.822   0.918  -1.024  0.00  0.00    -0.372 OA
ATOM     37  H   UNL     1       8.212   0.441  -1.770  0.00  0.00    +0.212 HD
ENDBRANCH  23  36
ENDBRANCH   4  23
TORSDOF 12
