REMARK  Name = ZINC47832747
REMARK  12 active torsions:
REMARK  status: ('A' for Active; 'I' for Inactive)
REMARK    1  A    between atoms: C_1  and  C_2
REMARK    2  A    between atoms: C_2  and  C_3
REMARK    3  A    between atoms: N_5  and  C_6
REMARK    4  A    between atoms: C_9  and  C_12
REMARK    5  A    between atoms: C_12  and  C_14
REMARK    6  A    between atoms: C_12  and  N_15
REMARK    7  A    between atoms: N_18  and  C_19
REMARK    8  A    between atoms: C_19  and  C_20
REMARK    9  A    between atoms: C_20  and  C_22
REMARK   10  A    between atoms: C_20  and  N_27
REMARK   11  A    between atoms: N_27  and  C_28
REMARK   12  A    between atoms: N_27  and  C_29
REMARK                            x       y       z     vdW  Elec       q    Type
REMARK                         _______ _______ _______ _____ _____    ______ ____
ROOT
ATOM      1  N   UNL     1      -6.953  -4.684  -1.448  0.00  0.00    -0.293 N 
ATOM      2  C   UNL     1      -8.149  -5.022  -1.968  0.00  0.00    +0.300 C 
ATOM      3  O   UNL     1      -9.128  -4.339  -1.736  0.00  0.00    -0.253 OA
ATOM      4  N   UNL     1      -8.261  -6.117  -2.746  0.00  0.00    -0.301 N 
ATOM      5  H   UNL     1      -6.172  -5.228  -1.633  0.00  0.00    +0.151 HD
ATOM      6  H   UNL     1      -7.480  -6.661  -2.931  0.00  0.00    +0.150 HD
ENDROOT
BRANCH   1   7
ATOM      7  C   UNL     1      -6.832  -3.493  -0.602  0.00  0.00    +0.102 C 
ATOM      8  C   UNL     1      -7.193  -3.854   0.840  0.00  0.00    +0.033 C 
BRANCH   7  12
ATOM      9  C   UNL     1      -2.813  -2.047  -0.745  0.00  0.00    +0.033 A 
ATOM     10  C   UNL     1      -3.875  -1.152  -0.750  0.00  0.00    +0.023 A 
ATOM     11  C   UNL     1      -5.173  -1.623  -0.704  0.00  0.00    +0.007 A 
ATOM     12  C   UNL     1      -5.415  -2.983  -0.652  0.00  0.00    -0.027 A 
ATOM     13  C   UNL     1      -4.359  -3.877  -0.647  0.00  0.00    +0.007 A 
ATOM     14  C   UNL     1      -3.060  -3.413  -0.699  0.00  0.00    +0.023 A 
BRANCH   9  17
ATOM     15  C   UNL     1      -0.557  -2.261  -1.470  0.00  0.00    +0.217 C 
ATOM     16  O   UNL     1      -0.830  -3.334  -1.966  0.00  0.00    -0.275 OA
ATOM     17  N   UNL     1      -1.497  -1.573  -0.792  0.00  0.00    -0.286 N 
ATOM     18  H   UNL     1      -1.262  -0.750  -0.337  0.00  0.00    +0.155 HD
BRANCH  15  20
ATOM     19  C   UNL     1       1.698  -2.669  -2.418  0.00  0.00    +0.013 C 
ATOM     20  C   UNL     1       0.834  -1.698  -1.611  0.00  0.00    +0.093 C 
ENDBRANCH  15  20
ENDBRANCH   9  17
ENDBRANCH   7  12
ENDBRANCH   1   7
BRANCH   4  21
ATOM     21  C   UNL     1      -9.561  -6.484  -3.312  0.00  0.00    +0.095 C 
BRANCH  21  22
ATOM     22  C   UNL     1      -9.439  -7.821  -4.046  0.00  0.00    -0.014 C 
BRANCH  22  23
ATOM     23  C   UNL     1      -8.495  -7.669  -5.211  0.00  0.00    -0.022 A 
ATOM     24  C   UNL     1      -7.191  -8.027  -5.306  0.00  0.00    +0.009 A 
ATOM     25  C   UNL     1      -6.515  -7.790  -6.487  0.00  0.00    +0.008 A 
ATOM     26  C   UNL     1      -7.175  -7.206  -7.517  0.00  0.00    +0.045 A 
ATOM     27  S   UNL     1      -8.807  -6.980  -6.828  0.00  0.00    -0.103 S 
ENDBRANCH  22  23
BRANCH  22  28
ATOM     28  N   UNL     1     -10.761  -8.233  -4.537  0.00  0.00    +0.382 N 
ATOM     29  C   UNL     1     -10.660  -9.560  -5.158  0.00  0.00    -0.096 C 
ATOM     30  C   UNL     1     -11.705  -8.288  -3.413  0.00  0.00    -0.096 C 
ATOM     31  H   UNL     1     -11.089  -7.566  -5.219  0.00  0.00    -0.082 HD
ENDBRANCH  22  28
ENDBRANCH  21  22
ENDBRANCH   4  21
TORSDOF 8
