REMARK  Name = ZINC20806411
REMARK  9 active torsions:
REMARK  status: ('A' for Active; 'I' for Inactive)
REMARK    1  A    between atoms: C_3  and  C_8
REMARK    2  A    between atoms: C_5  and  O_7
REMARK    3  A    between atoms: N_9  and  N_10
REMARK    4  A    between atoms: C_14  and  S_17
REMARK    5  A    between atoms: N_15  and  N_16
REMARK    6  A    between atoms: S_17  and  C_18
REMARK    7  A    between atoms: C_18  and  C_19
REMARK    8  A    between atoms: N_21  and  C_22
REMARK    9  A    between atoms: C_26  and  C_28
REMARK                            x       y       z     vdW  Elec       q    Type
REMARK                         _______ _______ _______ _____ _____    ______ ____
ROOT
ATOM      1  N   UNL     1      -1.219   7.418  -0.484  0.00  0.00    -0.204 N 
ATOM      2  C   UNL     1      -2.432   8.081  -0.372  0.00  0.00    +0.254 A 
ATOM      3  N   UNL     1      -3.602   7.521  -0.181  0.00  0.00    -0.109 NA
ATOM      4  N   UNL     1      -4.564   8.538  -0.123  0.00  0.00    -0.119 NA
ATOM      5  C   UNL     1      -3.951   9.686  -0.289  0.00  0.00    +0.210 A 
ATOM      6  N   UNL     1      -2.618   9.434  -0.448  0.00  0.00    -0.211 N 
ATOM      7  H   UNL     1      -0.293   7.989  -0.650  0.00  0.00    +0.177 HD
ENDROOT
BRANCH   6   8
ATOM      8  N   UNL     1      -1.643  10.369  -0.646  0.00  0.00    -0.294 N 
ATOM      9  H   UNL     1      -1.905  11.436  -0.690  0.00  0.00    +0.163 HD
ATOM     10  H   UNL     1      -0.595  10.055  -0.761  0.00  0.00    +0.163 HD
ENDBRANCH   6   8
BRANCH   1  12
ATOM     11  C   UNL     1      -0.037   5.400  -0.492  0.00  0.00    +0.138 C 
ATOM     12  N   UNL     1      -1.173   6.021  -0.387  0.00  0.00    -0.188 NA
BRANCH  11  15
ATOM     13  C   UNL     1      -1.114   1.826  -0.092  0.00  0.00    +0.004 A 
ATOM     14  C   UNL     1      -1.163   3.202  -0.181  0.00  0.00    +0.010 A 
ATOM     15  C   UNL     1       0.012   3.930  -0.390  0.00  0.00    -0.002 A 
ATOM     16  C   UNL     1       1.231   3.259  -0.503  0.00  0.00    +0.054 A 
ATOM     17  C   UNL     1       1.268   1.879  -0.406  0.00  0.00    +0.117 A 
ATOM     18  C   UNL     1       0.096   1.165  -0.199  0.00  0.00    +0.045 A 
BRANCH  17  19
ATOM     19  O   UNL     1       2.453   1.222  -0.515  0.00  0.00    -0.507 OA
ATOM     20  H   UNL     1       2.483   0.125  -0.438  0.00  0.00    +0.292 HD
ENDBRANCH  17  19
ENDBRANCH  11  15
ENDBRANCH   1  12
BRANCH   5  21
ATOM     21  S   UNL     1      -4.714  11.274  -0.305  0.00  0.00    -0.075 S 
BRANCH  21  22
ATOM     22  C   UNL     1      -6.474  10.918  -0.045  0.00  0.00    +0.173 C 
BRANCH  22  23
ATOM     23  C   UNL     1      -7.251  12.209  -0.037  0.00  0.00    +0.227 C 
ATOM     24  O   UNL     1      -6.675  13.265  -0.191  0.00  0.00    -0.275 OA
ATOM     25  N   UNL     1      -8.587  12.190   0.142  0.00  0.00    -0.285 N 
ATOM     26  H   UNL     1      -9.121  11.230   0.195  0.00  0.00    +0.155 HD
BRANCH  25  27
ATOM     27  C   UNL     1      -9.294  13.392   0.260  0.00  0.00    +0.034 A 
ATOM     28  C   UNL     1      -8.703  14.491   0.871  0.00  0.00    +0.025 A 
ATOM     29  C   UNL     1      -9.401  15.677   0.982  0.00  0.00    +0.022 A 
ATOM     30  C   UNL     1     -10.694  15.768   0.495  0.00  0.00    +0.053 A 
ATOM     31  C   UNL     1     -11.287  14.674  -0.110  0.00  0.00    +0.075 A 
ATOM     32  C   UNL     1     -10.591  13.487  -0.228  0.00  0.00    +0.037 A 
ATOM     33 CL   UNL     1     -11.571  17.259   0.641  0.00  0.00    -0.083 Cl
BRANCH  31  34
ATOM     34  C   UNL     1     -12.694  14.778  -0.639  0.00  0.00    +0.419 C 
ATOM     35  F   UNL     1     -13.072  13.554  -1.201  0.00  0.00    -0.166 F 
ATOM     36  F   UNL     1     -13.564  15.099   0.408  0.00  0.00    -0.166 F 
ATOM     37  F   UNL     1     -12.752  15.777  -1.617  0.00  0.00    -0.166 F 
ENDBRANCH  31  34
ENDBRANCH  25  27
ENDBRANCH  22  23
ENDBRANCH  21  22
ENDBRANCH   5  21
TORSDOF 9
