REMARK  Name = ZINC22238236
REMARK  12 active torsions:
REMARK  status: ('A' for Active; 'I' for Inactive)
REMARK    1  A    between atoms: C_1  and  C_2
REMARK    2  A    between atoms: C_5  and  S_8
REMARK    3  A    between atoms: S_8  and  N_11
REMARK    4  A    between atoms: N_11  and  C_12
REMARK    5  A    between atoms: C_12  and  C_14
REMARK    6  A    between atoms: C_12  and  C_18
REMARK    7  A    between atoms: C_14  and  C_15
REMARK    8  A    between atoms: C_15  and  C_16
REMARK    9  A    between atoms: C_15  and  C_17
REMARK   10  A    between atoms: C_18  and  N_20
REMARK   11  A    between atoms: C_23  and  C_26
REMARK   12  A    between atoms: C_26  and  N_27
REMARK                            x       y       z     vdW  Elec       q    Type
REMARK                         _______ _______ _______ _____ _____    ______ ____
ROOT
ATOM      1  C   UNL     1       2.679  -4.616   0.995  0.00  0.00    +0.164 C 
ENDROOT
BRANCH   1   2
ATOM      2  N   UNL     1       1.755  -5.071  -0.047  0.00  0.00    -0.178 NA
ATOM      3  H   UNL     1       1.904  -4.816  -0.971  0.00  0.00    +0.149 HD
BRANCH   2   4
ATOM      4  S   UNL     1       0.458  -6.019   0.352  0.00  0.00    +0.059 S 
ATOM      5  O   UNL     1       0.958  -7.067   1.171  0.00  0.00    -0.153 OA
ATOM      6  O   UNL     1      -0.251  -6.267  -0.854  0.00  0.00    -0.153 OA
BRANCH   4  11
ATOM      7  C   UNL     1      -3.180  -2.696   3.836  0.00  0.00    +0.044 C 
ATOM      8  C   UNL     1      -2.271  -3.526   2.966  0.00  0.00    -0.050 A 
ATOM      9  C   UNL     1      -2.386  -3.465   1.589  0.00  0.00    +0.005 A 
ATOM     10  C   UNL     1      -1.553  -4.226   0.791  0.00  0.00    +0.029 A 
ATOM     11  C   UNL     1      -0.604  -5.048   1.370  0.00  0.00    +0.105 A 
ATOM     12  C   UNL     1      -0.487  -5.109   2.746  0.00  0.00    +0.029 A 
ATOM     13  C   UNL     1      -1.318  -4.344   3.544  0.00  0.00    +0.005 A 
ENDBRANCH   4  11
ENDBRANCH   2   4
ENDBRANCH   1   2
BRANCH   1  14
ATOM     14  C   UNL     1       3.835  -5.577   1.097  0.00  0.00    +0.257 C 
ATOM     15  O   UNL     1       3.883  -6.550   0.367  0.00  0.00    -0.272 OA
BRANCH  14  16
ATOM     16  N   UNL     1       4.800  -5.362   1.981  0.00  0.00    -0.155 NA
ATOM     17  C   UNL     1       5.824  -6.214   2.071  0.00  0.00    +0.163 A 
ATOM     18  N   UNL     1       6.893  -6.164   2.910  0.00  0.00    -0.341 N 
ATOM     19  C   UNL     1       7.832  -7.145   2.835  0.00  0.00    +0.008 A 
ATOM     20  C   UNL     1       7.642  -8.109   1.927  0.00  0.00    +0.067 A 
ATOM     21  S   UNL     1       6.102  -7.612   1.178  0.00  0.00    -0.061 S 
ATOM     22  H   UNL     1       6.984  -5.442   3.551  0.00  0.00    +0.167 HD
BRANCH  19  23
ATOM     23  C   UNL     1       9.039  -7.145   3.738  0.00  0.00    -0.024 C 
BRANCH  23  24
ATOM     24  N   UNL     1       9.878  -5.978   3.434  0.00  0.00    +0.383 N 
ATOM     25  C   UNL     1      10.404  -6.098   2.069  0.00  0.00    -0.078 C 
ATOM     26  C   UNL     1      11.212  -4.846   1.718  0.00  0.00    -0.019 C 
ATOM     27  C   UNL     1      12.375  -4.704   2.704  0.00  0.00    -0.004 C 
ATOM     28  C   UNL     1      11.820  -4.655   4.130  0.00  0.00    -0.019 C 
ATOM     29  C   UNL     1      10.989  -5.914   4.391  0.00  0.00    -0.078 C 
ATOM     30  H   UNL     1       9.324  -5.139   3.507  0.00  0.00    -0.081 HD
ENDBRANCH  23  24
ENDBRANCH  19  23
ENDBRANCH  14  16
ENDBRANCH   1  14
BRANCH   1  31
ATOM     31  C   UNL     1       3.203  -3.223   0.640  0.00  0.00    +0.033 C 
BRANCH  31  32
ATOM     32  C   UNL     1       2.052  -2.216   0.693  0.00  0.00    -0.015 C 
ATOM     33  C   UNL     1       2.604  -0.801   0.504  0.00  0.00    +0.007 C 
ATOM     34  C   UNL     1       1.052  -2.526  -0.423  0.00  0.00    +0.007 C 
ENDBRANCH  31  32
ENDBRANCH   1  31
TORSDOF 9
