REMARK  Name = ZINC36815096
REMARK  10 active torsions:
REMARK  status: ('A' for Active; 'I' for Inactive)
REMARK    1  A    between atoms: C_1  and  C_2
REMARK    2  A    between atoms: C_2  and  C_4
REMARK    3  A    between atoms: C_2  and  C_20
REMARK    4  A    between atoms: C_4  and  O_5
REMARK    5  A    between atoms: O_5  and  C_6
REMARK    6  A    between atoms: C_7  and  O_18
REMARK    7  A    between atoms: C_9  and  C_13
REMARK    8  A    between atoms: C_13  and  N_14
REMARK    9  A    between atoms: N_14  and  C_15
REMARK   10  A    between atoms: O_18  and  C_19
REMARK                            x       y       z     vdW  Elec       q    Type
REMARK                         _______ _______ _______ _____ _____    ______ ____
ROOT
ATOM      1  C   UNL     1       2.916  -0.487   2.206  0.00  0.00    +0.176 A 
ATOM      2  C   UNL     1       3.056   0.341   3.315  0.00  0.00    +0.163 A 
ATOM      3  C   UNL     1       3.875  -0.043   4.364  0.00  0.00    +0.051 A 
ATOM      4  C   UNL     1       4.552  -1.248   4.308  0.00  0.00    -0.060 A 
ATOM      5  C   UNL     1       4.414  -2.071   3.206  0.00  0.00    +0.021 A 
ATOM      6  C   UNL     1       3.592  -1.696   2.158  0.00  0.00    +0.063 A 
ATOM      7 BR   UNL     1       3.400  -2.829   0.656  0.00  0.00    -0.046 Br
ENDROOT
BRANCH   2   8
ATOM      8  O   UNL     1       2.390   1.526   3.369  0.00  0.00    -0.491 OA
ATOM      9  C   UNL     1       2.582   2.325   4.539  0.00  0.00    +0.277 C 
ENDBRANCH   2   8
BRANCH   1  10
ATOM     10  O   UNL     1       2.113  -0.114   1.173  0.00  0.00    -0.486 OA
BRANCH  10  11
ATOM     11  C   UNL     1       0.742  -0.511   1.242  0.00  0.00    +0.241 C 
BRANCH  11  13
ATOM     12  C   UNL     1      -0.019   1.526   0.010  0.00  0.00    +0.020 C 
ATOM     13  C   UNL     1       0.002  -0.004   0.002  0.00  0.00    +0.109 C 
BRANCH  13  14
ATOM     14  C   UNL     1      -1.412  -0.526   0.013  0.00  0.00    +0.217 C 
ATOM     15  O   UNL     1      -1.790  -1.233   0.922  0.00  0.00    -0.276 OA
ATOM     16  N   UNL     1      -2.256  -0.206  -0.988  0.00  0.00    -0.329 N 
ATOM     17  H   UNL     1      -1.953   0.360  -1.716  0.00  0.00    +0.145 HD
ATOM     18  H   UNL     1      -3.166  -0.542  -0.982  0.00  0.00    +0.145 HD
ENDBRANCH  13  14
ENDBRANCH  11  13
ENDBRANCH  10  11
ENDBRANCH   1  10
BRANCH   4  19
ATOM     19  C   UNL     1       5.442  -1.664   5.450  0.00  0.00    -0.046 C 
BRANCH  19  20
ATOM     20  N   UNL     1       4.659  -2.431   6.428  0.00  0.00    +0.384 N 
ATOM     21  H   UNL     1       3.906  -1.857   6.779  0.00  0.00    -0.085 HD
ATOM     22  H   UNL     1       4.276  -3.252   5.983  0.00  0.00    -0.085 HD
BRANCH  20  23
ATOM     23  C   UNL     1       5.527  -2.837   7.541  0.00  0.00    -0.072 C 
ATOM     24  C   UNL     1       5.750  -4.335   7.753  0.00  0.00    -0.017 C 
ATOM     25  C   UNL     1       4.870  -3.548   8.726  0.00  0.00    -0.017 C 
ENDBRANCH  20  23
ENDBRANCH  19  20
ENDBRANCH   4  19
TORSDOF 8
