REMARK  Name = ZINC02417726
REMARK  11 active torsions:
REMARK  status: ('A' for Active; 'I' for Inactive)
REMARK    1  A    between atoms: C_1  and  C_2
REMARK    2  A    between atoms: C_2  and  C_3
REMARK    3  A    between atoms: C_2  and  C_4
REMARK    4  A    between atoms: C_10  and  N_16
REMARK    5  A    between atoms: C_12  and  S_14
REMARK    6  A    between atoms: S_14  and  C_15
REMARK    7  A    between atoms: N_16  and  C_17
REMARK    8  A    between atoms: C_17  and  C_18
REMARK    9  A    between atoms: C_18  and  C_19
REMARK   10  A    between atoms: C_19  and  C_20
REMARK   11  A    between atoms: C_20  and  N_54
REMARK                            x       y       z     vdW  Elec       q    Type
REMARK                         _______ _______ _______ _____ _____    ______ ____
ROOT
ATOM      1  C   UNL     1       0.002  -0.004   0.002  0.00  0.00    +0.049 A 
ATOM      2  C   UNL     1      -0.576  -0.707   1.051  0.00  0.00    -0.022 A 
ATOM      3  C   UNL     1      -0.563  -2.083   1.042  0.00  0.00    -0.031 A 
ATOM      4  C   UNL     1       0.051  -2.763  -0.032  0.00  0.00    +0.037 A 
ATOM      5  C   UNL     1       0.174  -4.221  -0.224  0.00  0.00    +0.094 A 
ATOM      6  C   UNL     1       0.833  -4.630  -1.389  0.00  0.00    +0.080 A 
ATOM      7  C   UNL     1       1.007  -5.977  -1.677  0.00  0.00    +0.138 A 
ATOM      8  N   UNL     1       0.532  -6.876  -0.816  0.00  0.00    -0.206 NA
ATOM      9  C   UNL     1      -0.090  -6.476   0.285  0.00  0.00    +0.190 A 
ATOM     10  N   UNL     1      -0.272  -5.207   0.587  0.00  0.00    -0.221 NA
ATOM     11  S   UNL     1       1.279  -3.123  -2.206  0.00  0.00    -0.064 S 
ATOM     12  C   UNL     1       0.611  -1.960  -1.041  0.00  0.00    +0.111 A 
ATOM     13  N   UNL     1       0.574  -0.645  -0.998  0.00  0.00    -0.244 NA
ATOM     14  C   UNL     1      -1.254  -2.618   2.274  0.00  0.00    +0.036 C 
ATOM     15  C   UNL     1      -2.077  -1.431   2.820  0.00  0.00    +0.009 C 
ATOM     16  C   UNL     1      -1.290  -0.212   2.292  0.00  0.00    +0.037 C 
ENDROOT
BRANCH   1  18
ATOM     17  C   UNL     1       1.417   2.032  -0.001  0.00  0.00    +0.014 C 
ATOM     18  C   UNL     1      -0.018   1.503   0.010  0.00  0.00    +0.032 C 
ATOM     19  C   UNL     1      -0.758   2.010  -1.229  0.00  0.00    +0.014 C 
ENDBRANCH   1  18
BRANCH   9  20
ATOM     20  S   UNL     1      -0.702  -7.699   1.396  0.00  0.00    -0.089 S 
ATOM     21  C   UNL     1      -0.196  -9.200   0.521  0.00  0.00    +0.093 C 
ENDBRANCH   9  20
BRANCH   7  22
ATOM     22  N   UNL     1       1.661  -6.377  -2.832  0.00  0.00    -0.328 N 
ATOM     23  H   UNL     1       2.002  -5.713  -3.451  0.00  0.00    +0.147 HD
BRANCH  22  24
ATOM     24  C   UNL     1       1.835  -7.803  -3.119  0.00  0.00    +0.103 C 
BRANCH  24  25
ATOM     25  C   UNL     1       2.582  -7.969  -4.444  0.00  0.00    +0.017 C 
BRANCH  25  26
ATOM     26  C   UNL     1       2.764  -9.459  -4.743  0.00  0.00    -0.018 C 
BRANCH  26  27
ATOM     27  C   UNL     1       3.511  -9.625  -6.068  0.00  0.00    -0.086 C 
BRANCH  27  30
ATOM     28  H   UNL     1       2.798 -11.534  -6.362  0.00  0.00    -0.090 HD
ATOM     29  H   UNL     1       4.177 -11.191  -7.226  0.00  0.00    -0.090 HD
ATOM     30  N   UNL     1       3.700 -11.061  -6.336  0.00  0.00    +0.378 N 
ATOM     31  H   UNL     1       4.271 -11.472  -5.587  0.00  0.00    -0.090 HD
ENDBRANCH  27  30
ENDBRANCH  26  27
ENDBRANCH  25  26
ENDBRANCH  24  25
ENDBRANCH  22  24
ENDBRANCH   7  22
TORSDOF 8
