REMARK  Name = ZINC67298422
REMARK  4 active torsions:
REMARK  status: ('A' for Active; 'I' for Inactive)
REMARK    1  A    between atoms: C_1  and  C_2
REMARK    2  A    between atoms: C_6  and  N_8
REMARK    3  A    between atoms: C_10  and  C_20
REMARK    4  A    between atoms: C_15  and  O_19
REMARK                            x       y       z     vdW  Elec       q    Type
REMARK                         _______ _______ _______ _____ _____    ______ ____
ROOT
ATOM      1  N   UNL     1       0.223  -2.772   2.430  0.00  0.00    -0.323 N 
ATOM      2  C   UNL     1      -0.559  -2.361   3.405  0.00  0.00    +0.212 A 
ATOM      3  C   UNL     1      -0.733  -3.161   4.633  0.00  0.00    +0.097 A 
ATOM      4  C   UNL     1      -1.095  -2.485   5.789  0.00  0.00    +0.030 A 
ATOM      5  C   UNL     1      -1.305  -1.085   5.708  0.00  0.00    +0.018 A 
ATOM      6  C   UNL     1      -1.474  -0.324   6.875  0.00  0.00    +0.015 A 
ATOM      7  C   UNL     1      -1.633   1.028   6.788  0.00  0.00    +0.046 A 
ATOM      8  C   UNL     1      -1.636   1.661   5.546  0.00  0.00    +0.120 A 
ATOM      9  C   UNL     1      -1.490   0.923   4.381  0.00  0.00    +0.092 A 
ATOM     10  C   UNL     1      -1.335  -0.451   4.451  0.00  0.00    +0.141 A 
ATOM     11  O   UNL     1      -1.231  -1.184   3.318  0.00  0.00    -0.438 OA
ATOM     12  H   UNL     1       0.628  -3.652   2.471  0.00  0.00    +0.169 HD
ENDROOT
BRANCH   1  18
ATOM     13  C   UNL     1       1.120   1.706   0.667  0.00  0.00    +0.044 C 
ATOM     14  C   UNL     1       0.906   0.229   0.463  0.00  0.00    -0.048 A 
ATOM     15  C   UNL     1       0.955  -0.306  -0.813  0.00  0.00    +0.006 A 
ATOM     16  C   UNL     1       0.760  -1.661  -1.011  0.00  0.00    +0.041 A 
ATOM     17  C   UNL     1       0.515  -2.491   0.066  0.00  0.00    +0.147 A 
ATOM     18  C   UNL     1       0.465  -1.957   1.358  0.00  0.00    +0.078 A 
ATOM     19  C   UNL     1       0.668  -0.588   1.548  0.00  0.00    +0.032 A 
ATOM     20  F   UNL     1       0.324  -3.814  -0.128  0.00  0.00    -0.203 F 
ENDBRANCH   1  18
BRANCH   3  21
ATOM     21  C   UNL     1      -0.531  -4.619   4.631  0.00  0.00    +0.247 C 
ATOM     22  O   UNL     1      -0.199  -5.186   3.607  0.00  0.00    -0.270 OA
ATOM     23  N   UNL     1      -0.713  -5.326   5.764  0.00  0.00    -0.325 N 
ATOM     24  H   UNL     1      -1.067  -4.891   6.555  0.00  0.00    +0.145 HD
ATOM     25  H   UNL     1      -0.489  -6.270   5.788  0.00  0.00    +0.145 HD
ENDBRANCH   3  21
BRANCH   8  26
ATOM     26  O   UNL     1      -1.784   3.008   5.477  0.00  0.00    -0.507 OA
ATOM     27  H   UNL     1      -0.950   3.497   5.505  0.00  0.00    +0.292 HD
ENDBRANCH   8  26
TORSDOF 3
