REMARK  Name = ZINC22683758
REMARK  12 active torsions:
REMARK  status: ('A' for Active; 'I' for Inactive)
REMARK    1  A    between atoms: C_1  and  N_2
REMARK    2  A    between atoms: N_2  and  C_3
REMARK    3  A    between atoms: N_2  and  C_4
REMARK    4  A    between atoms: C_4  and  C_6
REMARK    5  A    between atoms: C_4  and  C_24
REMARK    6  A    between atoms: C_6  and  N_7
REMARK    7  A    between atoms: C_8  and  C_10
REMARK    8  A    between atoms: C_10  and  C_11
REMARK    9  A    between atoms: C_11  and  C_12
REMARK   10  A    between atoms: C_15  and  C_17
REMARK   11  A    between atoms: C_28  and  O_30
REMARK   12  A    between atoms: O_30  and  C_31
REMARK                            x       y       z     vdW  Elec       q    Type
REMARK                         _______ _______ _______ _____ _____    ______ ____
ROOT
ATOM      1  N   UNL     1      -1.766   1.531  -1.169  0.00  0.00    -0.317 N 
ATOM      2  C   UNL     1      -2.260   2.263  -2.188  0.00  0.00    +0.213 C 
ATOM      3  O   UNL     1      -2.935   1.732  -3.045  0.00  0.00    -0.276 OA
ATOM      4  H   UNL     1      -1.227   1.956  -0.484  0.00  0.00    +0.149 HD
ENDROOT
BRANCH   1   5
ATOM      5  C   UNL     1      -2.044   0.095  -1.098  0.00  0.00    +0.093 C 
BRANCH   5   6
ATOM      6  C   UNL     1      -1.281  -0.514   0.081  0.00  0.00    -0.021 C 
BRANCH   6   7
ATOM      7  C   UNL     1      -1.799   0.070   1.370  0.00  0.00    -0.056 A 
ATOM      8  C   UNL     1      -2.968  -0.415   1.928  0.00  0.00    +0.002 A 
ATOM      9  C   UNL     1      -3.445   0.119   3.110  0.00  0.00    +0.004 A 
ATOM     10  C   UNL     1      -2.755   1.139   3.737  0.00  0.00    +0.045 A 
ATOM     11  C   UNL     1      -1.583   1.626   3.180  0.00  0.00    +0.120 A 
ATOM     12  C   UNL     1      -1.102   1.085   1.996  0.00  0.00    +0.047 A 
BRANCH  11  13
ATOM     13  O   UNL     1      -0.902   2.629   3.795  0.00  0.00    -0.495 OA
ATOM     14  C   UNL     1      -1.452   3.134   5.014  0.00  0.00    +0.277 C 
ENDBRANCH  11  13
ENDBRANCH   6   7
BRANCH   6  16
ATOM     15  C   UNL     1      -0.970  -2.540  -1.166  0.00  0.00    -0.096 C 
ATOM     16  N   UNL     1      -1.476  -1.970   0.090  0.00  0.00    +0.382 N 
ATOM     17  C   UNL     1      -0.745  -2.555   1.222  0.00  0.00    -0.096 C 
ATOM     18  H   UNL     1      -2.459  -2.178   0.181  0.00  0.00    -0.082 HD
ENDBRANCH   6  16
ENDBRANCH   5   6
ENDBRANCH   1   5
BRANCH   2  19
ATOM     19  C   UNL     1      -1.974   3.741  -2.262  0.00  0.00    +0.105 C 
BRANCH  19  20
ATOM     20  C   UNL     1      -2.646   4.329  -3.504  0.00  0.00    +0.103 C 
BRANCH  20  21
ATOM     21  C   UNL     1      -2.360   5.806  -3.578  0.00  0.00    +0.175 A 
ATOM     22  N   UNL     1      -1.343   6.351  -4.186  0.00  0.00    -0.333 N 
ATOM     23  C   UNL     1      -1.414   7.683  -4.044  0.00  0.00    +0.132 A 
ATOM     24  C   UNL     1      -2.526   7.957  -3.315  0.00  0.00    +0.153 A 
ATOM     25  O   UNL     1      -3.112   6.773  -3.034  0.00  0.00    -0.442 OA
ATOM     26  H   UNL     1      -0.649   5.871  -4.664  0.00  0.00    +0.168 HD
BRANCH  24  27
ATOM     27  C   UNL     1      -3.007   9.296  -2.910  0.00  0.00    +0.019 A 
ATOM     28  C   UNL     1      -2.297  10.438  -3.286  0.00  0.00    +0.013 A 
ATOM     29  C   UNL     1      -2.750  11.684  -2.905  0.00  0.00    +0.021 A 
ATOM     30  C   UNL     1      -3.906  11.803  -2.152  0.00  0.00    +0.041 A 
ATOM     31  C   UNL     1      -4.614  10.674  -1.777  0.00  0.00    +0.021 A 
ATOM     32  C   UNL     1      -4.174   9.422  -2.157  0.00  0.00    +0.013 A 
ATOM     33 CL   UNL     1      -4.470  13.374  -1.677  0.00  0.00    -0.084 Cl
ENDBRANCH  24  27
ENDBRANCH  20  21
ENDBRANCH  19  20
ENDBRANCH   2  19
TORSDOF 9
