REMARK  Name = ZINC19715555
REMARK  7 active torsions:
REMARK  status: ('A' for Active; 'I' for Inactive)
REMARK    1  A    between atoms: C_1  and  O_2
REMARK    2  A    between atoms: O_2  and  C_3
REMARK    3  A    between atoms: C_6  and  C_9
REMARK    4  A    between atoms: N_14  and  C_15
REMARK    5  A    between atoms: C_15  and  C_16
REMARK    6  A    between atoms: N_18  and  C_19
REMARK    7  A    between atoms: C_20  and  C_27
REMARK                            x       y       z     vdW  Elec       q    Type
REMARK                         _______ _______ _______ _____ _____    ______ ____
ROOT
ATOM      1  C   UNL     1      -0.015   1.210   0.018  0.00  0.00    +0.201 C 
ATOM      2  O   UNL     1       0.002  -0.003   0.022  0.00  0.00    -0.278 OA
ATOM      3  N   UNL     1       1.143   1.899   0.012  0.00  0.00    -0.281 N 
ATOM      4  H   UNL     1       1.128   2.999   0.008  0.00  0.00    +0.155 HD
ENDROOT
BRANCH   3   5
ATOM      5  C   UNL     1       2.353   1.223   0.010  0.00  0.00    +0.084 A 
ATOM      6  C   UNL     1       3.633   1.749   0.003  0.00  0.00    +0.068 A 
ATOM      7  C   UNL     1       4.753   0.808   0.004  0.00  0.00    -0.023 A 
ATOM      8  C   UNL     1       4.406  -0.491   0.008  0.00  0.00    -0.004 A 
ATOM      9  S   UNL     1       2.630  -0.486   0.022  0.00  0.00    -0.077 S 
ATOM     10  C   UNL     1       5.609  -1.396   0.004  0.00  0.00    +0.043 C 
ATOM     11  C   UNL     1       6.778  -0.488  -0.438  0.00  0.00    +0.010 C 
ATOM     12  C   UNL     1       6.279   0.903   0.003  0.00  0.00    +0.037 C 
BRANCH   6  13
ATOM     13  C   UNL     1       3.859   3.198  -0.004  0.00  0.00    +0.244 C 
ATOM     14  O   UNL     1       3.956   3.804   1.047  0.00  0.00    -0.270 OA
ATOM     15  N   UNL     1       3.958   3.859  -1.175  0.00  0.00    -0.325 N 
ATOM     16  H   UNL     1       4.127   4.946  -1.180  0.00  0.00    +0.145 HD
ATOM     17  H   UNL     1       3.870   3.311  -2.124  0.00  0.00    +0.145 HD
ENDBRANCH   6  13
ENDBRANCH   3   5
BRANCH   1  18
ATOM     18  C   UNL     1      -1.330   1.945   0.015  0.00  0.00    +0.020 C 
BRANCH  18  23
ATOM     19  C   UNL     1      -3.706   1.623   0.385  0.00  0.00    -0.037 C 
ATOM     20  C   UNL     1      -4.701   1.362  -0.765  0.00  0.00    -0.013 C 
ATOM     21  C   UNL     1      -4.114   0.104  -1.457  0.00  0.00    -0.020 C 
ATOM     22  C   UNL     1      -2.591   0.350  -1.314  0.00  0.00    -0.077 C 
ATOM     23  N   UNL     1      -2.434   0.975   0.016  0.00  0.00    +0.390 N 
ATOM     24  H   UNL     1      -2.181   0.207   0.762  0.00  0.00    -0.080 HD
BRANCH  19  28
ATOM     25  C   UNL     1      -3.111   5.827   0.867  0.00  0.00    +0.120 A 
ATOM     26  C   UNL     1      -2.942   5.240  -0.378  0.00  0.00    +0.046 A 
ATOM     27  C   UNL     1      -3.134   3.880  -0.531  0.00  0.00    +0.005 A 
ATOM     28  C   UNL     1      -3.496   3.105   0.555  0.00  0.00    -0.061 A 
ATOM     29  C   UNL     1      -3.671   3.689   1.796  0.00  0.00    +0.005 A 
ATOM     30  C   UNL     1      -3.474   5.047   1.956  0.00  0.00    +0.046 A 
BRANCH  25  32
ATOM     31  C   UNL     1      -3.115   7.700   2.331  0.00  0.00    +0.277 C 
ATOM     32  O   UNL     1      -2.923   7.164   1.020  0.00  0.00    -0.495 OA
ENDBRANCH  25  32
ENDBRANCH  19  28
ENDBRANCH  18  23
ENDBRANCH   1  18
TORSDOF 6
