REMARK  Name = ZINC14271567
REMARK  10 active torsions:
REMARK  status: ('A' for Active; 'I' for Inactive)
REMARK    1  A    between atoms: C_1  and  C_2
REMARK    2  A    between atoms: C_2  and  C_3
REMARK    3  A    between atoms: C_2  and  C_4
REMARK    4  A    between atoms: C_2  and  C_5
REMARK    5  A    between atoms: C_12  and  N_17
REMARK    6  A    between atoms: C_13  and  C_14
REMARK    7  A    between atoms: N_17  and  C_18
REMARK    8  A    between atoms: C_18  and  N_20
REMARK    9  A    between atoms: C_21  and  C_23
REMARK   10  A    between atoms: C_28  and  N_29
REMARK                            x       y       z     vdW  Elec       q    Type
REMARK                         _______ _______ _______ _____ _____    ______ ____
ROOT
ATOM      1  C   UNL     1      -5.191   0.846  -3.412  0.00  0.00    -0.000 C 
ATOM      2  C   UNL     1      -3.674   0.851  -3.621  0.00  0.00    +0.009 C 
ATOM      3  C   UNL     1      -3.004   1.711  -2.548  0.00  0.00    +0.037 C 
ATOM      4  C   UNL     1      -3.483   1.247  -1.178  0.00  0.00    -0.023 A 
ATOM      5  C   UNL     1      -4.605   0.506  -1.048  0.00  0.00    -0.004 A 
ATOM      6  S   UNL     1      -4.754   0.213   0.692  0.00  0.00    -0.077 S 
ATOM      7  C   UNL     1      -3.344   1.058   1.240  0.00  0.00    +0.084 A 
ATOM      8  C   UNL     1      -2.796   1.553   0.065  0.00  0.00    +0.068 A 
ATOM      9  C   UNL     1      -5.513   0.042  -2.144  0.00  0.00    +0.046 C 
ENDROOT
BRANCH   8  10
ATOM     10  C   UNL     1      -1.565   2.349   0.077  0.00  0.00    +0.244 C 
ATOM     11  O   UNL     1      -1.625   3.561   0.181  0.00  0.00    -0.270 OA
ATOM     12  N   UNL     1      -0.367   1.741  -0.028  0.00  0.00    -0.325 N 
ATOM     13  H   UNL     1      -0.319   0.775  -0.111  0.00  0.00    +0.145 HD
ATOM     14  H   UNL     1       0.447   2.268  -0.024  0.00  0.00    +0.145 HD
ENDBRANCH   8  10
BRANCH   1  16
ATOM     15  C   UNL     1      -5.376  -1.242  -4.771  0.00  0.00    +0.011 C 
ATOM     16  C   UNL     1      -5.873   0.197  -4.618  0.00  0.00    -0.035 C 
ATOM     17  C   UNL     1      -7.388   0.193  -4.406  0.00  0.00    +0.011 C 
ATOM     18  C   UNL     1      -5.537   0.990  -5.882  0.00  0.00    +0.011 C 
ENDBRANCH   1  16
BRANCH   7  19
ATOM     19  N   UNL     1      -2.878   1.205   2.537  0.00  0.00    -0.291 N 
ATOM     20  H   UNL     1      -2.067   1.710   2.706  0.00  0.00    +0.154 HD
BRANCH  19  21
ATOM     21  C   UNL     1      -3.551   0.647   3.562  0.00  0.00    +0.141 C 
ATOM     22  S   UNL     1      -4.982  -0.244   3.263  0.00  0.00    -0.018 S 
BRANCH  21  23
ATOM     23  N   UNL     1      -3.098   0.790   4.823  0.00  0.00    -0.263 N 
ATOM     24  C   UNL     1      -3.772   0.232   5.849  0.00  0.00    +0.252 C 
ATOM     25  O   UNL     1      -4.787  -0.400   5.636  0.00  0.00    -0.270 OA
ATOM     26  H   UNL     1      -2.288   1.295   4.993  0.00  0.00    +0.157 HD
BRANCH  24  27
ATOM     27  C   UNL     1      -3.275   0.389   7.231  0.00  0.00    +0.067 A 
ATOM     28  C   UNL     1      -2.040   0.997   7.468  0.00  0.00    +0.015 A 
ATOM     29  C   UNL     1      -1.582   1.140   8.761  0.00  0.00    +0.001 A 
ATOM     30  C   UNL     1      -2.344   0.683   9.823  0.00  0.00    +0.002 A 
ATOM     31  C   UNL     1      -3.568   0.080   9.595  0.00  0.00    +0.033 A 
ATOM     32  C   UNL     1      -4.040  -0.064   8.307  0.00  0.00    +0.138 A 
BRANCH  32  33
ATOM     33  N   UNL     1      -5.353  -0.704   8.066  0.00  0.00    +0.057 N 
ATOM     34  O   UNL     1      -6.177  -0.155   7.357  0.00  0.00    -0.126 OA
ATOM     35  O   UNL     1      -5.609  -1.780   8.576  0.00  0.00    -0.126 OA
ENDBRANCH  32  33
ENDBRANCH  24  27
ENDBRANCH  21  23
ENDBRANCH  19  21
ENDBRANCH   7  19
TORSDOF 7
