REMARK  Name = ZINC35368316
REMARK  3 active torsions:
REMARK  status: ('A' for Active; 'I' for Inactive)
REMARK    1  A    between atoms: C_3  and  C_6
REMARK    2  A    between atoms: N_11  and  C_14
REMARK    3  A    between atoms: C_19  and  N_20
REMARK                            x       y       z     vdW  Elec       q    Type
REMARK                         _______ _______ _______ _____ _____    ______ ____
ROOT
ATOM      1  C   UNL     1       3.725   1.670  -0.025  0.00  0.00    +0.253 C 
ATOM      2  O   UNL     1       4.009   2.848  -0.140  0.00  0.00    -0.269 OA
ATOM      3  N   UNL     1       4.702   0.747   0.063  0.00  0.00    -0.294 N 
ATOM      4  C   UNL     1       4.380  -0.687   0.054  0.00  0.00    +0.127 C 
ATOM      5  C   UNL     1       5.172  -1.360  -1.074  0.00  0.00    +0.124 C 
ATOM      6  N   UNL     1       6.580  -0.952  -0.969  0.00  0.00    -0.325 N 
ATOM      7  C   UNL     1       6.902   0.482  -0.959  0.00  0.00    +0.124 C 
ATOM      8  C   UNL     1       6.111   1.155   0.163  0.00  0.00    +0.127 C 
ENDROOT
BRANCH   6   9
ATOM      9  C   UNL     1       7.592  -1.907  -0.878  0.00  0.00    +0.054 A 
ATOM     10  C   UNL     1       8.208  -2.406  -2.022  0.00  0.00    +0.042 A 
ATOM     11  C   UNL     1       9.206  -3.351  -1.891  0.00  0.00    +0.084 A 
ATOM     12  N   UNL     1       9.580  -3.783  -0.702  0.00  0.00    -0.365 N 
ATOM     13  C   UNL     1       9.023  -3.338   0.409  0.00  0.00    +0.107 A 
ATOM     14  C   UNL     1       8.019  -2.386   0.366  0.00  0.00    +0.062 A 
ATOM     15  H   UNL     1      10.284  -4.448  -0.643  0.00  0.00    +0.165 HD
BRANCH  14  16
ATOM     16  N   UNL     1       7.436  -1.912   1.549  0.00  0.00    -0.355 N 
ATOM     17  H   UNL     1       6.731  -1.248   1.510  0.00  0.00    +0.142 HD
ATOM     18  H   UNL     1       7.738  -2.249   2.407  0.00  0.00    +0.142 HD
ENDBRANCH  14  16
ENDBRANCH   6   9
BRANCH   1  21
ATOM     19  C   UNL     1      -0.000   1.270  -0.274  0.00  0.00    +0.008 A 
ATOM     20  C   UNL     1       1.199   1.914  -0.464  0.00  0.00    +0.021 A 
ATOM     21  C   UNL     1       2.319   1.256   0.019  0.00  0.00    +0.074 A 
ATOM     22  S   UNL     1       1.605  -0.226   0.706  0.00  0.00    -0.092 S 
ATOM     23  C   UNL     1      -0.010   0.068   0.353  0.00  0.00    +0.046 A 
ENDBRANCH   1  21
TORSDOF 3
