REMARK  Name = ZINC19672970
REMARK  5 active torsions:
REMARK  status: ('A' for Active; 'I' for Inactive)
REMARK    1  A    between atoms: C_3  and  C_6
REMARK    2  A    between atoms: C_6  and  N_7
REMARK    3  A    between atoms: C_8  and  S_10
REMARK    4  A    between atoms: S_10  and  C_11
REMARK    5  A    between atoms: C_11  and  C_12
REMARK                            x       y       z     vdW  Elec       q    Type
REMARK                         _______ _______ _______ _____ _____    ______ ____
ROOT
ATOM      1  C   UNL     1       7.792   0.512   3.037  0.00  0.00    +0.113 C 
ENDROOT
BRANCH   1   2
ATOM      2  C   UNL     1       8.441   0.491   4.397  0.00  0.00    -0.020 A 
ATOM      3  C   UNL     1       8.992  -0.648   4.888  0.00  0.00    +0.097 A 
ATOM      4  C   UNL     1       9.593  -0.642   6.165  0.00  0.00    +0.338 A 
ATOM      5  O   UNL     1      10.084  -1.670   6.595  0.00  0.00    -0.245 OA
ATOM      6  O   UNL     1       9.638   0.468   6.918  0.00  0.00    -0.422 OA
ATOM      7  C   UNL     1       9.110   1.634   6.488  0.00  0.00    +0.140 A 
ATOM      8  C   UNL     1       8.499   1.701   5.223  0.00  0.00    +0.022 A 
ATOM      9  C   UNL     1       7.956   2.907   4.775  0.00  0.00    +0.015 A 
ATOM     10  C   UNL     1       8.026   4.030   5.573  0.00  0.00    -0.043 A 
ATOM     11  C   UNL     1       8.634   3.965   6.819  0.00  0.00    -0.041 A 
ATOM     12  C   UNL     1       9.166   2.774   7.276  0.00  0.00    +0.051 A 
ATOM     13  C   UNL     1       8.576   5.325   7.484  0.00  0.00    +0.036 C 
ATOM     14  C   UNL     1       8.268   6.320   6.346  0.00  0.00    +0.009 C 
ATOM     15  C   UNL     1       7.522   5.436   5.324  0.00  0.00    +0.036 C 
ENDBRANCH   1   2
BRANCH   1  16
ATOM     16  S   UNL     1       5.988   0.553   3.228  0.00  0.00    -0.088 S 
BRANCH  16  18
ATOM     17  N   UNL     1       4.101   0.607   1.347  0.00  0.00    -0.361 N 
ATOM     18  C   UNL     1       5.385   0.576   1.572  0.00  0.00    +0.126 C 
ATOM     19  N   UNL     1       6.268   0.560   0.518  0.00  0.00    -0.339 N 
ATOM     20  H   UNL     1       5.936   0.572  -0.393  0.00  0.00    +0.144 HD
ATOM     21  H   UNL     1       7.223   0.537   0.686  0.00  0.00    +0.144 HD
ATOM     22  H   UNL     1       3.478   0.617   2.090  0.00  0.00    +0.162 HD
BRANCH  17  23
ATOM     23  C   UNL     1       3.599   0.625  -0.029  0.00  0.00    +0.189 C 
BRANCH  23  26
ATOM     24  C   UNL     1      -0.016   1.341   0.009  0.00  0.00    +0.041 A 
ATOM     25  C   UNL     1       1.331   1.769  -0.001  0.00  0.00    +0.046 A 
ATOM     26  C   UNL     1       2.092   0.660  -0.014  0.00  0.00    +0.124 A 
ATOM     27  O   UNL     1       1.282  -0.411  -0.012  0.00  0.00    -0.466 OA
ATOM     28  C   UNL     1       0.002  -0.004   0.002  0.00  0.00    +0.195 A 
ENDBRANCH  23  26
ENDBRANCH  17  23
ENDBRANCH  16  18
ENDBRANCH   1  16
TORSDOF 5
