REMARK  Name = ZINC20504512
REMARK  13 active torsions:
REMARK  status: ('A' for Active; 'I' for Inactive)
REMARK    1  A    between atoms: C_1  and  C_2
REMARK    2  A    between atoms: C_2  and  C_3
REMARK    3  A    between atoms: C_3  and  C_4
REMARK    4  A    between atoms: C_4  and  N_5
REMARK    5  A    between atoms: C_12  and  C_39
REMARK    6  A    between atoms: C_15  and  C_25
REMARK    7  A    between atoms: C_17  and  O_24
REMARK    8  A    between atoms: C_21  and  C_23
REMARK    9  A    between atoms: C_25  and  C_27
REMARK   10  A    between atoms: C_25  and  C_28
REMARK   11  A    between atoms: N_30  and  C_31
REMARK   12  A    between atoms: C_31  and  C_32
REMARK   13  A    between atoms: C_32  and  N_33
REMARK                            x       y       z     vdW  Elec       q    Type
REMARK                         _______ _______ _______ _____ _____    ______ ____
ROOT
ATOM      1  N   UNL     1       1.452   0.932   4.618  0.00  0.00    -0.325 N 
ATOM      2  C   UNL     1       0.903   1.507   3.483  0.00  0.00    +0.136 A 
ATOM      3  N   UNL     1       0.882   1.046   2.249  0.00  0.00    -0.340 N 
ATOM      4  C   UNL     1       0.310   1.719   1.250  0.00  0.00    +0.031 A 
ATOM      5  C   UNL     1      -0.253   2.908   1.580  0.00  0.00    +0.013 A 
ATOM      6  S   UNL     1       0.063   3.020   3.321  0.00  0.00    -0.059 S 
ATOM      7  C   UNL     1      -0.956   3.862   0.680  0.00  0.00    +0.051 C 
ATOM      8  C   UNL     1      -0.657   3.486  -0.784  0.00  0.00    -0.022 C 
ATOM      9  C   UNL     1      -1.654   4.237  -1.671  0.00  0.00    +0.008 C 
ATOM     10  C   UNL     1      -1.463   3.846  -3.135  0.00  0.00    +0.007 C 
ATOM     11  C   UNL     1      -1.711   2.341  -3.278  0.00  0.00    +0.029 C 
ATOM     12  C   UNL     1      -0.702   1.593  -2.433  0.00  0.00    +0.123 C 
ATOM     13  C   UNL     1      -0.831   1.975  -0.955  0.00  0.00    +0.033 C 
ATOM     14  C   UNL     1       0.267   1.226  -0.188  0.00  0.00    +0.039 C 
ATOM     15  C   UNL     1      -0.033  -0.274  -0.204  0.00  0.00    +0.014 C 
ATOM     16  C   UNL     1       0.773   3.891  -1.146  0.00  0.00    +0.012 C 
ATOM     17  H   UNL     1       1.956  -0.043   4.552  0.00  0.00    +0.148 HD
ATOM     18  H   UNL     1       1.347   0.077   2.015  0.00  0.00    +0.167 HD
ENDROOT
BRANCH  12  19
ATOM     19  O   UNL     1      -0.906   0.186  -2.577  0.00  0.00    -0.391 OA
ATOM     20  H   UNL     1      -0.263  -0.522  -2.034  0.00  0.00    +0.210 HD
ENDBRANCH  12  19
BRANCH  11  21
ATOM     21  C   UNL     1      -1.560   1.934  -4.745  0.00  0.00    +0.077 C 
ATOM     22  C   UNL     1      -0.198   2.398  -5.266  0.00  0.00    +0.017 C 
BRANCH  21  23
ATOM     23  C   UNL     1      -2.654   2.575  -5.560  0.00  0.00    +0.216 C 
ATOM     24  O   UNL     1      -3.477   3.283  -5.019  0.00  0.00    -0.276 OA
ATOM     25  N   UNL     1      -2.719   2.360  -6.889  0.00  0.00    -0.314 N 
ATOM     26  H   UNL     1      -1.973   1.717  -7.379  0.00  0.00    +0.149 HD
BRANCH  25  27
ATOM     27  C   UNL     1      -3.783   2.983  -7.680  0.00  0.00    +0.119 C 
BRANCH  27  28
ATOM     28  C   UNL     1      -3.628   2.580  -9.148  0.00  0.00    +0.103 C 
BRANCH  28  29
ATOM     29  N   UNL     1      -4.695   3.205  -9.942  0.00  0.00    -0.297 NA
ATOM     30  C   UNL     1      -6.012   2.663  -9.575  0.00  0.00    +0.112 C 
ATOM     31  C   UNL     1      -7.096   3.382 -10.381  0.00  0.00    +0.175 C 
ATOM     32  O   UNL     1      -6.822   3.236 -11.777  0.00  0.00    -0.377 OA
ATOM     33  C   UNL     1      -5.548   3.753 -12.170  0.00  0.00    +0.175 C 
ATOM     34  C   UNL     1      -4.447   3.038 -11.382  0.00  0.00    +0.112 C 
ENDBRANCH  28  29
ENDBRANCH  27  28
ENDBRANCH  25  27
ENDBRANCH  21  23
ENDBRANCH  11  21
BRANCH   1  35
ATOM     35  C   UNL     1       1.362   1.625   5.906  0.00  0.00    +0.103 C 
BRANCH  35  36
ATOM     36  C   UNL     1       2.043   0.782   6.987  0.00  0.00    +0.018 C 
BRANCH  36  38
ATOM     37  C   UNL     1       2.629   0.662   9.413  0.00  0.00    +0.004 C 
ATOM     38  C   UNL     1       1.948   1.505   8.332  0.00  0.00    -0.002 C 
ENDBRANCH  36  38
ENDBRANCH  35  36
ENDBRANCH   1  35
TORSDOF 9
