REMARK  Name = ZINC21187890
REMARK  13 active torsions:
REMARK  status: ('A' for Active; 'I' for Inactive)
REMARK    1  A    between atoms: C_1  and  C_2
REMARK    2  A    between atoms: C_2  and  O_3
REMARK    3  A    between atoms: O_3  and  C_4
REMARK    4  A    between atoms: C_6  and  C_16
REMARK    5  A    between atoms: C_9  and  O_10
REMARK    6  A    between atoms: O_10  and  C_11
REMARK    7  A    between atoms: C_11  and  C_12
REMARK    8  A    between atoms: N_17  and  N_18
REMARK    9  A    between atoms: N_18  and  C_19
REMARK   10  A    between atoms: C_19  and  N_21
REMARK   11  A    between atoms: N_21  and  C_22
REMARK   12  A    between atoms: C_23  and  C_29
REMARK   13  A    between atoms: C_27  and  C_28
REMARK                            x       y       z     vdW  Elec       q    Type
REMARK                         _______ _______ _______ _____ _____    ______ ____
ROOT
ATOM      1  C   UNL     1       2.832   1.187   2.720  0.00  0.00    +0.164 A 
ATOM      2  C   UNL     1       2.514   1.168   4.066  0.00  0.00    +0.059 A 
ATOM      3  C   UNL     1       2.067  -0.016   4.658  0.00  0.00    -0.001 A 
ATOM      4  C   UNL     1       1.944  -1.175   3.888  0.00  0.00    +0.028 A 
ATOM      5  C   UNL     1       2.257  -1.147   2.545  0.00  0.00    +0.064 A 
ATOM      6  C   UNL     1       2.706   0.028   1.958  0.00  0.00    +0.177 A 
ATOM      7 BR   UNL     1       2.082  -2.715   1.502  0.00  0.00    -0.046 Br
ENDROOT
BRANCH   3   8
ATOM      8  C   UNL     1       1.727  -0.042   6.092  0.00  0.00    +0.138 C 
ATOM      9  N   UNL     1       1.312  -1.143   6.641  0.00  0.00    -0.188 NA
BRANCH   9  10
ATOM     10  N   UNL     1       0.988  -1.168   8.004  0.00  0.00    -0.218 N 
ATOM     11  H   UNL     1       1.085  -0.254   8.609  0.00  0.00    +0.176 HD
BRANCH  10  12
ATOM     12  C   UNL     1       0.557  -2.311   8.574  0.00  0.00    +0.154 C 
ATOM     13  S   UNL     1       0.162  -2.341  10.239  0.00  0.00    -0.017 S 
BRANCH  12  14
ATOM     14  N   UNL     1       0.438  -3.430   7.832  0.00  0.00    -0.295 N 
ATOM     15  H   UNL     1       0.639  -3.398   6.751  0.00  0.00    +0.154 HD
BRANCH  14  16
ATOM     16  C   UNL     1       0.059  -4.632   8.438  0.00  0.00    +0.039 A 
ATOM     17  C   UNL     1      -1.040  -5.335   7.960  0.00  0.00    -0.029 A 
ATOM     18  C   UNL     1      -1.409  -6.525   8.556  0.00  0.00    +0.005 A 
ATOM     19  C   UNL     1      -0.692  -7.011   9.635  0.00  0.00    +0.001 A 
ATOM     20  C   UNL     1       0.399  -6.311  10.116  0.00  0.00    +0.005 A 
ATOM     21  C   UNL     1       0.776  -5.123   9.521  0.00  0.00    -0.029 A 
ATOM     22  C   UNL     1       1.965  -4.360  10.046  0.00  0.00    +0.045 C 
ATOM     23  C   UNL     1      -1.825  -4.804   6.789  0.00  0.00    +0.045 C 
ENDBRANCH  14  16
ENDBRANCH  12  14
ENDBRANCH  10  12
ENDBRANCH   9  10
ENDBRANCH   3   8
BRANCH   1  24
ATOM     24  O   UNL     1       3.267   2.338   2.141  0.00  0.00    -0.489 OA
BRANCH  24  26
ATOM     25  C   UNL     1       3.873   4.677   2.160  0.00  0.00    +0.048 C 
ATOM     26  C   UNL     1       3.372   3.488   2.982  0.00  0.00    +0.226 C 
ENDBRANCH  24  26
ENDBRANCH   1  24
BRANCH   6  27
ATOM     27  O   UNL     1       3.019   0.049   0.635  0.00  0.00    -0.478 OA
BRANCH  27  28
ATOM     28  C   UNL     1       4.370  -0.254   0.283  0.00  0.00    +0.324 C 
BRANCH  28  29
ATOM     29  C   UNL     1       4.527  -0.182  -1.214  0.00  0.00    +0.248 C 
ATOM     30  O   UNL     1       3.576   0.101  -1.911  0.00  0.00    -0.272 OA
ATOM     31  N   UNL     1       5.725  -0.433  -1.779  0.00  0.00    -0.327 N 
ATOM     32  H   UNL     1       5.840  -0.380  -2.871  0.00  0.00    +0.145 HD
ATOM     33  H   UNL     1       6.588  -0.690  -1.147  0.00  0.00    +0.145 HD
ENDBRANCH  28  29
ENDBRANCH  27  28
ENDBRANCH   6  27
TORSDOF 10
