REMARK  Name = ZINC59015780
REMARK  6 active torsions:
REMARK  status: ('A' for Active; 'I' for Inactive)
REMARK    1  A    between atoms: C_3  and  C_9
REMARK    2  A    between atoms: N_10  and  N_11
REMARK    3  A    between atoms: C_14  and  S_17
REMARK    4  A    between atoms: S_17  and  C_18
REMARK    5  A    between atoms: C_18  and  C_19
REMARK    6  A    between atoms: N_21  and  C_22
REMARK                            x       y       z     vdW  Elec       q    Type
REMARK                         _______ _______ _______ _____ _____    ______ ____
ROOT
ATOM      1  N   UNL     1       5.991   2.243  -0.069  0.00  0.00    -0.205 N 
ATOM      2  C   UNL     1       7.197   1.566  -0.081  0.00  0.00    +0.232 A 
ATOM      3  N   UNL     1       7.350   0.258  -0.086  0.00  0.00    -0.186 NA
ATOM      4  C   UNL     1       8.653  -0.042  -0.099  0.00  0.00    +0.211 A 
ATOM      5  N   UNL     1       9.347   1.072  -0.102  0.00  0.00    -0.144 NA
ATOM      6  N   UNL     1       8.423   2.129  -0.097  0.00  0.00    -0.245 N 
ATOM      7  H   UNL     1       5.979   3.212  -0.071  0.00  0.00    +0.177 HD
ATOM      8  H   UNL     1       8.626   3.078  -0.101  0.00  0.00    +0.192 HD
ENDROOT
BRANCH   1  10
ATOM      9  C   UNL     1       3.654   2.163  -0.043  0.00  0.00    +0.139 C 
ATOM     10  N   UNL     1       4.786   1.528  -0.054  0.00  0.00    -0.188 NA
BRANCH   9  13
ATOM     11  C   UNL     1      -0.016   1.381   0.000  0.00  0.00    +0.002 A 
ATOM     12  C   UNL     1       1.167   2.091  -0.014  0.00  0.00    +0.011 A 
ATOM     13  C   UNL     1       2.386   1.410  -0.026  0.00  0.00    +0.014 A 
ATOM     14  C   UNL     1       2.399   0.012  -0.024  0.00  0.00    +0.068 A 
ATOM     15  C   UNL     1       1.207  -0.685  -0.009  0.00  0.00    +0.060 A 
ATOM     16  C   UNL     1       0.002  -0.002   0.003  0.00  0.00    +0.021 A 
ATOM     17 CL   UNL     1       1.219  -2.421  -0.006  0.00  0.00    -0.082 Cl
ATOM     18 CL   UNL     1       3.909  -0.844  -0.040  0.00  0.00    -0.081 Cl
ENDBRANCH   9  13
ENDBRANCH   1  10
BRANCH   4  19
ATOM     19  S   UNL     1       9.329  -1.669  -0.108  0.00  0.00    -0.075 S 
BRANCH  19  20
ATOM     20  C   UNL     1      11.123  -1.399  -0.124  0.00  0.00    +0.173 C 
BRANCH  20  21
ATOM     21  C   UNL     1      11.831  -2.729  -0.134  0.00  0.00    +0.227 C 
ATOM     22  O   UNL     1      11.189  -3.758  -0.130  0.00  0.00    -0.275 OA
ATOM     23  N   UNL     1      13.178  -2.775  -0.146  0.00  0.00    -0.285 N 
ATOM     24  H   UNL     1      13.691  -1.955  -0.217  0.00  0.00    +0.155 HD
BRANCH  23  25
ATOM     25  C   UNL     1      13.837  -4.006  -0.057  0.00  0.00    +0.036 A 
ATOM     26  C   UNL     1      15.037  -4.105   0.634  0.00  0.00    +0.043 A 
ATOM     27  C   UNL     1      15.686  -5.322   0.721  0.00  0.00    +0.044 A 
ATOM     28  C   UNL     1      15.139  -6.443   0.120  0.00  0.00    +0.040 A 
ATOM     29  C   UNL     1      13.944  -6.348  -0.570  0.00  0.00    +0.044 A 
ATOM     30  C   UNL     1      13.288  -5.133  -0.655  0.00  0.00    +0.043 A 
ATOM     31 CL   UNL     1      13.262  -7.756  -1.323  0.00  0.00    -0.083 Cl
ATOM     32 CL   UNL     1      17.187  -5.446   1.584  0.00  0.00    -0.083 Cl
ENDBRANCH  23  25
ENDBRANCH  20  21
ENDBRANCH  19  20
ENDBRANCH   4  19
TORSDOF 6
