REMARK  Name = ZINC23339221
REMARK  9 active torsions:
REMARK  status: ('A' for Active; 'I' for Inactive)
REMARK    1  A    between atoms: C_1  and  N_2
REMARK    2  A    between atoms: N_5  and  C_8
REMARK    3  A    between atoms: C_8  and  C_9
REMARK    4  A    between atoms: C_11  and  C_32
REMARK    5  A    between atoms: C_14  and  O_15
REMARK    6  A    between atoms: O_15  and  C_16
REMARK    7  A    between atoms: C_16  and  C_17
REMARK    8  A    between atoms: N_19  and  C_20
REMARK    9  A    between atoms: C_20  and  C_21
REMARK                            x       y       z     vdW  Elec       q    Type
REMARK                         _______ _______ _______ _____ _____    ______ ____
ROOT
ATOM      1  C   UNL     1      -7.313   8.141  -1.292  0.00  0.00    +0.009 A 
ATOM      2  C   UNL     1      -7.544   9.336  -1.942  0.00  0.00    +0.017 A 
ATOM      3  C   UNL     1      -6.657   9.777  -2.921  0.00  0.00    -0.017 A 
ATOM      4  C   UNL     1      -5.538   9.010  -3.241  0.00  0.00    +0.012 A 
ATOM      5  C   UNL     1      -5.309   7.819  -2.584  0.00  0.00    +0.046 A 
ATOM      6  C   UNL     1      -6.198   7.379  -1.613  0.00  0.00    +0.126 A 
ENDROOT
BRANCH   3   7
ATOM      7  C   UNL     1      -6.902  11.062  -3.622  0.00  0.00    -0.018 A 
ATOM      8  C   UNL     1      -8.024  11.827  -3.307  0.00  0.00    +0.011 A 
ATOM      9  C   UNL     1      -8.245  13.024  -3.957  0.00  0.00    +0.039 A 
ATOM     10  C   UNL     1      -7.360  13.459  -4.930  0.00  0.00    +0.123 A 
ATOM     11  C   UNL     1      -6.247  12.699  -5.251  0.00  0.00    +0.039 A 
ATOM     12  C   UNL     1      -6.015  11.504  -4.602  0.00  0.00    +0.011 A 
ATOM     13  F   UNL     1      -7.584  14.629  -5.568  0.00  0.00    -0.205 F 
ENDBRANCH   3   7
BRANCH   1  14
ATOM     14  C   UNL     1      -8.272   7.663  -0.232  0.00  0.00    +0.123 C 
BRANCH  14  19
ATOM     15  C   UNL     1      -6.383   7.671   5.091  0.00  0.00    -0.096 C 
ATOM     16  N   UNL     1      -6.929   7.364   3.762  0.00  0.00    +0.379 N 
ATOM     17  C   UNL     1      -8.149   8.142   3.502  0.00  0.00    -0.064 C 
ATOM     18  C   UNL     1      -8.729   7.737   2.145  0.00  0.00    +0.066 C 
ATOM     19  N   UNL     1      -7.726   7.970   1.097  0.00  0.00    -0.302 NA
ATOM     20  C   UNL     1      -6.506   7.192   1.357  0.00  0.00    +0.066 C 
ATOM     21  C   UNL     1      -5.926   7.597   2.714  0.00  0.00    -0.064 C 
ATOM     22  H   UNL     1      -7.196   6.298   3.745  0.00  0.00    -0.082 HD
ENDBRANCH  14  19
ENDBRANCH   1  14
BRANCH   6  23
ATOM     23  O   UNL     1      -5.973   6.203  -0.970  0.00  0.00    -0.482 OA
BRANCH  23  24
ATOM     24  C   UNL     1      -4.806   5.470  -1.349  0.00  0.00    +0.324 C 
BRANCH  24  25
ATOM     25  C   UNL     1      -4.723   4.204  -0.537  0.00  0.00    +0.251 C 
ATOM     26  O   UNL     1      -5.578   3.954   0.286  0.00  0.00    -0.272 OA
ATOM     27  N   UNL     1      -3.698   3.349  -0.724  0.00  0.00    -0.309 N 
ATOM     28  H   UNL     1      -2.922   3.576  -1.471  0.00  0.00    +0.149 HD
BRANCH  27  29
ATOM     29  C   UNL     1      -3.617   2.118   0.066  0.00  0.00    +0.152 C 
BRANCH  29  30
ATOM     30  C   UNL     1      -2.368   1.333  -0.341  0.00  0.00    +0.228 C 
ATOM     31  C   UNL     1      -2.343  -0.015   0.393  0.00  0.00    +0.275 C 
ATOM     32  O   UNL     1      -1.158  -0.716   0.002  0.00  0.00    -0.485 OA
ATOM     33  C   UNL     1       0.002  -0.004   0.002  0.00  0.00    +0.162 A 
ATOM     34  C   UNL     1       1.215  -0.677  -0.009  0.00  0.00    +0.049 A 
ATOM     35  C   UNL     1       2.401   0.032  -0.015  0.00  0.00    +0.004 A 
ATOM     36  C   UNL     1       2.382   1.414  -0.011  0.00  0.00    +0.004 A 
ATOM     37  C   UNL     1       1.177   2.091   0.002  0.00  0.00    +0.049 A 
ATOM     38  C   UNL     1      -0.017   1.385   0.010  0.00  0.00    +0.163 A 
ATOM     39  O   UNL     1      -1.195   2.066   0.030  0.00  0.00    -0.480 OA
ENDBRANCH  29  30
ENDBRANCH  27  29
ENDBRANCH  24  25
ENDBRANCH  23  24
ENDBRANCH   6  23
TORSDOF 8
