REMARK  Name = ZINC36301777
REMARK  13 active torsions:
REMARK  status: ('A' for Active; 'I' for Inactive)
REMARK    1  A    between atoms: C_1  and  C_2
REMARK    2  A    between atoms: C_2  and  C_3
REMARK    3  A    between atoms: C_3  and  C_4
REMARK    4  A    between atoms: C_4  and  C_6
REMARK    5  A    between atoms: C_4  and  O_32
REMARK    6  A    between atoms: C_6  and  N_7
REMARK    7  A    between atoms: N_7  and  C_8
REMARK    8  A    between atoms: N_7  and  C_29
REMARK    9  A    between atoms: C_8  and  C_9
REMARK   10  A    between atoms: C_10  and  C_28
REMARK   11  A    between atoms: N_12  and  C_21
REMARK   12  A    between atoms: C_13  and  O_14
REMARK   13  A    between atoms: O_14  and  C_15
REMARK                            x       y       z     vdW  Elec       q    Type
REMARK                         _______ _______ _______ _____ _____    ______ ____
ROOT
ATOM      1  C   UNL     1      -4.009  -6.199   0.761  0.00  0.00    +0.021 A 
ATOM      2  C   UNL     1      -3.877  -7.220  -0.185  0.00  0.00    +0.065 A 
ATOM      3  N   UNL     1      -3.525  -8.317   0.435  0.00  0.00    -0.168 NA
ATOM      4  N   UNL     1      -3.419  -8.037   1.803  0.00  0.00    -0.200 N 
ATOM      5  C   UNL     1      -3.717  -6.722   1.982  0.00  0.00    +0.225 A 
ATOM      6  C   UNL     1      -4.103  -7.080  -1.669  0.00  0.00    +0.068 C 
ENDROOT
BRANCH   4   7
ATOM      7  C   UNL     1      -3.064  -8.947   2.808  0.00  0.00    +0.070 A 
ATOM      8  C   UNL     1      -2.211  -8.556   3.831  0.00  0.00    +0.028 A 
ATOM      9  C   UNL     1      -1.862  -9.456   4.820  0.00  0.00    +0.003 A 
ATOM     10  C   UNL     1      -2.362 -10.745   4.792  0.00  0.00    +0.020 A 
ATOM     11  C   UNL     1      -3.212 -11.138   3.773  0.00  0.00    +0.043 A 
ATOM     12  C   UNL     1      -3.569 -10.240   2.784  0.00  0.00    +0.048 A 
ATOM     13 CL   UNL     1      -3.837 -12.757   3.741  0.00  0.00    -0.083 Cl
ENDBRANCH   4   7
BRANCH   1  14
ATOM     14  C   UNL     1      -4.399  -4.771   0.478  0.00  0.00    -0.035 C 
BRANCH  14  15
ATOM     15  N   UNL     1      -3.193  -3.978   0.208  0.00  0.00    +0.386 N 
ATOM     16  H   UNL     1      -2.548  -4.074   0.979  0.00  0.00    -0.081 HD
BRANCH  15  17
ATOM     17  C   UNL     1      -2.556  -4.459  -1.025  0.00  0.00    -0.068 C 
ATOM     18  C   UNL     1      -1.273  -5.281  -0.884  0.00  0.00    -0.017 C 
ATOM     19  C   UNL     1      -1.209  -3.845  -1.411  0.00  0.00    -0.017 C 
ENDBRANCH  15  17
BRANCH  15  20
ATOM     20  C   UNL     1      -3.561  -2.565   0.050  0.00  0.00    -0.046 C 
BRANCH  20  21
ATOM     21  C   UNL     1      -4.082  -2.022   1.382  0.00  0.00    +0.098 C 
BRANCH  21  22
ATOM     22  O   UNL     1      -3.059  -2.134   2.375  0.00  0.00    -0.394 OA
ATOM     23  H   UNL     1      -2.252  -1.646   2.164  0.00  0.00    +0.210 HD
ENDBRANCH  21  22
BRANCH  21  24
ATOM     24  C   UNL     1      -4.472  -0.552   1.216  0.00  0.00    +0.029 C 
BRANCH  24  26
ATOM     25  C   UNL     1      -5.499   1.427   2.345  0.00  0.00    +0.004 C 
ATOM     26  C   UNL     1      -5.108  -0.043   2.511  0.00  0.00    -0.001 C 
ENDBRANCH  24  26
ENDBRANCH  21  24
ENDBRANCH  20  21
ENDBRANCH  15  20
ENDBRANCH  14  15
ENDBRANCH   1  14
BRANCH   5  27
ATOM     27  O   UNL     1      -3.724  -6.054   3.164  0.00  0.00    -0.438 OA
BRANCH  27  28
ATOM     28  C   UNL     1      -4.871  -6.060   3.893  0.00  0.00    +0.130 A 
ATOM     29  C   UNL     1      -5.954  -6.823   3.479  0.00  0.00    +0.046 A 
ATOM     30  C   UNL     1      -7.118  -6.827   4.223  0.00  0.00    +0.004 A 
ATOM     31  C   UNL     1      -7.205  -6.072   5.378  0.00  0.00    +0.000 A 
ATOM     32  C   UNL     1      -6.128  -5.311   5.792  0.00  0.00    +0.004 A 
ATOM     33  C   UNL     1      -4.959  -5.308   5.056  0.00  0.00    +0.046 A 
ENDBRANCH  27  28
ENDBRANCH   5  27
TORSDOF 11
