REMARK  Name = ZINC60343214
REMARK  10 active torsions:
REMARK  status: ('A' for Active; 'I' for Inactive)
REMARK    1  A    between atoms: C_1  and  C_2
REMARK    2  A    between atoms: C_4  and  N_15
REMARK    3  A    between atoms: N_5  and  C_7
REMARK    4  A    between atoms: C_16  and  C_18
REMARK    5  A    between atoms: C_18  and  N_19
REMARK    6  A    between atoms: N_19  and  C_20
REMARK    7  A    between atoms: N_19  and  C_28
REMARK    8  A    between atoms: C_20  and  C_21
REMARK    9  A    between atoms: C_25  and  O_27
REMARK   10  A    between atoms: C_31  and  O_34
REMARK                            x       y       z     vdW  Elec       q    Type
REMARK                         _______ _______ _______ _____ _____    ______ ____
ROOT
ATOM      1  N   UNL     1       0.179  -3.921  -5.160  0.00  0.00    +0.390 N 
ATOM      2  H   UNL     1       1.077  -3.501  -5.346  0.00  0.00    -0.080 HD
ENDROOT
BRANCH   1   3
ATOM      3  C   UNL     1      -0.885  -2.950  -5.444  0.00  0.00    -0.067 C 
ATOM      4  C   UNL     1      -0.683  -1.704  -4.580  0.00  0.00    -0.013 C 
ATOM      5  C   UNL     1      -1.792  -0.692  -4.877  0.00  0.00    +0.030 C 
ATOM      6  C   UNL     1      -3.152  -1.318  -4.559  0.00  0.00    +0.114 C 
ATOM      7  C   UNL     1      -3.354  -2.564  -5.423  0.00  0.00    +0.030 C 
ATOM      8  C   UNL     1      -2.245  -3.576  -5.127  0.00  0.00    -0.013 C 
BRANCH   6   9
ATOM      9  O   UNL     1      -4.187  -0.373  -4.836  0.00  0.00    -0.392 OA
ATOM     10  H   UNL     1      -5.079  -0.702  -4.657  0.00  0.00    +0.210 HD
ENDBRANCH   6   9
ENDBRANCH   1   3
BRANCH   1  11
ATOM     11  C   UNL     1       0.111  -4.323  -3.748  0.00  0.00    +0.020 C 
BRANCH  11  13
ATOM     12  N   UNL     1       0.777  -3.386  -1.558  0.00  0.00    -0.272 N 
ATOM     13  C   UNL     1       0.843  -3.314  -2.902  0.00  0.00    +0.202 C 
ATOM     14  O   UNL     1       1.493  -2.437  -3.431  0.00  0.00    -0.278 OA
ATOM     15  H   UNL     1       0.257  -4.088  -1.135  0.00  0.00    +0.156 HD
BRANCH  12  19
ATOM     16  C   UNL     1       3.604   0.484  -0.166  0.00  0.00    +0.067 C 
ATOM     17  C   UNL     1       2.712  -0.730  -0.123  0.00  0.00    +0.062 A 
ATOM     18  C   UNL     1       2.216  -1.421  -1.232  0.00  0.00    +0.068 A 
ATOM     19  C   UNL     1       1.455  -2.452  -0.775  0.00  0.00    +0.124 A 
ATOM     20  N   UNL     1       1.475  -2.406   0.577  0.00  0.00    -0.246 N 
ATOM     21  N   UNL     1       2.273  -1.321   0.959  0.00  0.00    -0.175 NA
BRANCH  20  22
ATOM     22  C   UNL     1       0.787  -3.331   1.481  0.00  0.00    +0.132 C 
ATOM     23  C   UNL     1       1.820  -4.024   2.385  0.00  0.00    +0.051 C 
ATOM     24  C   UNL     1       1.054  -4.749   3.528  0.00  0.00    +0.168 C 
ATOM     25  S   UNL     1      -0.233  -3.491   3.922  0.00  0.00    -0.029 S 
ATOM     26  O   UNL     1      -1.488  -4.143   4.067  0.00  0.00    -0.174 OA
ATOM     27  O   UNL     1       0.244  -2.653   4.966  0.00  0.00    -0.174 OA
ATOM     28  C   UNL     1      -0.227  -2.545   2.346  0.00  0.00    +0.192 C 
ENDBRANCH  20  22
ENDBRANCH  12  19
ENDBRANCH  11  13
ENDBRANCH   1  11
BRANCH   1  29
ATOM     29  C   UNL     1       0.005  -5.103  -6.014  0.00  0.00    -0.042 C 
BRANCH  29  30
ATOM     30  C   UNL     1       0.186  -4.710  -7.458  0.00  0.00    -0.060 A 
ATOM     31  C   UNL     1      -0.918  -4.415  -8.237  0.00  0.00    +0.002 A 
ATOM     32  C   UNL     1      -0.756  -4.054  -9.561  0.00  0.00    +0.004 A 
ATOM     33  C   UNL     1       0.510  -3.988 -10.110  0.00  0.00    +0.045 A 
ATOM     34  C   UNL     1       1.619  -4.284  -9.331  0.00  0.00    +0.117 A 
ATOM     35  C   UNL     1       1.454  -4.640  -8.001  0.00  0.00    +0.047 A 
BRANCH  34  36
ATOM     36  O   UNL     1       2.865  -4.220  -9.869  0.00  0.00    -0.507 OA
ATOM     37  H   UNL     1       3.285  -3.353  -9.787  0.00  0.00    +0.292 HD
ENDBRANCH  34  36
ENDBRANCH  29  30
ENDBRANCH   1  29
TORSDOF 9
