REMARK  Name = ZINC58458126
REMARK  4 active torsions:
REMARK  status: ('A' for Active; 'I' for Inactive)
REMARK    1  A    between atoms: C_6  and  C_7
REMARK    2  A    between atoms: N_12  and  C_13
REMARK    3  A    between atoms: C_13  and  C_14
REMARK    4  A    between atoms: C_14  and  C_15
REMARK                            x       y       z     vdW  Elec       q    Type
REMARK                         _______ _______ _______ _____ _____    ______ ____
ROOT
ATOM      1  C   UNL     1      -1.293  -0.774   0.009  0.00  0.00    -0.038 C 
ATOM      2  C   UNL     1      -1.911  -0.777   1.429  0.00  0.00    -0.013 C 
ATOM      3  C   UNL     1      -3.413  -1.012   1.117  0.00  0.00    -0.020 C 
ATOM      4  C   UNL     1      -3.620  -0.234  -0.200  0.00  0.00    -0.078 C 
ATOM      5  N   UNL     1      -2.297  -0.099  -0.841  0.00  0.00    +0.385 N 
ATOM      6  H   UNL     1      -2.063   0.878  -0.933  0.00  0.00    -0.081 HD
ENDROOT
BRANCH   1  12
ATOM      7  C   UNL     1      -0.017   1.378   0.010  0.00  0.00    +0.006 A 
ATOM      8  C   UNL     1       1.170   2.088   0.002  0.00  0.00    +0.049 A 
ATOM      9  C   UNL     1       2.382   1.415  -0.013  0.00  0.00    +0.162 A 
ATOM     10  C   UNL     1       2.401   0.025  -0.018  0.00  0.00    +0.162 A 
ATOM     11  C   UNL     1       1.207  -0.681  -0.011  0.00  0.00    +0.051 A 
ATOM     12  C   UNL     1       0.002  -0.004   0.002  0.00  0.00    -0.057 A 
ATOM     13  O   UNL     1       3.579  -0.656  -0.024  0.00  0.00    -0.485 OA
ATOM     14  C   UNL     1       4.746   0.081  -0.406  0.00  0.00    +0.270 C 
ATOM     15  C   UNL     1       4.733   1.422   0.340  0.00  0.00    +0.270 C 
ATOM     16  O   UNL     1       3.542   2.127  -0.024  0.00  0.00    -0.485 OA
ENDBRANCH   1  12
BRANCH   5  17
ATOM     17  C   UNL     1      -2.323  -0.726  -2.169  0.00  0.00    -0.069 C 
BRANCH  17  18
ATOM     18  C   UNL     1      -3.271   0.052  -3.083  0.00  0.00    +0.078 C 
BRANCH  18  19
ATOM     19  C   UNL     1      -3.297  -0.591  -4.446  0.00  0.00    +0.219 C 
ATOM     20  O   UNL     1      -2.624  -1.575  -4.664  0.00  0.00    -0.275 OA
ATOM     21  N   UNL     1      -4.069  -0.072  -5.421  0.00  0.00    -0.240 N 
ATOM     22  C   UNL     1      -4.092  -0.648  -6.640  0.00  0.00    +0.303 C 
ATOM     23  O   UNL     1      -3.417  -1.634  -6.859  0.00  0.00    -0.253 OA
ATOM     24  N   UNL     1      -4.864  -0.129  -7.615  0.00  0.00    -0.313 N 
ATOM     25  H   UNL     1      -4.608   0.715  -5.246  0.00  0.00    +0.159 HD
ATOM     26  H   UNL     1      -5.403   0.658  -7.440  0.00  0.00    +0.146 HD
ATOM     27  H   UNL     1      -4.881  -0.543  -8.492  0.00  0.00    +0.146 HD
ENDBRANCH  18  19
ENDBRANCH  17  18
ENDBRANCH   5  17
TORSDOF 4
