REMARK  Name = ZINC48550255
REMARK  9 active torsions:
REMARK  status: ('A' for Active; 'I' for Inactive)
REMARK    1  A    between atoms: C_1  and  C_2
REMARK    2  A    between atoms: C_5  and  C_9
REMARK    3  A    between atoms: N_11  and  C_12
REMARK    4  A    between atoms: C_12  and  C_13
REMARK    5  A    between atoms: C_13  and  N_14
REMARK    6  A    between atoms: N_17  and  C_18
REMARK    7  A    between atoms: C_18  and  C_20
REMARK    8  A    between atoms: C_18  and  C_21
REMARK    9  A    between atoms: C_21  and  N_22
REMARK                            x       y       z     vdW  Elec       q    Type
REMARK                         _______ _______ _______ _____ _____    ______ ____
ROOT
ATOM      1  N   UNL     1       0.125  -8.384   2.557  0.00  0.00    -0.298 N 
ATOM      2  C   UNL     1       0.140  -9.066   3.720  0.00  0.00    +0.300 C 
ATOM      3  O   UNL     1       0.137  -8.465   4.777  0.00  0.00    -0.253 OA
ATOM      4  N   UNL     1       0.157 -10.414   3.710  0.00  0.00    -0.295 N 
ATOM      5  H   UNL     1       0.127  -8.863   1.714  0.00  0.00    +0.150 HD
ATOM      6  H   UNL     1       0.159 -10.893   2.867  0.00  0.00    +0.151 HD
ENDROOT
BRANCH   4   7
ATOM      7  C   UNL     1       0.173 -11.155   4.974  0.00  0.00    +0.091 C 
ATOM      8  C   UNL     1       1.614 -11.286   5.470  0.00  0.00    +0.029 C 
BRANCH   7   9
ATOM      9  C   UNL     1      -0.420 -12.548   4.755  0.00  0.00    +0.144 C 
BRANCH   9  10
ATOM     10  N   UNL     1      -1.835 -12.426   4.396  0.00  0.00    -0.337 N 
ATOM     11  C   UNL     1      -2.894 -12.402   5.262  0.00  0.00    +0.104 A 
ATOM     12  C   UNL     1      -4.007 -12.278   4.514  0.00  0.00    +0.101 A 
ATOM     13  N   UNL     1      -3.637 -12.227   3.226  0.00  0.00    -0.352 N 
ATOM     14  C   UNL     1      -2.337 -12.310   3.147  0.00  0.00    +0.173 A 
ATOM     15  H   UNL     1      -4.240 -12.138   2.471  0.00  0.00    +0.166 HD
ENDBRANCH   9  10
ENDBRANCH   7   9
ENDBRANCH   4   7
BRANCH   1  16
ATOM     16  C   UNL     1       0.106  -6.919   2.567  0.00  0.00    +0.124 C 
BRANCH  16  17
ATOM     17  C   UNL     1       0.092  -6.400   1.128  0.00  0.00    +0.123 C 
BRANCH  17  20
ATOM     18  C   UNL     1       0.058  -4.253  -0.024  0.00  0.00    +0.244 C 
ATOM     19  O   UNL     1       0.061  -4.853  -1.081  0.00  0.00    -0.270 OA
ATOM     20  N   UNL     1       0.073  -4.935   1.138  0.00  0.00    -0.310 N 
ATOM     21  H   UNL     1       0.071  -4.455   1.982  0.00  0.00    +0.149 HD
BRANCH  18  26
ATOM     22  C   UNL     1      -0.018   1.503   0.010  0.00  0.00    +0.047 C 
ATOM     23  C   UNL     1       0.002  -0.004   0.002  0.00  0.00    -0.015 A 
ATOM     24  C   UNL     1       0.006  -0.686  -1.201  0.00  0.00    +0.007 A 
ATOM     25  C   UNL     1       0.024  -2.066  -1.216  0.00  0.00    +0.013 A 
ATOM     26  C   UNL     1       0.039  -2.775  -0.014  0.00  0.00    +0.039 A 
ATOM     27  C   UNL     1       0.036  -2.083   1.198  0.00  0.00    +0.051 A 
ATOM     28  C   UNL     1       0.023  -0.700   1.200  0.00  0.00    +0.127 A 
ATOM     29  F   UNL     1       0.025  -0.028   2.371  0.00  0.00    -0.205 F 
ENDBRANCH  18  26
ENDBRANCH  17  20
ENDBRANCH  16  17
ENDBRANCH   1  16
TORSDOF 7
