REMARK  Name = ZINC41115347
REMARK  3 active torsions:
REMARK  status: ('A' for Active; 'I' for Inactive)
REMARK    1  A    between atoms: C_5  and  S_7
REMARK    2  A    between atoms: S_7  and  N_10
REMARK    3  A    between atoms: C_14  and  C_17
REMARK                            x       y       z     vdW  Elec       q    Type
REMARK                         _______ _______ _______ _____ _____    ______ ____
ROOT
ATOM      1  N   UNL     1       1.893  -2.913  -1.466  0.00  0.00    -0.111 NA
ATOM      2  C   UNL     1       2.030  -4.191  -1.739  0.00  0.00    +0.153 A 
ATOM      3  C   UNL     1       2.602  -4.587  -2.973  0.00  0.00    +0.048 A 
ATOM      4  C   UNL     1       2.742  -5.906  -3.250  0.00  0.00    +0.020 A 
ATOM      5  C   UNL     1       2.296  -6.888  -2.258  0.00  0.00    +0.079 A 
ATOM      6  C   UNL     1       1.745  -6.447  -1.070  0.00  0.00    +0.099 A 
ATOM      7  N   UNL     1       1.623  -5.130  -0.821  0.00  0.00    -0.344 N 
ATOM      8  H   UNL     1       1.238  -4.838   0.020  0.00  0.00    +0.167 HD
ENDROOT
BRANCH   1   9
ATOM      9  S   UNL     1       1.232  -2.441  -0.023  0.00  0.00    +0.102 S 
ATOM     10  O   UNL     1       2.144  -2.841   0.991  0.00  0.00    -0.146 OA
ATOM     11  O   UNL     1      -0.124  -2.865  -0.039  0.00  0.00    -0.146 OA
BRANCH   9  16
ATOM     12  C   UNL     1      -0.017   1.378   0.010  0.00  0.00    +0.002 A 
ATOM     13  C   UNL     1       1.171   2.086   0.002  0.00  0.00    +0.002 A 
ATOM     14  C   UNL     1       2.377   1.412  -0.013  0.00  0.00    +0.022 A 
ATOM     15  C   UNL     1       2.397   0.029  -0.021  0.00  0.00    +0.068 A 
ATOM     16  C   UNL     1       1.208  -0.679  -0.013  0.00  0.00    +0.131 A 
ATOM     17  C   UNL     1       0.002  -0.004   0.002  0.00  0.00    +0.030 A 
ATOM     18 CL   UNL     1       3.912  -0.818  -0.041  0.00  0.00    -0.082 Cl
ENDBRANCH   9  16
ENDBRANCH   1   9
BRANCH   5  19
ATOM     19  C   UNL     1       2.432  -8.325  -2.524  0.00  0.00    +0.388 C 
ATOM     20  O   UNL     1       2.057  -9.140  -1.691  0.00  0.00    -0.241 OA
ATOM     21  O   UNL     1       2.920  -8.709  -3.579  0.00  0.00    -0.241 OA
ENDBRANCH   5  19
TORSDOF 3
