REMARK  Name = ZINC23231295
REMARK  8 active torsions:
REMARK  status: ('A' for Active; 'I' for Inactive)
REMARK    1  A    between atoms: C_1  and  C_2
REMARK    2  A    between atoms: C_4  and  S_8
REMARK    3  A    between atoms: C_5  and  C_7
REMARK    4  A    between atoms: S_8  and  N_11
REMARK    5  A    between atoms: C_14  and  C_17
REMARK    6  A    between atoms: C_17  and  N_18
REMARK    7  A    between atoms: C_20  and  C_23
REMARK    8  A    between atoms: C_23  and  N_24
REMARK                            x       y       z     vdW  Elec       q    Type
REMARK                         _______ _______ _______ _____ _____    ______ ____
ROOT
ATOM      1  N   UNL     1      -2.082   4.202   3.691  0.00  0.00    -0.177 NA
ATOM      2  C   UNL     1      -1.917   4.984   2.458  0.00  0.00    +0.110 C 
ATOM      3  C   UNL     1      -2.020   4.040   1.257  0.00  0.00    +0.022 C 
ATOM      4  C   UNL     1      -1.009   2.902   1.420  0.00  0.00    +0.013 C 
ATOM      5  C   UNL     1      -1.332   2.108   2.687  0.00  0.00    +0.022 C 
ATOM      6  C   UNL     1      -1.221   3.031   3.905  0.00  0.00    +0.110 C 
ENDROOT
BRANCH   1   7
ATOM      7  S   UNL     1      -3.217   4.632   4.817  0.00  0.00    +0.062 S 
ATOM      8  O   UNL     1      -2.714   4.216   6.080  0.00  0.00    -0.153 OA
ATOM      9  O   UNL     1      -3.569   5.981   4.545  0.00  0.00    -0.153 OA
BRANCH   7  13
ATOM     10  C   UNL     1      -6.817   0.882   5.954  0.00  0.00    +0.051 C 
ATOM     11  C   UNL     1      -6.175   1.974   5.137  0.00  0.00    -0.011 A 
ATOM     12  C   UNL     1      -5.064   2.702   5.409  0.00  0.00    +0.039 A 
ATOM     13  C   UNL     1      -4.655   3.663   4.504  0.00  0.00    +0.116 A 
ATOM     14  C   UNL     1      -5.380   3.854   3.375  0.00  0.00    +0.013 A 
ATOM     15  S   UNL     1      -6.680   2.645   3.562  0.00  0.00    -0.097 S 
ATOM     16  C   UNL     1      -5.148   4.832   2.252  0.00  0.00    +0.053 C 
ENDBRANCH   7  13
ENDBRANCH   1   7
BRANCH   4  17
ATOM     17  C   UNL     1      -1.085   1.975   0.205  0.00  0.00    +0.148 C 
BRANCH  17  18
ATOM     18  N   UNL     1      -0.037   0.956   0.302  0.00  0.00    -0.251 N 
ATOM     19  C   UNL     1      -0.227  -0.383   0.256  0.00  0.00    +0.131 A 
ATOM     20  C   UNL     1       0.999  -0.943   0.375  0.00  0.00    +0.066 A 
ATOM     21  N   UNL     1       1.868   0.068   0.487  0.00  0.00    -0.136 NA
ATOM     22  N   UNL     1       1.222   1.180   0.440  0.00  0.00    -0.066 NA
BRANCH  20  23
ATOM     23  C   UNL     1       1.323  -2.414   0.382  0.00  0.00    -0.027 C 
BRANCH  23  24
ATOM     24  N   UNL     1       1.691  -2.841  -0.975  0.00  0.00    +0.382 N 
ATOM     25  H   UNL     1       1.927  -3.915  -0.971  0.00  0.00    -0.090 HD
ATOM     26  H   UNL     1       2.571  -2.273  -1.312  0.00  0.00    -0.090 HD
ATOM     27  H   UNL     1       0.850  -2.653  -1.659  0.00  0.00    -0.090 HD
ENDBRANCH  23  24
ENDBRANCH  20  23
ENDBRANCH  17  18
ENDBRANCH   4  17
TORSDOF 6
