REMARK  Name = ZINC39466948
REMARK  7 active torsions:
REMARK  status: ('A' for Active; 'I' for Inactive)
REMARK    1  A    between atoms: C_1  and  S_2
REMARK    2  A    between atoms: S_2  and  C_3
REMARK    3  A    between atoms: C_15  and  S_16
REMARK    4  A    between atoms: S_16  and  O_19
REMARK    5  A    between atoms: O_19  and  C_20
REMARK    6  A    between atoms: P_28  and  C_31
REMARK    7  A    between atoms: C_31  and  C_32
REMARK                            x       y       z     vdW  Elec       q    Type
REMARK                         _______ _______ _______ _____ _____    ______ ____
ROOT
ATOM      1  C   UNL     1       0.877  -0.427   1.472  0.00  0.00    +0.032 C 
ATOM      2  C   UNL     1       1.335   0.534   2.287  0.00  0.00    -0.008 C 
ATOM      3  C   UNL     1       2.089   0.149   3.531  0.00  0.00    +0.005 C 
ATOM      4  C   UNL     1       2.982   1.292   3.993  0.00  0.00    -0.046 C 
ATOM      5  N   UNL     1       3.995   1.620   2.977  0.00  0.00    +0.397 N 
ATOM      6  C   UNL     1       4.854   0.461   2.723  0.00  0.00    -0.020 C 
ATOM      7  C   UNL     1       4.015  -0.720   2.222  0.00  0.00    -0.003 C 
ATOM      8  C   UNL     1       2.961  -1.076   3.243  0.00  0.00    +0.018 C 
ATOM      9  C   UNL     1       2.096  -2.163   2.651  0.00  0.00    +0.008 C 
ATOM     10  C   UNL     1       1.107  -1.843   1.822  0.00  0.00    +0.137 C 
ATOM     11  C   UNL     1       5.897   0.759   1.639  0.00  0.00    +0.156 C 
ATOM     12  O   UNL     1       6.751   1.832   2.075  0.00  0.00    -0.319 OA
ATOM     13  P   UNL     1       6.038   3.186   2.628  0.00  0.00    +0.262 P 
ATOM     14  O   UNL     1       5.602   4.035   1.498  0.00  0.00    -0.274 OA
ATOM     15  N   UNL     1       4.731   2.663   3.497  0.00  0.00    -0.291 NA
ATOM     16  H   UNL     1       4.486   3.077   4.340  0.00  0.00    +0.111 HD
ATOM     17  H   UNL     1       3.540   1.915   2.125  0.00  0.00    -0.055 HD
ENDROOT
BRANCH  10  18
ATOM     18  S   UNL     1       0.079  -3.100   1.139  0.00  0.00    +0.152 S 
ATOM     19  O   UNL     1      -0.076  -2.793  -0.240  0.00  0.00    -0.131 OA
ATOM     20  O   UNL     1       0.604  -4.342   1.588  0.00  0.00    -0.131 OA
BRANCH  18  21
ATOM     21  O   UNL     1      -1.295  -2.954   1.775  0.00  0.00    -0.342 OA
BRANCH  21  22
ATOM     22  C   UNL     1      -2.016  -1.905   1.299  0.00  0.00    +0.157 A 
ATOM     23  C   UNL     1      -1.911  -0.659   1.900  0.00  0.00    +0.048 A 
ATOM     24  C   UNL     1      -2.644   0.406   1.413  0.00  0.00    +0.004 A 
ATOM     25  C   UNL     1      -3.482   0.231   0.328  0.00  0.00    +0.000 A 
ATOM     26  C   UNL     1      -3.589  -1.010  -0.273  0.00  0.00    +0.004 A 
ATOM     27  C   UNL     1      -2.853  -2.076   0.206  0.00  0.00    +0.048 A 
ENDBRANCH  21  22
ENDBRANCH  18  21
ENDBRANCH  10  18
BRANCH   1  29
ATOM     28  C   UNL     1      -0.022   1.810   0.012  0.00  0.00    +0.090 C 
ATOM     29  S   UNL     1       0.002  -0.004   0.002  0.00  0.00    -0.127 S 
ENDBRANCH   1  29
BRANCH  13  30
ATOM     30  C   UNL     1       7.184   4.109   3.705  0.00  0.00    +0.147 C 
BRANCH  30  31
ATOM     31  C   UNL     1       8.415   4.486   2.922  0.00  0.00    -0.037 A 
ATOM     32  C   UNL     1       9.500   3.629   2.883  0.00  0.00    +0.004 A 
ATOM     33  C   UNL     1      10.629   3.975   2.165  0.00  0.00    +0.000 A 
ATOM     34  C   UNL     1      10.674   5.177   1.484  0.00  0.00    +0.000 A 
ATOM     35  C   UNL     1       9.589   6.034   1.522  0.00  0.00    +0.000 A 
ATOM     36  C   UNL     1       8.459   5.686   2.237  0.00  0.00    +0.004 A 
ENDBRANCH  30  31
ENDBRANCH  13  30
TORSDOF 6
