REMARK  Name = ZINC33070371
REMARK  11 active torsions:
REMARK  status: ('A' for Active; 'I' for Inactive)
REMARK    1  A    between atoms: C_1  and  C_2
REMARK    2  A    between atoms: C_2  and  C_3
REMARK    3  A    between atoms: C_2  and  C_4
REMARK    4  A    between atoms: C_7  and  C_10
REMARK    5  A    between atoms: C_12  and  C_15
REMARK    6  A    between atoms: N_17  and  C_18
REMARK    7  A    between atoms: C_21  and  N_26
REMARK    8  A    between atoms: C_22  and  O_24
REMARK    9  A    between atoms: O_24  and  C_25
REMARK   10  A    between atoms: N_26  and  S_27
REMARK   11  A    between atoms: S_27  and  C_30
REMARK                            x       y       z     vdW  Elec       q    Type
REMARK                         _______ _______ _______ _____ _____    ______ ____
ROOT
ATOM      1  C   UNL     1      -6.100  -1.393   2.640  0.00  0.00    +0.267 C 
ATOM      2  O   UNL     1      -5.304  -2.128   2.088  0.00  0.00    -0.268 OA
ATOM      3  N   UNL     1      -5.800  -0.092   2.826  0.00  0.00    -0.280 N 
ATOM      4  H   UNL     1      -6.549   0.589   3.257  0.00  0.00    +0.155 HD
ENDROOT
BRANCH   3   5
ATOM      5  C   UNL     1      -4.535   0.392   2.471  0.00  0.00    +0.037 A 
ATOM      6  C   UNL     1      -3.882  -0.123   1.359  0.00  0.00    +0.025 A 
ATOM      7  C   UNL     1      -2.634   0.354   1.006  0.00  0.00    +0.030 A 
ATOM      8  C   UNL     1      -2.031   1.348   1.763  0.00  0.00    +0.089 A 
ATOM      9  C   UNL     1      -2.682   1.862   2.882  0.00  0.00    +0.144 A 
ATOM     10  C   UNL     1      -3.935   1.388   3.230  0.00  0.00    +0.071 A 
BRANCH   9  11
ATOM     11  O   UNL     1      -2.089   2.833   3.628  0.00  0.00    -0.493 OA
ATOM     12  C   UNL     1      -2.815   3.314   4.761  0.00  0.00    +0.277 C 
ENDBRANCH   9  11
BRANCH   8  13
ATOM     13  N   UNL     1      -0.764   1.831   1.405  0.00  0.00    -0.217 N 
ATOM     14  H   UNL     1      -0.046   2.123   2.185  0.00  0.00    +0.173 HD
BRANCH  13  15
ATOM     15  S   UNL     1      -0.350   1.962  -0.193  0.00  0.00    +0.040 S 
ATOM     16  O   UNL     1      -0.541   0.659  -0.726  0.00  0.00    -0.155 OA
ATOM     17  O   UNL     1       0.940   2.560  -0.186  0.00  0.00    -0.155 OA
ATOM     18  C   UNL     1      -1.566   3.110  -0.898  0.00  0.00    +0.218 C 
ENDBRANCH  13  15
ENDBRANCH   8  13
ENDBRANCH   3   5
BRANCH   1  21
ATOM     19  C   UNL     1      -9.421  -1.619   4.123  0.00  0.00    +0.109 A 
ATOM     20  N   UNL     1      -8.264  -1.133   3.714  0.00  0.00    -0.234 NA
ATOM     21  C   UNL     1      -7.392  -1.925   3.107  0.00  0.00    +0.133 A 
ATOM     22  C   UNL     1      -7.707  -3.248   2.922  0.00  0.00    +0.080 A 
ATOM     23  S   UNL     1      -9.289  -3.332   3.634  0.00  0.00    -0.075 S 
BRANCH  19  27
ATOM     24  C   UNL     1     -12.616   0.367   6.098  0.00  0.00    -0.045 A 
ATOM     25  C   UNL     1     -12.717  -0.982   5.809  0.00  0.00    +0.004 A 
ATOM     26  C   UNL     1     -11.683  -1.633   5.168  0.00  0.00    +0.011 A 
ATOM     27  C   UNL     1     -10.533  -0.928   4.811  0.00  0.00    +0.007 A 
ATOM     28  C   UNL     1     -10.435   0.431   5.110  0.00  0.00    +0.011 A 
ATOM     29  C   UNL     1     -11.478   1.072   5.747  0.00  0.00    +0.004 A 
BRANCH  24  31
ATOM     30  C   UNL     1     -13.248   1.651   8.122  0.00  0.00    +0.012 C 
ATOM     31  C   UNL     1     -13.749   1.071   6.798  0.00  0.00    +0.013 C 
ATOM     32  C   UNL     1     -14.272   2.203   5.911  0.00  0.00    +0.012 C 
ENDBRANCH  24  31
ENDBRANCH  19  27
ENDBRANCH   1  21
TORSDOF 7
