REMARK  Name = ZINC15946688
REMARK  10 active torsions:
REMARK  status: ('A' for Active; 'I' for Inactive)
REMARK    1  A    between atoms: C_1  and  C_2
REMARK    2  A    between atoms: C_8  and  C_9
REMARK    3  A    between atoms: C_8  and  N_70
REMARK    4  A    between atoms: N_11  and  C_12
REMARK    5  A    between atoms: C_13  and  C_26
REMARK    6  A    between atoms: C_18  and  C_22
REMARK    7  A    between atoms: C_22  and  C_23
REMARK    8  A    between atoms: C_22  and  C_24
REMARK    9  A    between atoms: C_22  and  C_25
REMARK   10  A    between atoms: N_28  and  C_29
REMARK                            x       y       z     vdW  Elec       q    Type
REMARK                         _______ _______ _______ _____ _____    ______ ____
ROOT
ATOM      1  C   UNL     1       0.201   3.727   5.027  0.00  0.00    +0.084 A 
ATOM      2  C   UNL     1       0.106   3.984   6.388  0.00  0.00    +0.069 A 
ATOM      3  C   UNL     1       1.123   3.411   7.252  0.00  0.00    -0.023 A 
ATOM      4  C   UNL     1       2.073   2.686   6.621  0.00  0.00    -0.004 A 
ATOM      5  S   UNL     1       1.628   2.751   4.909  0.00  0.00    -0.077 S 
ATOM      6  C   UNL     1       3.239   1.986   7.247  0.00  0.00    +0.046 C 
ATOM      7  C   UNL     1       2.995   1.898   8.761  0.00  0.00    -0.000 C 
ATOM      8  C   UNL     1       2.561   3.275   9.271  0.00  0.00    +0.009 C 
ATOM      9  C   UNL     1       1.154   3.598   8.764  0.00  0.00    +0.037 C 
ENDROOT
BRANCH   1  12
ATOM     10  C   UNL     1      -0.380   3.804   2.733  0.00  0.00    +0.201 C 
ATOM     11  O   UNL     1       0.587   3.119   2.475  0.00  0.00    -0.278 OA
ATOM     12  N   UNL     1      -0.638   4.152   4.009  0.00  0.00    -0.281 N 
ATOM     13  H   UNL     1      -1.411   4.701   4.215  0.00  0.00    +0.155 HD
BRANCH  10  14
ATOM     14  C   UNL     1      -1.292   4.267   1.626  0.00  0.00    +0.019 C 
BRANCH  14  21
ATOM     15  C   UNL     1      -1.198   5.983  -0.602  0.00  0.00    -0.013 C 
ATOM     16  C   UNL     1      -1.413   4.479  -0.782  0.00  0.00    -0.071 C 
ATOM     17  C   UNL     1      -0.771   4.026  -2.095  0.00  0.00    -0.016 C 
ATOM     18  C   UNL     1      -0.971   2.517  -2.262  0.00  0.00    -0.003 C 
ATOM     19  C   UNL     1      -0.364   1.794  -1.057  0.00  0.00    -0.019 C 
ATOM     20  C   UNL     1      -1.017   2.311   0.226  0.00  0.00    -0.078 C 
ATOM     21  N   UNL     1      -0.768   3.764   0.339  0.00  0.00    +0.387 N 
ATOM     22  H   UNL     1       0.244   3.932   0.303  0.00  0.00    -0.081 HD
ENDBRANCH  14  21
ENDBRANCH  10  14
ENDBRANCH   1  12
BRANCH   7  23
ATOM     23  C   UNL     1       4.286   1.474   9.465  0.00  0.00    -0.035 C 
ATOM     24  C   UNL     1       5.381   2.505   9.185  0.00  0.00    +0.011 C 
ATOM     25  C   UNL     1       4.040   1.387  10.972  0.00  0.00    +0.011 C 
ATOM     26  C   UNL     1       4.727   0.106   8.940  0.00  0.00    +0.011 C 
ENDBRANCH   7  23
BRANCH   2  27
ATOM     27  C   UNL     1      -0.984   4.799   6.933  0.00  0.00    +0.251 C 
ATOM     28  O   UNL     1      -2.023   4.271   7.282  0.00  0.00    -0.270 OA
ATOM     29  N   UNL     1      -0.834   6.134   7.047  0.00  0.00    -0.281 N 
ATOM     30  H   UNL     1      -0.037   6.564   6.700  0.00  0.00    +0.155 HD
BRANCH  29  31
ATOM     31  C   UNL     1      -1.828   6.899   7.666  0.00  0.00    +0.035 A 
ATOM     32  C   UNL     1      -2.073   8.198   7.240  0.00  0.00    +0.023 A 
ATOM     33  C   UNL     1      -3.058   8.949   7.850  0.00  0.00    +0.003 A 
ATOM     34  C   UNL     1      -3.795   8.413   8.891  0.00  0.00    +0.020 A 
ATOM     35  C   UNL     1      -3.550   7.121   9.321  0.00  0.00    +0.043 A 
ATOM     36  C   UNL     1      -2.568   6.362   8.711  0.00  0.00    +0.043 A 
ATOM     37 CL   UNL     1      -4.476   6.452  10.629  0.00  0.00    -0.083 Cl
ENDBRANCH  29  31
ENDBRANCH   2  27
TORSDOF 6
