REMARK  Name = ZINC13751347
REMARK  8 active torsions:
REMARK  status: ('A' for Active; 'I' for Inactive)
REMARK    1  A    between atoms: C_1  and  C_2
REMARK    2  A    between atoms: C_2  and  C_3
REMARK    3  A    between atoms: C_3  and  C_4
REMARK    4  A    between atoms: C_6  and  C_26
REMARK    5  A    between atoms: C_8  and  C_20
REMARK    6  A    between atoms: C_11  and  C_12
REMARK    7  A    between atoms: C_11  and  O_19
REMARK    8  A    between atoms: C_12  and  C_13
REMARK                            x       y       z     vdW  Elec       q    Type
REMARK                         _______ _______ _______ _____ _____    ______ ____
ROOT
ATOM      1  C   UNL     1       0.807  -1.142  -0.965  0.00  0.00    +0.011 C 
ATOM      2  C   UNL     1       1.855  -0.033  -0.849  0.00  0.00    -0.034 C 
ATOM      3  C   UNL     1       0.349   1.330   0.473  0.00  0.00    -0.037 C 
ATOM      4  C   UNL     1      -0.744   0.261   0.397  0.00  0.00    +0.024 C 
ATOM      5  C   UNL     1      -0.093  -1.119   0.274  0.00  0.00    +0.070 C 
ATOM      6  N   UNL     1       1.183   1.277  -0.743  0.00  0.00    +0.388 N 
ATOM      7  H   UNL     1       0.588   1.420  -1.567  0.00  0.00    -0.084 HD
ATOM      8  H   UNL     1       1.892   2.018  -0.700  0.00  0.00    -0.084 HD
ENDROOT
BRANCH   3   9
ATOM      9  C   UNL     1      -0.287   2.692   0.574  0.00  0.00    -0.061 A 
ATOM     10  C   UNL     1      -0.765   3.318  -0.562  0.00  0.00    +0.002 A 
ATOM     11  C   UNL     1      -1.353   4.566  -0.468  0.00  0.00    +0.000 A 
ATOM     12  C   UNL     1      -1.454   5.192   0.760  0.00  0.00    +0.000 A 
ATOM     13  C   UNL     1      -0.971   4.568   1.896  0.00  0.00    +0.000 A 
ATOM     14  C   UNL     1      -0.388   3.319   1.803  0.00  0.00    +0.002 A 
ENDBRANCH   3   9
BRANCH   2  15
ATOM     15  C   UNL     1       2.730  -0.039  -2.076  0.00  0.00    -0.061 A 
ATOM     16  C   UNL     1       2.562   0.928  -3.050  0.00  0.00    +0.002 A 
ATOM     17  C   UNL     1       3.368   0.925  -4.173  0.00  0.00    +0.000 A 
ATOM     18  C   UNL     1       4.335  -0.050  -4.327  0.00  0.00    +0.000 A 
ATOM     19  C   UNL     1       4.500  -1.020  -3.355  0.00  0.00    +0.000 A 
ATOM     20  C   UNL     1       3.697  -1.014  -2.230  0.00  0.00    +0.002 A 
ENDBRANCH   2  15
BRANCH   5  21
ATOM     21  O   UNL     1       0.692  -1.383   1.439  0.00  0.00    -0.388 OA
ATOM     22  H   UNL     1       0.186  -1.379   2.263  0.00  0.00    +0.210 HD
ENDBRANCH   5  21
BRANCH   1  23
ATOM     23  C   UNL     1      -0.043  -0.914  -2.217  0.00  0.00    +0.005 C 
BRANCH  23  25
ATOM     24  C   UNL     1      -0.189  -1.330  -4.676  0.00  0.00    +0.004 C 
ATOM     25  C   UNL     1       0.717  -1.415  -3.447  0.00  0.00    -0.003 C 
ENDBRANCH  23  25
ENDBRANCH   1  23
BRANCH   5  26
ATOM     26  C   UNL     1      -1.180  -2.187   0.138  0.00  0.00    +0.070 C 
BRANCH  26  27
ATOM     27  C   UNL     1      -2.140  -2.076   1.294  0.00  0.00    -0.045 A 
ATOM     28  C   UNL     1      -1.911  -2.795   2.453  0.00  0.00    +0.004 A 
ATOM     29  C   UNL     1      -2.789  -2.690   3.516  0.00  0.00    +0.000 A 
ATOM     30  C   UNL     1      -3.901  -1.875   3.416  0.00  0.00    +0.000 A 
ATOM     31  C   UNL     1      -4.132  -1.161   2.256  0.00  0.00    +0.000 A 
ATOM     32  C   UNL     1      -3.252  -1.261   1.195  0.00  0.00    +0.004 A 
ENDBRANCH  26  27
ENDBRANCH   5  26
TORSDOF 7
