REMARK  Name = ZINC03832099
REMARK  8 active torsions:
REMARK  status: ('A' for Active; 'I' for Inactive)
REMARK    1  A    between atoms: C_1  and  C_2
REMARK    2  A    between atoms: C_8  and  C_10
REMARK    3  A    between atoms: C_10  and  C_12
REMARK    4  A    between atoms: C_10  and  N_23
REMARK    5  A    between atoms: C_12  and  C_13
REMARK    6  A    between atoms: C_21  and  N_22
REMARK    7  A    between atoms: N_23  and  S_24
REMARK    8  A    between atoms: S_24  and  C_27
REMARK                            x       y       z     vdW  Elec       q    Type
REMARK                         _______ _______ _______ _____ _____    ______ ____
ROOT
ATOM      1  C   UNL     1      -0.164  -4.040   3.010  0.00  0.00    +0.167 C 
ENDROOT
BRANCH   1   9
ATOM      2  C   UNL     1       0.701  -2.929  -3.073  0.00  0.00    +0.007 C 
ATOM      3  C   UNL     1       0.240  -2.442  -1.697  0.00  0.00    -0.011 C 
ATOM      4  C   UNL     1       1.145  -3.038  -0.616  0.00  0.00    +0.022 C 
ATOM      5  C   UNL     1       0.702  -2.521   0.756  0.00  0.00    +0.108 C 
ATOM      6  N   UNL     1      -0.726  -2.817   0.935  0.00  0.00    -0.300 N 
ATOM      7  C   UNL     1      -1.675  -2.369  -0.094  0.00  0.00    +0.108 C 
ATOM      8  C   UNL     1      -1.205  -2.887  -1.457  0.00  0.00    +0.022 C 
ATOM      9  C   UNL     1      -1.158  -3.488   2.021  0.00  0.00    +0.235 C 
ATOM     10  O   UNL     1      -2.346  -3.647   2.203  0.00  0.00    -0.274 OA
ENDBRANCH   1   9
BRANCH   1  11
ATOM     11  N   UNL     1      -0.781  -5.133   3.765  0.00  0.00    -0.178 NA
ATOM     12  H   UNL     1      -1.315  -4.938   4.552  0.00  0.00    +0.149 HD
BRANCH  11  13
ATOM     13  S   UNL     1      -0.568  -6.700   3.277  0.00  0.00    +0.059 S 
ATOM     14  O   UNL     1      -1.258  -7.515   4.215  0.00  0.00    -0.153 OA
ATOM     15  O   UNL     1      -0.852  -6.734   1.885  0.00  0.00    -0.153 OA
BRANCH  13  16
ATOM     16  C   UNL     1       1.145  -7.072   3.450  0.00  0.00    +0.106 A 
ATOM     17  C   UNL     1       2.011  -6.831   2.385  0.00  0.00    +0.029 A 
ATOM     18  C   UNL     1       3.340  -7.107   2.487  0.00  0.00    +0.010 A 
ATOM     19  C   UNL     1       3.850  -7.643   3.682  0.00  0.00    -0.018 A 
ATOM     20  C   UNL     1       5.216  -7.941   3.824  0.00  0.00    +0.008 A 
ATOM     21  C   UNL     1       5.674  -8.458   4.996  0.00  0.00    +0.001 A 
ATOM     22  C   UNL     1       4.808  -8.699   6.061  0.00  0.00    +0.001 A 
ATOM     23  C   UNL     1       3.479  -8.423   5.960  0.00  0.00    +0.008 A 
ATOM     24  C   UNL     1       2.969  -7.888   4.765  0.00  0.00    -0.016 A 
ATOM     25  C   UNL     1       1.604  -7.585   4.625  0.00  0.00    +0.037 A 
ENDBRANCH  13  16
ENDBRANCH  11  13
ENDBRANCH   1  11
BRANCH   1  26
ATOM     26  C   UNL     1       0.265  -2.932   3.975  0.00  0.00    +0.072 C 
BRANCH  26  27
ATOM     27  C   UNL     1       1.349  -3.449   4.884  0.00  0.00    -0.007 A 
ATOM     28  C   UNL     1       2.677  -3.412   4.698  0.00  0.00    +0.023 A 
ATOM     29  C   UNL     1       3.554  -3.973   5.713  0.00  0.00    +0.027 A 
ATOM     30  C   UNL     1       2.886  -4.521   6.831  0.00  0.00    +0.024 A 
ATOM     31  S   UNL     1       1.173  -4.251   6.468  0.00  0.00    -0.093 S 
ATOM     32  C   UNL     1       3.593  -5.089   7.874  0.00  0.00    +0.033 A 
ATOM     33  C   UNL     1       4.960  -5.115   7.808  0.00  0.00    +0.085 A 
ATOM     34  N   UNL     1       5.593  -4.603   6.763  0.00  0.00    -0.349 N 
ATOM     35  C   UNL     1       4.971  -4.051   5.743  0.00  0.00    +0.102 A 
ATOM     36  H   UNL     1       6.562  -4.638   6.749  0.00  0.00    +0.167 HD
BRANCH  35  37
ATOM     37  N   UNL     1       5.710  -3.538   4.686  0.00  0.00    -0.344 N 
ATOM     38  H   UNL     1       5.257  -3.129   3.931  0.00  0.00    +0.144 HD
ATOM     39  H   UNL     1       6.678  -3.588   4.701  0.00  0.00    +0.144 HD
ENDBRANCH  35  37
ENDBRANCH  26  27
ENDBRANCH   1  26
TORSDOF 7
