REMARK  Name = ZINC48896048
REMARK  6 active torsions:
REMARK  status: ('A' for Active; 'I' for Inactive)
REMARK    1  A    between atoms: C_1  and  O_2
REMARK    2  A    between atoms: O_2  and  C_3
REMARK    3  A    between atoms: C_8  and  C_9
REMARK    4  A    between atoms: C_9  and  C_11
REMARK    5  A    between atoms: C_9  and  N_13
REMARK    6  A    between atoms: C_11  and  N_12
REMARK                            x       y       z     vdW  Elec       q    Type
REMARK                         _______ _______ _______ _____ _____    ______ ____
ROOT
ATOM      1  C   UNL     1      -0.003  -3.044   0.072  0.00  0.00    +0.073 C 
ENDROOT
BRANCH   1   7
ATOM      2  C   UNL     1       1.016  -0.785  -0.312  0.00  0.00    +0.125 A 
ATOM      3  C   UNL     1       1.873   0.061  -0.999  0.00  0.00    +0.047 A 
ATOM      4  C   UNL     1       2.627  -0.424  -2.050  0.00  0.00    +0.019 A 
ATOM      5  C   UNL     1       2.528  -1.755  -2.416  0.00  0.00    +0.018 A 
ATOM      6  C   UNL     1       1.673  -2.601  -1.733  0.00  0.00    +0.024 A 
ATOM      7  C   UNL     1       0.922  -2.120  -0.677  0.00  0.00    +0.011 A 
ATOM      8 BR   UNL     1       3.561  -2.417  -3.855  0.00  0.00    -0.050 Br
BRANCH   2  10
ATOM      9  C   UNL     1       0.420   1.075   1.043  0.00  0.00    +0.277 C 
ATOM     10  O   UNL     1       0.273  -0.309   0.722  0.00  0.00    -0.495 OA
ENDBRANCH   2  10
ENDBRANCH   1   7
BRANCH   1  11
ATOM     11  N   UNL     1       0.476  -4.427  -0.056  0.00  0.00    -0.296 NA
ATOM     12  C   UNL     1      -0.510  -5.376   0.471  0.00  0.00    +0.086 C 
ATOM     13  C   UNL     1      -0.607  -6.459  -0.592  0.00  0.00    +0.026 C 
ATOM     14  C   UNL     1       0.111  -7.721  -0.065  0.00  0.00    +0.070 C 
ATOM     15  S   UNL     1       1.613  -7.244   0.854  0.00  0.00    -0.159 S 
ATOM     16  C   UNL     1       2.389  -5.902  -0.054  0.00  0.00    +0.084 C 
ATOM     17  C   UNL     1       1.791  -4.545   0.402  0.00  0.00    +0.095 C 
ENDBRANCH   1  11
BRANCH   1  18
ATOM     18  C   UNL     1      -1.413  -2.937  -0.512  0.00  0.00    -0.062 C 
BRANCH  18  19
ATOM     19  N   UNL     1      -1.413  -3.448  -1.890  0.00  0.00    +0.379 N 
ATOM     20  H   UNL     1      -0.848  -2.847  -2.471  0.00  0.00    -0.090 HD
ATOM     21  H   UNL     1      -1.033  -4.382  -1.902  0.00  0.00    -0.090 HD
ATOM     22  H   UNL     1      -2.358  -3.465  -2.243  0.00  0.00    -0.090 HD
ENDBRANCH  18  19
ENDBRANCH   1  18
TORSDOF 5
