REMARK  Name = ZINC03639002
REMARK  10 active torsions:
REMARK  status: ('A' for Active; 'I' for Inactive)
REMARK    1  A    between atoms: C_1  and  C_2
REMARK    2  A    between atoms: C_2  and  O_3
REMARK    3  A    between atoms: O_3  and  C_4
REMARK    4  A    between atoms: C_7  and  C_10
REMARK    5  A    between atoms: C_12  and  C_23
REMARK    6  A    between atoms: C_13  and  C_21
REMARK    7  A    between atoms: C_14  and  O_17
REMARK    8  A    between atoms: C_14  and  O_19
REMARK    9  A    between atoms: O_17  and  C_18
REMARK   10  A    between atoms: O_19  and  C_20
REMARK                            x       y       z     vdW  Elec       q    Type
REMARK                         _______ _______ _______ _____ _____    ______ ____
ROOT
ATOM      1  C   UNL     1      -0.176   1.804  -0.429  0.00  0.00    +0.077 C 
ATOM      2  C   UNL     1       1.160   1.163  -0.052  0.00  0.00    +0.144 C 
ATOM      3  C   UNL     1      -0.126   0.315  -0.080  0.00  0.00    +0.165 C 
ATOM      4  C   UNL     1       0.117  -0.693  -1.218  0.00  0.00    +0.274 C 
ATOM      5  C   UNL     1       2.015   0.589  -1.184  0.00  0.00    +0.092 C 
ATOM      6  N   UNL     1       3.256   1.063  -1.521  0.00  0.00    -0.347 N 
ATOM      7  H   UNL     1       3.752   0.651  -2.245  0.00  0.00    +0.143 HD
ATOM      8  H   UNL     1       3.638   1.810  -1.035  0.00  0.00    +0.143 HD
ATOM      9  N   UNL     1       1.447  -0.403  -1.790  0.00  0.00    -0.324 N 
ATOM     10  H   UNL     1       1.867  -0.922  -2.569  0.00  0.00    +0.166 HD
ENDROOT
BRANCH   1  14
ATOM     11  C   UNL     1      -1.974   4.435   2.420  0.00  0.00    +0.121 A 
ATOM     12  C   UNL     1      -0.601   4.459   2.221  0.00  0.00    +0.046 A 
ATOM     13  C   UNL     1      -0.022   3.607   1.300  0.00  0.00    +0.007 A 
ATOM     14  C   UNL     1      -0.810   2.732   0.576  0.00  0.00    -0.040 A 
ATOM     15  C   UNL     1      -2.179   2.710   0.768  0.00  0.00    +0.007 A 
ATOM     16  C   UNL     1      -2.762   3.555   1.692  0.00  0.00    +0.046 A 
BRANCH  11  17
ATOM     17  O   UNL     1      -2.545   5.272   3.325  0.00  0.00    -0.492 OA
BRANCH  17  19
ATOM     18  C   UNL     1      -4.421   6.201   4.531  0.00  0.00    +0.048 C 
ATOM     19  C   UNL     1      -3.964   5.192   3.477  0.00  0.00    +0.225 C 
ENDBRANCH  17  19
ENDBRANCH  11  17
ENDBRANCH   1  14
BRANCH   4  20
ATOM     20  O   UNL     1       0.097  -2.026  -0.703  0.00  0.00    -0.334 OA
ATOM     21  C   UNL     1       1.155  -2.312   0.213  0.00  0.00    +0.199 C 
ENDBRANCH   4  20
BRANCH   4  22
ATOM     22  O   UNL     1      -0.883  -0.543  -2.227  0.00  0.00    -0.334 OA
ATOM     23  C   UNL     1      -0.683  -1.373  -3.373  0.00  0.00    +0.199 C 
ENDBRANCH   4  22
BRANCH   3  24
ATOM     24  C   UNL     1      -0.780  -0.173   1.145  0.00  0.00    +0.079 C 
ATOM     25  N   UNL     1      -1.284  -0.550   2.090  0.00  0.00    -0.196 NA
ENDBRANCH   3  24
BRANCH   2  26
ATOM     26  C   UNL     1       1.804   1.536   1.218  0.00  0.00    +0.079 C 
ATOM     27  N   UNL     1       2.301   1.824   2.199  0.00  0.00    -0.195 NA
ENDBRANCH   2  26
TORSDOF 7
