REMARK  Name = ZINC66605742
REMARK  5 active torsions:
REMARK  status: ('A' for Active; 'I' for Inactive)
REMARK    1  A    between atoms: C_1  and  C_2
REMARK    2  A    between atoms: C_5  and  C_12
REMARK    3  A    between atoms: C_8  and  C_10
REMARK    4  A    between atoms: C_8  and  C_11
REMARK    5  A    between atoms: C_12  and  C_13
REMARK                            x       y       z     vdW  Elec       q    Type
REMARK                         _______ _______ _______ _____ _____    ______ ____
ROOT
ATOM      1  C   UNL     1      -3.539  -2.197  -1.264  0.00  0.00    +0.216 C 
ATOM      2  O   UNL     1      -2.943  -1.554  -2.102  0.00  0.00    -0.276 OA
ATOM      3  N   UNL     1      -4.821  -2.557  -1.477  0.00  0.00    -0.301 N 
ATOM      4  C   UNL     1      -5.557  -3.330  -0.468  0.00  0.00    +0.110 C 
ATOM      5  C   UNL     1      -6.856  -2.589  -0.131  0.00  0.00    +0.054 C 
ATOM      6  C   UNL     1      -7.628  -2.311  -1.417  0.00  0.00    +0.115 C 
ATOM      7  C   UNL     1      -6.804  -1.450  -2.368  0.00  0.00    +0.054 C 
ATOM      8  C   UNL     1      -5.507  -2.177  -2.719  0.00  0.00    +0.110 C 
ATOM      9  C   UNL     1      -8.946  -1.641  -1.106  0.00  0.00    +0.244 C 
ATOM     10  O   UNL     1      -9.115  -0.569  -0.565  0.00  0.00    -0.273 OA
ATOM     11  N   UNL     1      -9.896  -2.486  -1.558  0.00  0.00    -0.238 N 
ATOM     12  C   UNL     1      -9.359  -3.584  -2.105  0.00  0.00    +0.307 C 
ATOM     13  O   UNL     1     -10.013  -4.490  -2.582  0.00  0.00    -0.252 OA
ATOM     14  N   UNL     1      -8.013  -3.571  -2.067  0.00  0.00    -0.285 N 
ATOM     15  H   UNL     1     -10.849  -2.319  -1.495  0.00  0.00    +0.159 HD
ATOM     16  H   UNL     1      -7.415  -4.257  -2.403  0.00  0.00    +0.151 HD
ENDROOT
BRANCH   1  17
ATOM     17  C   UNL     1      -2.848  -2.593   0.015  0.00  0.00    +0.099 C 
BRANCH  17  21
ATOM     18  C   UNL     1      -0.019   1.526   0.010  0.00  0.00    +0.007 C 
ATOM     19  C   UNL     1       0.002  -0.004   0.002  0.00  0.00    -0.013 C 
ATOM     20  C   UNL     1      -1.433  -0.534   0.013  0.00  0.00    +0.007 C 
ATOM     21  C   UNL     1      -1.413  -2.063   0.004  0.00  0.00    -0.002 C 
ATOM     22  C   UNL     1      -0.673  -2.570   1.244  0.00  0.00    +0.010 C 
ATOM     23  C   UNL     1       0.763  -2.041   1.233  0.00  0.00    -0.034 C 
ATOM     24  C   UNL     1       0.742  -0.511   1.242  0.00  0.00    +0.009 C 
ATOM     25  C   UNL     1       1.479  -2.534  -0.026  0.00  0.00    +0.011 C 
ATOM     26  C   UNL     1       1.503  -2.548   2.473  0.00  0.00    +0.011 C 
ENDBRANCH  17  21
ENDBRANCH   1  17
TORSDOF 2
