REMARK  Name = ZINC44179954
REMARK  10 active torsions:
REMARK  status: ('A' for Active; 'I' for Inactive)
REMARK    1  A    between atoms: C_1  and  N_2
REMARK    2  A    between atoms: C_3  and  C_5
REMARK    3  A    between atoms: C_5  and  C_6
REMARK    4  A    between atoms: C_11  and  N_12
REMARK    5  A    between atoms: N_15  and  C_16
REMARK    6  A    between atoms: C_16  and  C_17
REMARK    7  A    between atoms: C_17  and  C_19
REMARK    8  A    between atoms: C_17  and  N_24
REMARK    9  A    between atoms: N_24  and  C_25
REMARK   10  A    between atoms: N_24  and  C_26
REMARK                            x       y       z     vdW  Elec       q    Type
REMARK                         _______ _______ _______ _____ _____    ______ ____
ROOT
ATOM      1  N   UNL     1      -2.646  -2.343  -2.401  0.00  0.00    -0.269 N 
ATOM      2  C   UNL     1      -3.279  -2.627  -3.557  0.00  0.00    +0.304 C 
ATOM      3  O   UNL     1      -4.408  -3.078  -3.536  0.00  0.00    -0.253 OA
ATOM      4  N   UNL     1      -2.661  -2.411  -4.734  0.00  0.00    -0.300 N 
ATOM      5  H   UNL     1      -1.768  -1.931  -2.418  0.00  0.00    +0.156 HD
ATOM      6  H   UNL     1      -1.760  -2.051  -4.750  0.00  0.00    +0.150 HD
ENDROOT
BRANCH   1  12
ATOM      7  C   UNL     1      -2.484  -3.047  -0.096  0.00  0.00    -0.017 A 
ATOM      8  C   UNL     1      -3.088  -3.336   1.112  0.00  0.00    +0.006 A 
ATOM      9  C   UNL     1      -4.460  -3.229   1.244  0.00  0.00    +0.000 A 
ATOM     10  C   UNL     1      -5.232  -2.832   0.167  0.00  0.00    +0.002 A 
ATOM     11  C   UNL     1      -4.634  -2.541  -1.043  0.00  0.00    +0.023 A 
ATOM     12  C   UNL     1      -3.256  -2.642  -1.177  0.00  0.00    +0.038 A 
BRANCH   7  13
ATOM     13  C   UNL     1      -0.988  -3.164  -0.239  0.00  0.00    +0.132 C 
BRANCH  13  16
ATOM     14  C   UNL     1       1.601  -0.372   0.150  0.00  0.00    +0.128 C 
ATOM     15  N   UNL     1       0.985  -1.681  -0.079  0.00  0.00    -0.318 N 
ATOM     16  C   UNL     1      -0.354  -1.818  -0.003  0.00  0.00    +0.217 C 
ATOM     17  O   UNL     1      -1.048  -0.858   0.256  0.00  0.00    -0.275 OA
ATOM     18  H   UNL     1       1.540  -2.449  -0.286  0.00  0.00    +0.148 HD
ENDBRANCH  13  16
ENDBRANCH   7  13
ENDBRANCH   1  12
BRANCH   4  19
ATOM     19  C   UNL     1      -3.349  -2.720  -5.990  0.00  0.00    +0.095 C 
BRANCH  19  20
ATOM     20  C   UNL     1      -2.390  -2.505  -7.163  0.00  0.00    -0.014 C 
BRANCH  20  21
ATOM     21  C   UNL     1      -1.225  -3.453  -7.040  0.00  0.00    -0.022 A 
ATOM     22  C   UNL     1       0.022  -3.216  -6.566  0.00  0.00    +0.009 A 
ATOM     23  C   UNL     1       0.940  -4.249  -6.547  0.00  0.00    +0.008 A 
ATOM     24  C   UNL     1       0.565  -5.470  -7.003  0.00  0.00    +0.045 A 
ATOM     25  S   UNL     1      -1.133  -5.182  -7.474  0.00  0.00    -0.103 S 
ENDBRANCH  20  21
BRANCH  20  26
ATOM     26  N   UNL     1      -3.097  -2.758  -8.426  0.00  0.00    +0.382 N 
ATOM     27  C   UNL     1      -4.163  -1.763  -8.598  0.00  0.00    -0.096 C 
ATOM     28  C   UNL     1      -2.150  -2.660  -9.545  0.00  0.00    -0.096 C 
ATOM     29  H   UNL     1      -3.500  -3.683  -8.406  0.00  0.00    -0.082 HD
ENDBRANCH  20  26
ENDBRANCH  19  20
ENDBRANCH   4  19
TORSDOF 7
