REMARK  Name = ZINC11899202
REMARK  10 active torsions:
REMARK  status: ('A' for Active; 'I' for Inactive)
REMARK    1  A    between atoms: C_1  and  C_2
REMARK    2  A    between atoms: C_4  and  N_28
REMARK    3  A    between atoms: C_7  and  N_8
REMARK    4  A    between atoms: C_9  and  C_11
REMARK    5  A    between atoms: N_13  and  C_14
REMARK    6  A    between atoms: C_14  and  C_15
REMARK    7  A    between atoms: C_15  and  C_17
REMARK    8  A    between atoms: C_15  and  N_58
REMARK    9  A    between atoms: N_21  and  C_22
REMARK   10  A    between atoms: C_27  and  N_60
REMARK                            x       y       z     vdW  Elec       q    Type
REMARK                         _______ _______ _______ _____ _____    ______ ____
ROOT
ATOM      1  C   UNL     1      -1.453  -0.506   3.907  0.00  0.00    +0.299 C 
ATOM      2  O   UNL     1      -2.508   0.028   4.180  0.00  0.00    -0.265 OA
ATOM      3  N   UNL     1      -1.106  -0.693   2.618  0.00  0.00    -0.309 N 
ATOM      4  H   UNL     1      -0.263  -1.120   2.400  0.00  0.00    +0.149 HD
ENDROOT
BRANCH   1   6
ATOM      5  N   UNL     1      -0.886  -0.769   6.288  0.00  0.00    -0.278 N 
ATOM      6  C   UNL     1      -0.539  -0.956   4.999  0.00  0.00    +0.303 C 
ATOM      7  O   UNL     1       0.516  -1.490   4.726  0.00  0.00    -0.265 OA
ATOM      8  H   UNL     1      -1.756  -0.399   6.507  0.00  0.00    +0.155 HD
BRANCH   5  15
ATOM      9  C   UNL     1      -1.092   0.615   8.766  0.00  0.00    +0.046 C 
ATOM     10  C   UNL     1      -0.058  -0.457   8.534  0.00  0.00    -0.027 A 
ATOM     11  C   UNL     1       0.823  -0.797   9.542  0.00  0.00    +0.038 A 
ATOM     12  C   UNL     1       1.775  -1.777   9.328  0.00  0.00    +0.127 A 
ATOM     13  C   UNL     1       1.846  -2.423   8.107  0.00  0.00    +0.034 A 
ATOM     14  C   UNL     1       0.965  -2.091   7.097  0.00  0.00    +0.026 A 
ATOM     15  C   UNL     1       0.007  -1.107   7.308  0.00  0.00    +0.037 A 
BRANCH  12  16
ATOM     16  N   UNL     1       2.722  -2.135  10.409  0.00  0.00    +0.056 N 
ATOM     17  O   UNL     1       3.561  -2.997  10.222  0.00  0.00    -0.126 OA
ATOM     18  O   UNL     1       2.661  -1.567  11.484  0.00  0.00    -0.126 OA
ENDBRANCH  12  16
ENDBRANCH   5  15
ENDBRANCH   1   6
BRANCH   3  19
ATOM     19  C   UNL     1      -2.002  -0.252   1.547  0.00  0.00    +0.095 C 
BRANCH  19  20
ATOM     20  C   UNL     1      -1.309  -0.434   0.195  0.00  0.00    -0.003 C 
BRANCH  20  26
ATOM     21  C   UNL     1      -0.717   1.888  -0.153  0.00  0.00    -0.097 C 
ATOM     22  C   UNL     1       0.460   2.846  -0.350  0.00  0.00    -0.098 C 
ATOM     23  C   UNL     1       1.836   1.446   1.065  0.00  0.00    -0.098 C 
ATOM     24  C   UNL     1       0.659   0.488   1.262  0.00  0.00    -0.097 C 
ATOM     25  C   UNL     1       2.428   3.768   0.717  0.00  0.00    -0.096 C 
ATOM     26  N   UNL     1      -0.191   0.523   0.054  0.00  0.00    +0.384 N 
ATOM     27  H   UNL     1       0.375   0.256  -0.760  0.00  0.00    -0.081 HD
ATOM     28  N   UNL     1       1.310   2.811   0.858  0.00  0.00    +0.375 N 
ATOM     29  H   UNL     1       0.744   3.078   1.672  0.00  0.00    -0.082 HD
ENDBRANCH  20  26
BRANCH  20  30
ATOM     30  C   UNL     1      -0.765  -1.836   0.094  0.00  0.00    +0.006 A 
ATOM     31  C   UNL     1       0.534  -2.171  -0.041  0.00  0.00    +0.021 A 
ATOM     32  C   UNL     1       0.603  -3.578  -0.096  0.00  0.00    +0.019 A 
ATOM     33  C   UNL     1      -0.657  -4.048   0.007  0.00  0.00    +0.085 A 
ATOM     34  N   UNL     1      -1.500  -2.983   0.130  0.00  0.00    -0.355 N 
ATOM     35  C   UNL     1      -2.956  -3.060   0.273  0.00  0.00    +0.148 C 
ENDBRANCH  20  30
ENDBRANCH  19  20
ENDBRANCH   3  19
TORSDOF 7
