REMARK  Name = ZINC45645774
REMARK  9 active torsions:
REMARK  status: ('A' for Active; 'I' for Inactive)
REMARK    1  A    between atoms: C_1  and  C_2
REMARK    2  A    between atoms: C_2  and  C_3
REMARK    3  A    between atoms: C_3  and  C_5
REMARK    4  A    between atoms: C_3  and  N_21
REMARK    5  A    between atoms: C_5  and  N_6
REMARK    6  A    between atoms: N_9  and  C_10
REMARK    7  A    between atoms: C_12  and  C_18
REMARK    8  A    between atoms: C_15  and  O_16
REMARK    9  A    between atoms: O_16  and  C_17
REMARK                            x       y       z     vdW  Elec       q    Type
REMARK                         _______ _______ _______ _____ _____    ______ ____
ROOT
ATOM      1  N   UNL     1       1.432  -2.526  -2.472  0.00  0.00    -0.301 N 
ATOM      2  C   UNL     1       1.464  -3.841  -2.769  0.00  0.00    +0.304 C 
ATOM      3  O   UNL     1       0.673  -4.601  -2.245  0.00  0.00    -0.253 OA
ATOM      4  N   UNL     1       2.372  -4.312  -3.647  0.00  0.00    -0.266 N 
ATOM      5  H   UNL     1       2.063  -1.919  -2.890  0.00  0.00    +0.150 HD
ATOM      6  H   UNL     1       3.046  -3.718  -4.012  0.00  0.00    +0.156 HD
ENDROOT
BRANCH   4   7
ATOM      7  C   UNL     1       2.341  -5.659  -4.031  0.00  0.00    +0.077 A 
ATOM      8  C   UNL     1       1.138  -6.340  -4.074  0.00  0.00    +0.040 A 
ATOM      9  C   UNL     1       1.112  -7.682  -4.458  0.00  0.00    +0.038 A 
ATOM     10  C   UNL     1       2.301  -8.332  -4.798  0.00  0.00    +0.017 A 
ATOM     11  C   UNL     1       3.497  -7.649  -4.753  0.00  0.00    +0.048 A 
ATOM     12  C   UNL     1       3.524  -6.314  -4.377  0.00  0.00    +0.141 A 
BRANCH   9  13
ATOM     13  C   UNL     1      -0.170  -8.413  -4.505  0.00  0.00    +0.242 C 
ATOM     14  O   UNL     1      -1.204  -7.847  -4.209  0.00  0.00    -0.270 OA
ATOM     15  N   UNL     1      -0.193  -9.709  -4.876  0.00  0.00    -0.325 N 
ATOM     16  H   UNL     1       0.632 -10.161  -5.113  0.00  0.00    +0.145 HD
ATOM     17  H   UNL     1      -1.036 -10.189  -4.907  0.00  0.00    +0.145 HD
ENDBRANCH   9  13
BRANCH  12  18
ATOM     18  O   UNL     1       4.705  -5.644  -4.340  0.00  0.00    -0.493 OA
ATOM     19  C   UNL     1       5.877  -6.374  -4.706  0.00  0.00    +0.277 C 
ENDBRANCH  12  18
ENDBRANCH   4   7
BRANCH   1  20
ATOM     20  C   UNL     1       0.445  -2.014  -1.518  0.00  0.00    +0.090 C 
BRANCH  20  21
ATOM     21  C   UNL     1       0.755  -0.550  -1.200  0.00  0.00    -0.051 C 
BRANCH  21  22
ATOM     22  N   UNL     1       1.995  -0.471  -0.417  0.00  0.00    +0.385 N 
ATOM     23  C   UNL     1       3.106  -1.043  -1.194  0.00  0.00    -0.073 C 
ATOM     24  C   UNL     1       4.422  -0.678  -0.506  0.00  0.00    +0.017 C 
ATOM     25  C   UNL     1       4.350  -1.041   0.955  0.00  0.00    -0.048 A 
ATOM     26  C   UNL     1       5.530  -1.118   1.680  0.00  0.00    +0.004 A 
ATOM     27  C   UNL     1       5.503  -1.445   3.021  0.00  0.00    +0.000 A 
ATOM     28  C   UNL     1       4.295  -1.696   3.644  0.00  0.00    +0.000 A 
ATOM     29  C   UNL     1       3.120  -1.622   2.923  0.00  0.00    +0.002 A 
ATOM     30  C   UNL     1       3.145  -1.295   1.575  0.00  0.00    -0.061 A 
ATOM     31  C   UNL     1       1.841  -1.233   0.825  0.00  0.00    -0.042 C 
ATOM     32  H   UNL     1       2.196   0.493  -0.199  0.00  0.00    -0.081 HD
ENDBRANCH  21  22
BRANCH  21  34
ATOM     33  C   UNL     1      -0.118   1.533  -0.132  0.00  0.00    +0.002 C 
ATOM     34  C   UNL     1      -0.397   0.051  -0.393  0.00  0.00    -0.017 C 
ENDBRANCH  21  34
ENDBRANCH  20  21
ENDBRANCH   1  20
TORSDOF 7
