REMARK  Name = ZINC15315049
REMARK  10 active torsions:
REMARK  status: ('A' for Active; 'I' for Inactive)
REMARK    1  A    between atoms: C_1  and  C_2
REMARK    2  A    between atoms: C_2  and  C_3
REMARK    3  A    between atoms: C_8  and  N_9
REMARK    4  A    between atoms: C_12  and  C_17
REMARK    5  A    between atoms: C_17  and  N_18
REMARK    6  A    between atoms: N_18  and  C_19
REMARK    7  A    between atoms: N_18  and  S_27
REMARK    8  A    between atoms: C_24  and  O_25
REMARK    9  A    between atoms: O_25  and  C_26
REMARK   10  A    between atoms: S_27  and  C_30
REMARK                            x       y       z     vdW  Elec       q    Type
REMARK                         _______ _______ _______ _____ _____    ______ ____
ROOT
ATOM      1  N   UNL     1      -0.764   0.912   6.306  0.00  0.00    -0.283 N 
ATOM      2  C   UNL     1      -0.682   0.906   4.927  0.00  0.00    +0.224 A 
ATOM      3  N   UNL     1      -1.754   0.607   4.197  0.00  0.00    -0.197 NA
ATOM      4  C   UNL     1      -1.675   0.595   2.878  0.00  0.00    +0.155 A 
ATOM      5  N   UNL     1      -0.535   0.890   2.278  0.00  0.00    -0.198 NA
ATOM      6  C   UNL     1       0.540   1.195   3.001  0.00  0.00    +0.217 A 
ATOM      7  N   UNL     1       0.466   1.202   4.328  0.00  0.00    -0.181 NA
ATOM      8  N   UNL     1       1.731   1.502   2.374  0.00  0.00    -0.327 N 
ATOM      9  H   UNL     1      -1.621   0.784   6.741  0.00  0.00    +0.155 HD
ATOM     10  H   UNL     1       1.784   1.496   1.405  0.00  0.00    +0.145 HD
ATOM     11  H   UNL     1       2.514   1.724   2.902  0.00  0.00    +0.145 HD
ENDROOT
BRANCH   1  17
ATOM     12  C   UNL     1       0.284   1.357   8.435  0.00  0.00    -0.026 A 
ATOM     13  C   UNL     1       1.424   1.545   9.191  0.00  0.00    +0.005 A 
ATOM     14  C   UNL     1       2.670   1.480   8.594  0.00  0.00    +0.000 A 
ATOM     15  C   UNL     1       2.778   1.227   7.239  0.00  0.00    +0.002 A 
ATOM     16  C   UNL     1       1.642   1.034   6.478  0.00  0.00    +0.023 A 
ATOM     17  C   UNL     1       0.389   1.103   7.074  0.00  0.00    +0.037 A 
BRANCH  12  19
ATOM     18  C   UNL     1      -1.431   0.059   9.669  0.00  0.00    +0.009 C 
ATOM     19  C   UNL     1      -1.073   1.427   9.087  0.00  0.00    +0.033 C 
ENDBRANCH  12  19
ENDBRANCH   1  17
BRANCH   4  20
ATOM     20  C   UNL     1      -2.890   0.251   2.055  0.00  0.00    +0.208 C 
BRANCH  20  21
ATOM     21  N   UNL     1      -3.702   1.454   1.857  0.00  0.00    -0.192 N 
BRANCH  21  22
ATOM     22  C   UNL     1      -4.545   1.905   2.879  0.00  0.00    +0.093 A 
ATOM     23  C   UNL     1      -4.044   2.717   3.886  0.00  0.00    +0.028 A 
ATOM     24  C   UNL     1      -4.879   3.165   4.892  0.00  0.00    +0.002 A 
ATOM     25  C   UNL     1      -6.212   2.798   4.903  0.00  0.00    +0.004 A 
ATOM     26  C   UNL     1      -6.718   1.985   3.905  0.00  0.00    +0.047 A 
ATOM     27  C   UNL     1      -5.888   1.536   2.891  0.00  0.00    +0.143 A 
BRANCH  27  28
ATOM     28  O   UNL     1      -6.384   0.735   1.910  0.00  0.00    -0.493 OA
ATOM     29  C   UNL     1      -7.770   0.397   1.987  0.00  0.00    +0.277 C 
ENDBRANCH  27  28
ENDBRANCH  21  22
BRANCH  21  30
ATOM     30  S   UNL     1      -3.624   2.279   0.424  0.00  0.00    +0.081 S 
ATOM     31  O   UNL     1      -4.788   3.091   0.358  0.00  0.00    -0.149 OA
ATOM     32  O   UNL     1      -3.304   1.324  -0.578  0.00  0.00    -0.149 OA
BRANCH  30  33
ATOM     33  C   UNL     1      -2.250   3.377   0.529  0.00  0.00    +0.146 A 
ATOM     34  C   UNL     1      -0.940   3.132   0.280  0.00  0.00    +0.036 A 
ATOM     35  C   UNL     1      -0.027   4.160   0.424  0.00  0.00    +0.010 A 
ATOM     36  C   UNL     1      -0.467   5.380   0.816  0.00  0.00    +0.047 A 
ATOM     37  S   UNL     1      -2.221   5.101   0.994  0.00  0.00    -0.077 S 
ENDBRANCH  30  33
ENDBRANCH  21  30
ENDBRANCH  20  21
ENDBRANCH   4  20
TORSDOF 8
