REMARK  Name = ZINC45725376
REMARK  9 active torsions:
REMARK  status: ('A' for Active; 'I' for Inactive)
REMARK    1  A    between atoms: C_1  and  O_2
REMARK    2  A    between atoms: O_2  and  C_3
REMARK    3  A    between atoms: C_8  and  C_9
REMARK    4  A    between atoms: C_9  and  C_11
REMARK    5  A    between atoms: C_9  and  N_26
REMARK    6  A    between atoms: C_11  and  N_12
REMARK    7  A    between atoms: N_15  and  C_16
REMARK    8  A    between atoms: C_21  and  C_22
REMARK    9  A    between atoms: C_22  and  C_23
REMARK                            x       y       z     vdW  Elec       q    Type
REMARK                         _______ _______ _______ _____ _____    ______ ____
ROOT
ATOM      1  N   UNL     1      -0.203  -3.692  -2.144  0.00  0.00    -0.300 N 
ATOM      2  C   UNL     1       0.171  -3.933  -3.416  0.00  0.00    +0.304 C 
ATOM      3  O   UNL     1       1.145  -3.373  -3.880  0.00  0.00    -0.253 OA
ATOM      4  N   UNL     1      -0.534  -4.796  -4.174  0.00  0.00    -0.269 N 
ATOM      5  H   UNL     1      -0.980  -4.139  -1.774  0.00  0.00    +0.150 HD
ATOM      6  H   UNL     1      -1.265  -5.300  -3.783  0.00  0.00    +0.156 HD
ENDROOT
BRANCH   4   7
ATOM      7  C   UNL     1      -0.213  -4.964  -5.526  0.00  0.00    +0.038 A 
ATOM      8  C   UNL     1       0.440  -3.952  -6.217  0.00  0.00    +0.023 A 
ATOM      9  C   UNL     1       0.756  -4.122  -7.551  0.00  0.00    +0.002 A 
ATOM     10  C   UNL     1       0.423  -5.298  -8.198  0.00  0.00    +0.000 A 
ATOM     11  C   UNL     1      -0.227  -6.307  -7.512  0.00  0.00    +0.006 A 
ATOM     12  C   UNL     1      -0.541  -6.146  -6.177  0.00  0.00    -0.017 A 
BRANCH  12  13
ATOM     13  C   UNL     1      -1.244  -7.249  -5.429  0.00  0.00    +0.132 C 
BRANCH  13  14
ATOM     14  C   UNL     1      -2.730  -6.999  -5.443  0.00  0.00    +0.215 C 
ATOM     15  O   UNL     1      -3.174  -6.020  -6.006  0.00  0.00    -0.276 OA
ATOM     16  N   UNL     1      -3.565  -7.861  -4.832  0.00  0.00    -0.329 N 
ATOM     17  H   UNL     1      -3.210  -8.644  -4.382  0.00  0.00    +0.145 HD
ATOM     18  H   UNL     1      -4.521  -7.700  -4.841  0.00  0.00    +0.145 HD
ENDBRANCH  13  14
ENDBRANCH  12  13
ENDBRANCH   4   7
BRANCH   1  19
ATOM     19  C   UNL     1       0.564  -2.755  -1.320  0.00  0.00    +0.095 C 
BRANCH  19  20
ATOM     20  C   UNL     1       0.011  -2.759   0.107  0.00  0.00    -0.017 C 
BRANCH  20  26
ATOM     21  C   UNL     1      -1.622  -0.857   0.056  0.00  0.00    +0.122 A 
ATOM     22  C   UNL     1      -2.921  -0.369   0.045  0.00  0.00    +0.046 A 
ATOM     23  C   UNL     1      -3.987  -1.245   0.085  0.00  0.00    +0.004 A 
ATOM     24  C   UNL     1      -3.762  -2.609   0.135  0.00  0.00    +0.000 A 
ATOM     25  C   UNL     1      -2.469  -3.098   0.146  0.00  0.00    +0.005 A 
ATOM     26  C   UNL     1      -1.399  -2.225   0.101  0.00  0.00    -0.018 A 
BRANCH  21  28
ATOM     27  C   UNL     1      -0.876   1.399  -0.029  0.00  0.00    +0.277 C 
ATOM     28  O   UNL     1      -0.571   0.004   0.016  0.00  0.00    -0.495 OA
ENDBRANCH  21  28
ENDBRANCH  20  26
BRANCH  20  29
ATOM     29  N   UNL     1       0.012  -4.133   0.628  0.00  0.00    +0.385 N 
ATOM     30  C   UNL     1      -0.569  -4.149   1.988  0.00  0.00    -0.078 C 
ATOM     31  C   UNL     1       0.248  -5.219   2.754  0.00  0.00    -0.020 C 
ATOM     32  C   UNL     1       1.672  -4.999   2.176  0.00  0.00    -0.020 C 
ATOM     33  C   UNL     1       1.396  -4.634   0.703  0.00  0.00    -0.078 C 
ATOM     34  H   UNL     1      -0.532  -4.727   0.021  0.00  0.00    -0.081 HD
ENDBRANCH  20  29
ENDBRANCH  19  20
ENDBRANCH   1  19
TORSDOF 8
