REMARK  Name = ZINC42679851
REMARK  8 active torsions:
REMARK  status: ('A' for Active; 'I' for Inactive)
REMARK    1  A    between atoms: C_1  and  C_2
REMARK    2  A    between atoms: C_2  and  N_3
REMARK    3  A    between atoms: C_6  and  N_9
REMARK    4  A    between atoms: N_9  and  C_10
REMARK    5  A    between atoms: N_9  and  C_11
REMARK    6  A    between atoms: C_11  and  C_12
REMARK    7  A    between atoms: C_15  and  C_18
REMARK    8  A    between atoms: C_18  and  N_20
REMARK                            x       y       z     vdW  Elec       q    Type
REMARK                         _______ _______ _______ _____ _____    ______ ____
ROOT
ATOM      1  C   UNL     1       2.232  -3.860   4.686  0.00  0.00    -0.043 C 
ENDROOT
BRANCH   1   2
ATOM      2  C   UNL     1       3.203  -4.219   5.781  0.00  0.00    -0.064 A 
ATOM      3  C   UNL     1       4.564  -4.178   5.535  0.00  0.00    +0.002 A 
ATOM      4  C   UNL     1       5.459  -4.505   6.533  0.00  0.00    +0.010 A 
ATOM      5  C   UNL     1       4.988  -4.879   7.794  0.00  0.00    +0.003 A 
ATOM      6  C   UNL     1       3.613  -4.918   8.035  0.00  0.00    +0.010 A 
ATOM      7  C   UNL     1       2.730  -4.583   7.029  0.00  0.00    +0.002 A 
BRANCH   5   8
ATOM      8  C   UNL     1       5.939  -5.231   8.866  0.00  0.00    +0.077 C 
ATOM      9  S   UNL     1       7.440  -4.415   8.981  0.00  0.00    -0.035 S 
BRANCH   8  10
ATOM     10  N   UNL     1       5.626  -6.195   9.755  0.00  0.00    -0.352 N 
ATOM     11  H   UNL     1       4.776  -6.657   9.689  0.00  0.00    +0.143 HD
ATOM     12  H   UNL     1       6.251  -6.426  10.459  0.00  0.00    +0.143 HD
ENDBRANCH   8  10
ENDBRANCH   5   8
ENDBRANCH   1   2
BRANCH   1  13
ATOM     13  N   UNL     1       1.955  -2.418   4.731  0.00  0.00    +0.382 N 
ATOM     14  C   UNL     1       1.264  -2.091   5.986  0.00  0.00    -0.095 C 
ATOM     15  H   UNL     1       2.824  -1.907   4.683  0.00  0.00    -0.081 HD
BRANCH  13  19
ATOM     16  N   UNL     1       0.713  -0.491   1.192  0.00  0.00    -0.303 NA
ATOM     17  C   UNL     1      -0.022  -0.153   2.418  0.00  0.00    +0.083 C 
ATOM     18  C   UNL     1       0.814  -0.544   3.639  0.00  0.00    +0.000 C 
ATOM     19  C   UNL     1       1.104  -2.047   3.593  0.00  0.00    -0.066 C 
ATOM     20  C   UNL     1       1.826  -2.380   2.284  0.00  0.00    +0.000 C 
ATOM     21  C   UNL     1       0.961  -1.935   1.103  0.00  0.00    +0.083 C 
BRANCH  16  23
ATOM     22  C   UNL     1      -0.019   1.526   0.010  0.00  0.00    +0.020 C 
ATOM     23  C   UNL     1       0.002  -0.004   0.002  0.00  0.00    +0.081 C 
ENDBRANCH  16  23
ENDBRANCH  13  19
ENDBRANCH   1  13
TORSDOF 6
