REMARK  Name = ZINC59169639
REMARK  11 active torsions:
REMARK  status: ('A' for Active; 'I' for Inactive)
REMARK    1  A    between atoms: C_1  and  C_2
REMARK    2  A    between atoms: C_7  and  N_8
REMARK    3  A    between atoms: N_8  and  C_9
REMARK    4  A    between atoms: C_9  and  N_11
REMARK    5  A    between atoms: N_11  and  C_12
REMARK    6  A    between atoms: N_11  and  C_20
REMARK    7  A    between atoms: C_12  and  C_13
REMARK    8  A    between atoms: C_22  and  C_28
REMARK    9  A    between atoms: C_22  and  C_29
REMARK   10  A    between atoms: C_24  and  C_26
REMARK   11  A    between atoms: C_24  and  C_27
REMARK                            x       y       z     vdW  Elec       q    Type
REMARK                         _______ _______ _______ _____ _____    ______ ____
ROOT
ATOM      1  N   UNL     1      -0.454   0.102   4.730  0.00  0.00    -0.305 N 
ENDROOT
BRANCH   1   2
ATOM      2  C   UNL     1      -0.623   1.560   4.689  0.00  0.00    +0.073 C 
ATOM      3  C   UNL     1      -1.743   1.909   3.706  0.00  0.00    +0.009 C 
ATOM      4  C   UNL     1      -1.923   3.425   3.643  0.00  0.00    -0.072 C 
ATOM      5  N   UNL     1      -0.677   4.112   3.336  0.00  0.00    +0.386 N 
ATOM      6  C   UNL     1       0.513   3.715   4.071  0.00  0.00    -0.072 C 
ATOM      7  C   UNL     1       0.671   2.203   4.189  0.00  0.00    +0.009 C 
ATOM      8  C   UNL     1       1.739   4.245   3.291  0.00  0.00    -0.010 C 
ATOM      9  C   UNL     1       0.559   4.355   5.462  0.00  0.00    -0.010 C 
ATOM     10  C   UNL     1      -2.559   3.937   4.935  0.00  0.00    -0.010 C 
ATOM     11  C   UNL     1      -2.915   3.721   2.495  0.00  0.00    -0.010 C 
ATOM     12  H   UNL     1      -0.489   4.003   2.336  0.00  0.00    -0.084 HD
ATOM     13  H   UNL     1      -0.822   5.116   3.473  0.00  0.00    -0.084 HD
ENDBRANCH   1   2
BRANCH   1  14
ATOM     14  C   UNL     1      -0.280  -0.589   3.586  0.00  0.00    +0.138 C 
ATOM     15  S   UNL     1      -0.229  -2.300   3.619  0.00  0.00    -0.018 S 
BRANCH  14  16
ATOM     16  N   UNL     1      -0.145   0.067   2.416  0.00  0.00    -0.296 N 
ATOM     17  H   UNL     1      -0.084   1.035   2.407  0.00  0.00    +0.154 HD
BRANCH  16  24
ATOM     18  C   UNL     1      -2.143   0.587   0.458  0.00  0.00    +0.045 C 
ATOM     19  C   UNL     1      -1.050  -0.426   0.232  0.00  0.00    -0.029 A 
ATOM     20  C   UNL     1      -0.994  -1.129  -0.956  0.00  0.00    +0.006 A 
ATOM     21  C   UNL     1       0.008  -2.058  -1.164  0.00  0.00    +0.020 A 
ATOM     22  C   UNL     1       0.959  -2.287  -0.184  0.00  0.00    +0.043 A 
ATOM     23  C   UNL     1       0.908  -1.586   1.006  0.00  0.00    +0.043 A 
ATOM     24  C   UNL     1      -0.094  -0.648   1.215  0.00  0.00    +0.037 A 
ATOM     25 CL   UNL     1       2.215  -3.455  -0.450  0.00  0.00    -0.083 Cl
ENDBRANCH  16  24
ENDBRANCH  14  16
ENDBRANCH   1  14
BRANCH   1  26
ATOM     26  C   UNL     1      -0.475  -0.602   6.015  0.00  0.00    +0.142 C 
BRANCH  26  27
ATOM     27  C   UNL     1       0.924  -0.677   6.569  0.00  0.00    -0.030 A 
ATOM     28  C   UNL     1       1.736  -1.750   6.251  0.00  0.00    +0.008 A 
ATOM     29  C   UNL     1       3.020  -1.819   6.759  0.00  0.00    +0.038 A 
ATOM     30  C   UNL     1       3.492  -0.815   7.586  0.00  0.00    +0.123 A 
ATOM     31  C   UNL     1       2.678   0.259   7.904  0.00  0.00    +0.038 A 
ATOM     32  C   UNL     1       1.397   0.330   7.391  0.00  0.00    +0.008 A 
ATOM     33  F   UNL     1       4.747  -0.882   8.083  0.00  0.00    -0.205 F 
ENDBRANCH  26  27
ENDBRANCH   1  26
TORSDOF 6
