REMARK  Name = ZINC48367224
REMARK  2 active torsions:
REMARK  status: ('A' for Active; 'I' for Inactive)
REMARK    1  A    between atoms: C_10  and  C_16
REMARK    2  A    between atoms: C_19  and  C_23
REMARK                            x       y       z     vdW  Elec       q    Type
REMARK                         _______ _______ _______ _____ _____    ______ ____
ROOT
ATOM      1  C   UNL     1      -0.133   1.070  -0.124  0.00  0.00    +0.002 A 
ATOM      2  C   UNL     1       1.008   1.860  -0.122  0.00  0.00    +0.002 A 
ATOM      3  C   UNL     1       2.259   1.281  -0.103  0.00  0.00    +0.028 A 
ATOM      4  C   UNL     1       2.384  -0.101  -0.085  0.00  0.00    +0.072 A 
ATOM      5  C   UNL     1       1.230  -0.906  -0.084  0.00  0.00    +0.091 A 
ATOM      6  C   UNL     1      -0.030  -0.303  -0.105  0.00  0.00    +0.030 A 
ATOM      7  N   UNL     1       1.642  -2.203  -0.059  0.00  0.00    -0.214 NA
ATOM      8  C   UNL     1       2.942  -2.246  -0.044  0.00  0.00    +0.205 A 
ATOM      9  N   UNL     1       3.451  -0.971  -0.067  0.00  0.00    -0.288 N 
ATOM     10  C   UNL     1       4.886  -0.668  -0.080  0.00  0.00    +0.211 C 
ATOM     11  N   UNL     1       5.608  -1.902   0.284  0.00  0.00    -0.294 N 
ATOM     12  C   UNL     1       5.126  -3.105  -0.213  0.00  0.00    +0.159 C 
ATOM     13  N   UNL     1       3.771  -3.365  -0.006  0.00  0.00    -0.259 N 
ATOM     14  N   UNL     1       5.899  -3.947  -0.838  0.00  0.00    -0.375 N 
ATOM     15  H   UNL     1       6.394  -1.874   0.851  0.00  0.00    +0.151 HD
ATOM     16  H   UNL     1       6.838  -3.740  -0.967  0.00  0.00    +0.158 HD
ATOM     17  H   UNL     1       3.430  -4.260   0.151  0.00  0.00    +0.158 HD
ATOM     18  H   UNL     1       5.535  -4.781  -1.175  0.00  0.00    +0.158 HD
ENDROOT
BRANCH  10  19
ATOM     19  C   UNL     1       5.301  -0.219  -1.457  0.00  0.00    +0.028 A 
ATOM     20  C   UNL     1       4.473  -0.459  -2.539  0.00  0.00    +0.011 A 
ATOM     21  C   UNL     1       4.848  -0.051  -3.802  0.00  0.00    +0.009 A 
ATOM     22  C   UNL     1       6.065   0.607  -3.989  0.00  0.00    -0.009 A 
ATOM     23  C   UNL     1       6.897   0.847  -2.895  0.00  0.00    +0.047 A 
ATOM     24  C   UNL     1       6.508   0.438  -1.633  0.00  0.00    +0.131 A 
ATOM     25  F   UNL     1       7.310   0.674  -0.572  0.00  0.00    -0.205 F 
BRANCH  22  26
ATOM     26  C   UNL     1       6.471   1.046  -5.341  0.00  0.00    +0.019 A 
ATOM     27  C   UNL     1       7.613   1.693  -5.731  0.00  0.00    +0.016 A 
ATOM     28  C   UNL     1       7.775   2.005  -7.063  0.00  0.00    +0.008 A 
ATOM     29  C   UNL     1       6.802   1.663  -7.946  0.00  0.00    +0.046 A 
ATOM     30  S   UNL     1       5.604   0.864  -6.891  0.00  0.00    -0.097 S 
ENDBRANCH  22  26
ENDBRANCH  10  19
TORSDOF 2
