REMARK  Name = ZINC58308310
REMARK  6 active torsions:
REMARK  status: ('A' for Active; 'I' for Inactive)
REMARK    1  A    between atoms: C_1  and  C_2
REMARK    2  A    between atoms: C_2  and  S_3
REMARK    3  A    between atoms: S_3  and  N_6
REMARK    4  A    between atoms: C_9  and  N_12
REMARK    5  A    between atoms: N_12  and  C_13
REMARK    6  A    between atoms: C_13  and  C_14
REMARK                            x       y       z     vdW  Elec       q    Type
REMARK                         _______ _______ _______ _____ _____    ______ ____
ROOT
ATOM      1  N   UNL     1       1.790  -5.974  -3.033  0.00  0.00    +0.381 N 
ATOM      2  H   UNL     1       2.167  -5.550  -3.868  0.00  0.00    -0.086 HD
ATOM      3  H   UNL     1       2.518  -6.488  -2.559  0.00  0.00    -0.086 HD
ENDROOT
BRANCH   1   7
ATOM      4  N   UNL     1       0.808  -2.241  -1.384  0.00  0.00    -0.181 NA
ATOM      5  C   UNL     1       1.887  -2.976  -0.709  0.00  0.00    +0.107 C 
ATOM      6  C   UNL     1       2.427  -4.046  -1.664  0.00  0.00    +0.001 C 
ATOM      7  C   UNL     1       1.271  -4.926  -2.144  0.00  0.00    -0.069 C 
ATOM      8  C   UNL     1       0.256  -4.069  -2.903  0.00  0.00    +0.001 C 
ATOM      9  C   UNL     1      -0.311  -2.999  -1.958  0.00  0.00    +0.107 C 
BRANCH   4  10
ATOM     10  S   UNL     1       0.851  -0.589  -1.490  0.00  0.00    +0.032 S 
ATOM     11  O   UNL     1       0.082  -0.280  -2.644  0.00  0.00    -0.158 OA
ATOM     12  O   UNL     1       2.232  -0.257  -1.430  0.00  0.00    -0.158 OA
BRANCH  10  14
ATOM     13  C   UNL     1      -0.019   1.526   0.010  0.00  0.00    +0.029 C 
ATOM     14  C   UNL     1       0.002  -0.004   0.002  0.00  0.00    +0.182 C 
ENDBRANCH  10  14
ENDBRANCH   4  10
ENDBRANCH   1   7
BRANCH   1  15
ATOM     15  C   UNL     1       0.702  -6.890  -3.398  0.00  0.00    -0.075 C 
BRANCH  15  16
ATOM     16  C   UNL     1       1.243  -7.981  -4.324  0.00  0.00    +0.010 C 
ATOM     17  C   UNL     1       1.704  -7.348  -5.642  0.00  0.00    +0.106 C 
ATOM     18  N   UNL     1       2.286  -8.405  -6.492  0.00  0.00    -0.329 N 
ATOM     19  C   UNL     1       1.585  -9.613  -6.536  0.00  0.00    +0.117 A 
ATOM     20  C   UNL     1       1.731 -10.661  -7.376  0.00  0.00    +0.064 A 
ATOM     21  C   UNL     1       0.787 -11.630  -7.011  0.00  0.00    +0.136 A 
ATOM     22  N   UNL     1       0.102 -11.177  -5.989  0.00  0.00    -0.178 NA
ATOM     23  N   UNL     1       0.584  -9.909  -5.667  0.00  0.00    -0.251 N 
ATOM     24  C   UNL     1       0.138  -9.008  -4.601  0.00  0.00    +0.148 C 
ATOM     25  H   UNL     1       3.107  -8.270  -6.991  0.00  0.00    +0.147 HD
ENDBRANCH  15  16
ENDBRANCH   1  15
TORSDOF 5
