REMARK  Name = ZINC08920106
REMARK  8 active torsions:
REMARK  status: ('A' for Active; 'I' for Inactive)
REMARK    1  A    between atoms: C_1  and  C_2
REMARK    2  A    between atoms: N_4  and  N_5
REMARK    3  A    between atoms: C_6  and  C_8
REMARK    4  A    between atoms: C_12  and  N_13
REMARK    5  A    between atoms: C_14  and  C_16
REMARK    6  A    between atoms: C_19  and  S_22
REMARK    7  A    between atoms: S_22  and  N_25
REMARK    8  A    between atoms: C_33  and  N_61
REMARK                            x       y       z     vdW  Elec       q    Type
REMARK                         _______ _______ _______ _____ _____    ______ ____
ROOT
ATOM      1  C   UNL     1      -3.570   5.860   7.255  0.00  0.00    +0.070 A 
ATOM      2  C   UNL     1      -4.436   6.008   8.409  0.00  0.00    -0.027 A 
ATOM      3  C   UNL     1      -5.225   4.943   8.681  0.00  0.00    -0.021 A 
ATOM      4  S   UNL     1      -4.836   3.762   7.423  0.00  0.00    -0.079 S 
ATOM      5  C   UNL     1      -3.636   4.662   6.555  0.00  0.00    +0.085 A 
ATOM      6  C   UNL     1      -6.205   4.827   9.805  0.00  0.00    -0.036 C 
ATOM      7  C   UNL     1      -5.801   7.198  10.096  0.00  0.00    -0.074 C 
ATOM      8  C   UNL     1      -4.500   7.250   9.290  0.00  0.00    +0.018 C 
ATOM      9  C   UNL     1      -6.952   5.950  11.822  0.00  0.00    -0.096 C 
ATOM     10  N   UNL     1      -5.898   5.896  10.787  0.00  0.00    +0.381 N 
ATOM     11  H   UNL     1      -4.998   5.688  11.236  0.00  0.00    -0.082 HD
ENDROOT
BRANCH   1  13
ATOM     12  N   UNL     1      -1.407   6.982   7.338  0.00  0.00    -0.230 N 
ATOM     13  C   UNL     1      -2.660   6.933   6.843  0.00  0.00    +0.263 C 
ATOM     14  O   UNL     1      -3.037   7.781   6.055  0.00  0.00    -0.269 OA
ATOM     15  H   UNL     1      -1.108   6.306   7.966  0.00  0.00    +0.173 HD
BRANCH  12  19
ATOM     16  C   UNL     1       1.649   9.160   7.016  0.00  0.00    +0.110 C 
ATOM     17  C   UNL     1       0.715   8.056   7.439  0.00  0.00    +0.226 C 
ATOM     18  O   UNL     1       1.089   7.212   8.224  0.00  0.00    -0.275 OA
ATOM     19  N   UNL     1      -0.538   8.008   6.944  0.00  0.00    -0.234 N 
ATOM     20  H   UNL     1      -0.838   8.683   6.316  0.00  0.00    +0.173 HD
ENDBRANCH  12  19
ENDBRANCH   1  13
BRANCH   5  21
ATOM     21  N   UNL     1      -2.920   4.281   5.431  0.00  0.00    -0.275 N 
ATOM     22  C   UNL     1      -3.120   3.066   4.884  0.00  0.00    +0.249 C 
ATOM     23  O   UNL     1      -3.929   2.304   5.377  0.00  0.00    -0.270 OA
ATOM     24  H   UNL     1      -2.275   4.890   5.039  0.00  0.00    +0.156 HD
BRANCH  22  25
ATOM     25  C   UNL     1      -2.357   2.660   3.686  0.00  0.00    +0.037 A 
ATOM     26  C   UNL     1      -2.562   1.402   3.117  0.00  0.00    +0.015 A 
ATOM     27  C   UNL     1      -1.846   1.030   1.998  0.00  0.00    +0.029 A 
ATOM     28  C   UNL     1      -0.927   1.900   1.439  0.00  0.00    +0.106 A 
ATOM     29  C   UNL     1      -0.715   3.147   2.002  0.00  0.00    +0.029 A 
ATOM     30  C   UNL     1      -1.427   3.534   3.118  0.00  0.00    +0.015 A 
BRANCH  28  31
ATOM     31  S   UNL     1      -0.017   1.417   0.010  0.00  0.00    +0.061 S 
ATOM     32  O   UNL     1       0.002  -0.004   0.002  0.00  0.00    -0.153 OA
ATOM     33  O   UNL     1       1.172   2.195   0.003  0.00  0.00    -0.153 OA
BRANCH  31  34
ATOM     34  N   UNL     1      -0.897   1.885  -1.312  0.00  0.00    -0.177 NA
ATOM     35  C   UNL     1      -1.909   1.071  -2.000  0.00  0.00    +0.109 C 
ATOM     36  C   UNL     1      -2.444   1.906  -3.183  0.00  0.00    +0.018 C 
ATOM     37  C   UNL     1      -1.295   2.918  -3.438  0.00  0.00    +0.018 C 
ATOM     38  C   UNL     1      -0.792   3.186  -1.998  0.00  0.00    +0.109 C 
ENDBRANCH  31  34
ENDBRANCH  28  31
ENDBRANCH  22  25
ENDBRANCH   5  21
TORSDOF 6
