REMARK  Name = ZINC37035677
REMARK  6 active torsions:
REMARK  status: ('A' for Active; 'I' for Inactive)
REMARK    1  A    between atoms: C_5  and  N_8
REMARK    2  A    between atoms: C_9  and  C_11
REMARK    3  A    between atoms: C_11  and  S_12
REMARK    4  A    between atoms: S_12  and  C_13
REMARK    5  A    between atoms: C_13  and  C_14
REMARK    6  A    between atoms: C_14  and  N_15
REMARK                            x       y       z     vdW  Elec       q    Type
REMARK                         _______ _______ _______ _____ _____    ______ ____
ROOT
ATOM      1  N   UNL     1       1.238  -2.081  -0.021  0.00  0.00    -0.283 N 
ATOM      2  C   UNL     1       0.155  -2.774   0.384  0.00  0.00    +0.227 C 
ATOM      3  O   UNL     1      -0.868  -2.189   0.670  0.00  0.00    -0.275 OA
ATOM      4  H   UNL     1       2.032  -2.552  -0.319  0.00  0.00    +0.155 HD
ENDROOT
BRANCH   1   9
ATOM      5  C   UNL     1       0.782   1.397  -1.133  0.00  0.00    +0.032 A 
ATOM      6  C   UNL     1       1.171   2.087   0.001  0.00  0.00    +0.020 A 
ATOM      7  C   UNL     1       1.582   1.397   1.127  0.00  0.00    +0.032 A 
ATOM      8  C   UNL     1       1.605   0.015   1.123  0.00  0.00    +0.041 A 
ATOM      9  C   UNL     1       1.215  -0.681  -0.014  0.00  0.00    +0.062 A 
ATOM     10  C   UNL     1       0.803   0.015  -1.143  0.00  0.00    +0.041 A 
ATOM     11 BR   UNL     1       0.270  -0.928  -2.694  0.00  0.00    -0.048 Br
ATOM     12 BR   UNL     1       2.167  -0.927   2.663  0.00  0.00    -0.048 Br
ATOM     13 BR   UNL     1       1.142   3.978   0.011  0.00  0.00    -0.050 Br
ENDBRANCH   1   9
BRANCH   2  14
ATOM     14  C   UNL     1       0.217  -4.277   0.483  0.00  0.00    +0.165 C 
BRANCH  14  15
ATOM     15  S   UNL     1      -1.384  -4.912   1.052  0.00  0.00    -0.153 S 
BRANCH  15  16
ATOM     16  C   UNL     1      -1.146  -6.709   1.117  0.00  0.00    +0.050 C 
BRANCH  16  17
ATOM     17  C   UNL     1      -2.438  -7.378   1.589  0.00  0.00    -0.076 C 
BRANCH  17  18
ATOM     18  N   UNL     1      -2.245  -8.833   1.641  0.00  0.00    +0.379 N 
ATOM     19  H   UNL     1      -3.098  -9.274   1.953  0.00  0.00    -0.090 HD
ATOM     20  H   UNL     1      -2.007  -9.174   0.722  0.00  0.00    -0.090 HD
ATOM     21  H   UNL     1      -1.500  -9.051   2.285  0.00  0.00    -0.090 HD
ENDBRANCH  17  18
ENDBRANCH  16  17
ENDBRANCH  15  16
ENDBRANCH  14  15
ENDBRANCH   2  14
TORSDOF 6
