REMARK  Name = ZINC37819249
REMARK  6 active torsions:
REMARK  status: ('A' for Active; 'I' for Inactive)
REMARK    1  A    between atoms: C_1  and  N_2
REMARK    2  A    between atoms: N_2  and  C_3
REMARK    3  A    between atoms: N_2  and  C_4
REMARK    4  A    between atoms: C_4  and  C_5
REMARK    5  A    between atoms: C_13  and  C_15
REMARK    6  A    between atoms: C_18  and  N_21
REMARK                            x       y       z     vdW  Elec       q    Type
REMARK                         _______ _______ _______ _____ _____    ______ ____
ROOT
ATOM      1  C   UNL     1      -2.047  -0.509  -1.621  0.00  0.00    +0.199 C 
ATOM      2  O   UNL     1      -1.461   0.145  -2.459  0.00  0.00    -0.278 OA
ATOM      3  N   UNL     1      -3.363  -0.763  -1.764  0.00  0.00    -0.300 N 
ATOM      4  C   UNL     1      -4.087  -1.548  -0.755  0.00  0.00    +0.126 C 
ATOM      5  C   UNL     1      -5.284  -0.726  -0.262  0.00  0.00    +0.126 C 
ATOM      6  N   UNL     1      -6.021  -0.223  -1.429  0.00  0.00    -0.298 N 
ATOM      7  C   UNL     1      -5.297   0.562  -2.439  0.00  0.00    +0.126 C 
ATOM      8  C   UNL     1      -4.100  -0.254  -2.929  0.00  0.00    +0.126 C 
ATOM      9  C   UNL     1      -7.337  -0.476  -1.572  0.00  0.00    +0.219 C 
ATOM     10  O   UNL     1      -7.952   0.010  -2.498  0.00  0.00    -0.275 OA
ENDROOT
BRANCH   9  11
ATOM     11  C   UNL     1      -8.045  -1.365  -0.581  0.00  0.00    +0.075 C 
ATOM     12  C   UNL     1      -8.186  -0.629   0.753  0.00  0.00    +0.011 C 
ATOM     13  C   UNL     1      -8.997   0.651   0.546  0.00  0.00    -0.016 C 
ATOM     14  C   UNL     1     -10.385   0.295   0.011  0.00  0.00    -0.075 C 
ATOM     15  C   UNL     1     -10.244  -0.440  -1.323  0.00  0.00    -0.016 C 
ATOM     16  C   UNL     1      -9.433  -1.721  -1.117  0.00  0.00    +0.011 C 
BRANCH  14  17
ATOM     17  N   UNL     1     -11.163   1.525  -0.188  0.00  0.00    +0.380 N 
ATOM     18  H   UNL     1     -10.690   2.120  -0.851  0.00  0.00    -0.090 HD
ATOM     19  H   UNL     1     -12.079   1.290  -0.541  0.00  0.00    -0.090 HD
ATOM     20  H   UNL     1     -11.257   2.010   0.692  0.00  0.00    -0.090 HD
ENDBRANCH  14  17
ENDBRANCH   9  11
BRANCH   1  21
ATOM     21  C   UNL     1      -1.303  -1.037  -0.422  0.00  0.00    +0.018 C 
BRANCH  21  23
ATOM     22  C   UNL     1       0.196   0.836  -0.400  0.00  0.00    -0.096 C 
ATOM     23  N   UNL     1       0.105  -0.627  -0.499  0.00  0.00    +0.382 N 
ATOM     24  C   UNL     1       0.855  -1.240   0.605  0.00  0.00    -0.096 C 
ATOM     25  H   UNL     1       0.496  -0.929  -1.379  0.00  0.00    -0.082 HD
ENDBRANCH  21  23
ENDBRANCH   1  21
TORSDOF 4
