REMARK  Name = ZINC34997531
REMARK  12 active torsions:
REMARK  status: ('A' for Active; 'I' for Inactive)
REMARK    1  A    between atoms: C_1  and  C_2
REMARK    2  A    between atoms: C_2  and  C_3
REMARK    3  A    between atoms: C_3  and  C_4
REMARK    4  A    between atoms: C_4  and  N_5
REMARK    5  A    between atoms: N_8  and  C_9
REMARK    6  A    between atoms: N_8  and  C_27
REMARK    7  A    between atoms: C_9  and  C_10
REMARK    8  A    between atoms: C_10  and  N_11
REMARK    9  A    between atoms: N_19  and  C_20
REMARK   10  A    between atoms: C_27  and  C_28
REMARK   11  A    between atoms: C_36  and  C_37
REMARK   12  A    between atoms: C_36  and  C_38
REMARK                            x       y       z     vdW  Elec       q    Type
REMARK                         _______ _______ _______ _____ _____    ______ ____
ROOT
ATOM      1  C   UNL     1       2.907  -5.386   3.750  0.00  0.00    +0.091 C 
ENDROOT
BRANCH   1   5
ATOM      2  N   UNL     1       1.999  -2.320   1.935  0.00  0.00    -0.299 N 
ATOM      3  C   UNL     1       2.067  -3.615   2.303  0.00  0.00    +0.302 C 
ATOM      4  O   UNL     1       1.437  -4.455   1.690  0.00  0.00    -0.253 OA
ATOM      5  N   UNL     1       2.833  -3.978   3.350  0.00  0.00    -0.283 N 
ATOM      6  H   UNL     1       2.501  -1.649   2.424  0.00  0.00    +0.150 HD
BRANCH   2   7
ATOM      7  C   UNL     1       1.166  -1.924   0.796  0.00  0.00    +0.106 C 
BRANCH   7   8
ATOM      8  C   UNL     1       1.265  -0.411   0.593  0.00  0.00    +0.018 C 
BRANCH   8  10
ATOM      9  C   UNL     1       0.495   1.515  -0.800  0.00  0.00    +0.004 C 
ATOM     10  C   UNL     1       0.395   0.002  -0.596  0.00  0.00    -0.002 C 
ENDBRANCH   8  10
ENDBRANCH   7   8
ENDBRANCH   2   7
BRANCH   5  11
ATOM     11  C   UNL     1       3.592  -2.966   4.089  0.00  0.00    +0.140 C 
BRANCH  11  12
ATOM     12  C   UNL     1       2.748  -2.429   5.216  0.00  0.00    -0.053 C 
ATOM     13  C   UNL     1       2.842  -2.917   6.432  0.00  0.00    -0.025 C 
ATOM     14  C   UNL     1       1.984  -2.345   7.534  0.00  0.00    +0.031 C 
ATOM     15  C   UNL     1       1.048  -1.274   6.958  0.00  0.00    -0.000 C 
ATOM     16  C   UNL     1       0.380  -1.711   5.644  0.00  0.00    +0.012 C 
ATOM     17  C   UNL     1       1.759  -1.298   4.992  0.00  0.00    +0.022 C 
ATOM     18  C   UNL     1       1.837  -0.253   6.114  0.00  0.00    -0.025 C 
ATOM     19  C   UNL     1       3.258   0.003   6.620  0.00  0.00    +0.012 C 
ATOM     20  C   UNL     1       1.063   1.034   5.818  0.00  0.00    +0.012 C 
ENDBRANCH  11  12
ENDBRANCH   5  11
ENDBRANCH   1   5
BRANCH   1  21
ATOM     21  C   UNL     1       4.054  -6.069   3.002  0.00  0.00    -0.059 C 
BRANCH  21  22
ATOM     22  N   UNL     1       4.128  -7.480   3.403  0.00  0.00    +0.383 N 
ATOM     23  C   UNL     1       4.475  -7.565   4.827  0.00  0.00    -0.059 C 
ATOM     24  C   UNL     1       4.440  -9.030   5.274  0.00  0.00    +0.091 C 
ATOM     25  N   UNL     1       5.319  -9.809   4.387  0.00  0.00    -0.289 N 
ATOM     26  C   UNL     1       5.148  -9.657   2.934  0.00  0.00    +0.091 C 
ATOM     27  C   UNL     1       5.149  -8.162   2.598  0.00  0.00    -0.059 C 
ATOM     28  C   UNL     1       6.255 -10.636   4.893  0.00  0.00    +0.306 C 
ATOM     29  O   UNL     1       6.445 -10.679   6.093  0.00  0.00    -0.252 OA
ATOM     30  N   UNL     1       6.980 -11.417   4.067  0.00  0.00    -0.267 N 
ATOM     31  H   UNL     1       6.875 -11.337   3.107  0.00  0.00    +0.156 HD
ATOM     32  H   UNL     1       3.233  -7.919   3.250  0.00  0.00    -0.082 HD
BRANCH  30  33
ATOM     33  C   UNL     1       7.886 -12.345   4.597  0.00  0.00    +0.070 A 
ATOM     34  C   UNL     1       7.786 -12.733   5.926  0.00  0.00    +0.026 A 
ATOM     35  C   UNL     1       8.681 -13.649   6.447  0.00  0.00    +0.002 A 
ATOM     36  C   UNL     1       9.675 -14.179   5.645  0.00  0.00    +0.003 A 
ATOM     37  C   UNL     1       9.778 -13.796   4.321  0.00  0.00    +0.040 A 
ATOM     38  C   UNL     1       8.883 -12.884   3.792  0.00  0.00    +0.145 A 
ATOM     39  F   UNL     1       8.980 -12.514   2.496  0.00  0.00    -0.204 F 
ENDBRANCH  30  33
ENDBRANCH  21  22
ENDBRANCH   1  21
TORSDOF 9
