REMARK  Name = ZINC39855973
REMARK  9 active torsions:
REMARK  status: ('A' for Active; 'I' for Inactive)
REMARK    1  A    between atoms: C_1  and  C_2
REMARK    2  A    between atoms: C_6  and  C_7
REMARK    3  A    between atoms: N_9  and  C_10
REMARK    4  A    between atoms: N_9  and  C_17
REMARK    5  A    between atoms: C_10  and  C_11
REMARK    6  A    between atoms: C_17  and  C_18
REMARK    7  A    between atoms: C_25  and  C_33
REMARK    8  A    between atoms: C_25  and  C_34
REMARK    9  A    between atoms: N_28  and  N_29
REMARK                            x       y       z     vdW  Elec       q    Type
REMARK                         _______ _______ _______ _____ _____    ______ ____
ROOT
ATOM      1  C   UNL     1       0.051   1.516   0.032  0.00  0.00    +0.048 C 
ATOM      2  C   UNL     1       0.092   0.010   0.017  0.00  0.00    +0.009 A 
ATOM      3  C   UNL     1       0.135  -0.819  -1.111  0.00  0.00    +0.043 A 
ATOM      4  C   UNL     1       0.160  -2.119  -0.666  0.00  0.00    +0.116 A 
ATOM      5  O   UNL     1       0.138  -2.100   0.664  0.00  0.00    -0.454 OA
ATOM      6  C   UNL     1       0.099  -0.821   1.102  0.00  0.00    +0.193 A 
ATOM      7  C   UNL     1       0.204  -3.304  -1.598  0.00  0.00    +0.081 C 
ATOM      8  C   UNL     1      -0.295  -2.881  -2.983  0.00  0.00    -0.023 C 
ATOM      9  C   UNL     1       0.471  -1.650  -3.480  0.00  0.00    +0.064 C 
ATOM     10  C   UNL     1       0.155  -0.486  -2.553  0.00  0.00    +0.073 C 
ATOM     11  N   UNL     1      -0.078   0.711  -2.994  0.00  0.00    -0.175 NA
ATOM     12  C   UNL     1      -1.786  -2.547  -2.901  0.00  0.00    +0.011 C 
ATOM     13  C   UNL     1      -0.091  -4.034  -3.967  0.00  0.00    +0.011 C 
ENDROOT
BRANCH  11  14
ATOM     14  N   UNL     1      -0.045   0.970  -4.371  0.00  0.00    -0.248 N 
ATOM     15  C   UNL     1      -0.292   2.233  -4.836  0.00  0.00    +0.187 C 
ATOM     16  N   UNL     1      -0.261   2.479  -6.146  0.00  0.00    -0.370 N 
ATOM     17  N   UNL     1      -0.564   3.217  -3.980  0.00  0.00    -0.370 N 
ATOM     18  H   UNL     1       0.152   0.253  -4.994  0.00  0.00    +0.192 HD
ATOM     19  H   UNL     1      -0.436   3.374  -6.476  0.00  0.00    +0.159 HD
ATOM     20  H   UNL     1      -0.587   3.039  -3.027  0.00  0.00    +0.159 HD
ATOM     21  H   UNL     1      -0.739   4.113  -4.310  0.00  0.00    +0.159 HD
ATOM     22  H   UNL     1      -0.063   1.762  -6.769  0.00  0.00    +0.159 HD
ENDBRANCH  11  14
BRANCH   6  23
ATOM     23  C   UNL     1       0.069  -0.397   2.507  0.00  0.00    +0.283 C 
ATOM     24  O   UNL     1       0.150   0.784   2.788  0.00  0.00    -0.267 OA
ATOM     25  N   UNL     1      -0.049  -1.316   3.486  0.00  0.00    -0.286 N 
BRANCH  25  26
ATOM     26  C   UNL     1      -0.195  -0.887   4.879  0.00  0.00    +0.143 C 
BRANCH  26  27
ATOM     27  C   UNL     1      -1.657  -0.722   5.204  0.00  0.00    -0.030 A 
ATOM     28  C   UNL     1      -2.277   0.497   5.000  0.00  0.00    +0.005 A 
ATOM     29  C   UNL     1      -3.618   0.648   5.298  0.00  0.00    +0.000 A 
ATOM     30  C   UNL     1      -4.340  -0.420   5.798  0.00  0.00    +0.000 A 
ATOM     31  C   UNL     1      -3.720  -1.639   6.001  0.00  0.00    +0.000 A 
ATOM     32  C   UNL     1      -2.380  -1.791   5.699  0.00  0.00    +0.005 A 
ENDBRANCH  26  27
ENDBRANCH  25  26
BRANCH  25  33
ATOM     33  C   UNL     1      -0.031  -2.743   3.157  0.00  0.00    +0.143 C 
BRANCH  33  34
ATOM     34  C   UNL     1       1.377  -3.268   3.273  0.00  0.00    -0.030 A 
ATOM     35  C   UNL     1       2.183  -3.337   2.152  0.00  0.00    +0.005 A 
ATOM     36  C   UNL     1       3.475  -3.819   2.259  0.00  0.00    +0.000 A 
ATOM     37  C   UNL     1       3.959  -4.231   3.486  0.00  0.00    +0.000 A 
ATOM     38  C   UNL     1       3.153  -4.161   4.607  0.00  0.00    +0.000 A 
ATOM     39  C   UNL     1       1.863  -3.676   4.501  0.00  0.00    +0.005 A 
ENDBRANCH  33  34
ENDBRANCH  25  33
ENDBRANCH   6  23
TORSDOF 6
