REMARK  Name = ZINC32505502
REMARK  7 active torsions:
REMARK  status: ('A' for Active; 'I' for Inactive)
REMARK    1  A    between atoms: C_1  and  C_2
REMARK    2  A    between atoms: C_4  and  C_26
REMARK    3  A    between atoms: C_6  and  N_8
REMARK    4  A    between atoms: N_20  and  C_21
REMARK    5  A    between atoms: C_21  and  C_23
REMARK    6  A    between atoms: C_23  and  C_24
REMARK    7  A    between atoms: C_23  and  C_25
REMARK                            x       y       z     vdW  Elec       q    Type
REMARK                         _______ _______ _______ _____ _____    ______ ____
ROOT
ATOM      1  N   UNL     1      -0.799   0.674  -2.269  0.00  0.00    -0.276 N 
ATOM      2  C   UNL     1      -0.833   1.600  -1.152  0.00  0.00    +0.116 C 
ATOM      3  C   UNL     1      -0.032   1.002   0.028  0.00  0.00    +0.190 C 
ATOM      4  S   UNL     1      -0.991   1.608   1.482  0.00  0.00    -0.028 S 
ATOM      5  O   UNL     1      -0.982   0.616   2.499  0.00  0.00    -0.174 OA
ATOM      6  O   UNL     1      -0.592   2.937   1.789  0.00  0.00    -0.174 OA
ATOM      7  C   UNL     1      -2.651   1.636   0.672  0.00  0.00    +0.182 C 
ATOM      8  C   UNL     1      -2.270   1.984  -0.780  0.00  0.00    +0.097 C 
ATOM      9  S   UNL     1      -3.235   0.951  -1.943  0.00  0.00    -0.086 S 
ATOM     10  C   UNL     1      -1.938   0.202  -2.809  0.00  0.00    +0.154 C 
ATOM     11  N   UNL     1      -2.047  -0.671  -3.804  0.00  0.00    -0.159 NA
ENDROOT
BRANCH   1  17
ATOM     12  C   UNL     1       3.327   1.774  -4.705  0.00  0.00    +0.044 C 
ATOM     13  C   UNL     1       2.449   0.780  -3.989  0.00  0.00    -0.048 A 
ATOM     14  C   UNL     1       2.856  -0.535  -3.859  0.00  0.00    +0.006 A 
ATOM     15  C   UNL     1       2.053  -1.449  -3.203  0.00  0.00    -0.048 A 
ATOM     16  C   UNL     1       0.841  -1.052  -2.674  0.00  0.00    +0.027 A 
ATOM     17  C   UNL     1       0.428   0.268  -2.803  0.00  0.00    +0.036 A 
ATOM     18  C   UNL     1       1.235   1.183  -3.467  0.00  0.00    +0.027 A 
ATOM     19  C   UNL     1       2.502  -2.881  -3.064  0.00  0.00    +0.044 C 
ENDBRANCH   1  17
BRANCH  11  20
ATOM     20  C   UNL     1      -3.251  -1.051  -4.226  0.00  0.00    +0.241 C 
ATOM     21  O   UNL     1      -4.250  -0.599  -3.701  0.00  0.00    -0.273 OA
BRANCH  20  22
ATOM     22  C   UNL     1      -3.376  -2.042  -5.354  0.00  0.00    +0.071 C 
ATOM     23  C   UNL     1      -2.691  -3.352  -4.960  0.00  0.00    +0.017 C 
ATOM     24  C   UNL     1      -4.855  -2.305  -5.641  0.00  0.00    +0.017 C 
ENDBRANCH  20  22
ENDBRANCH  11  20
TORSDOF 3
