REMARK  Name = ZINC67151641
REMARK  10 active torsions:
REMARK  status: ('A' for Active; 'I' for Inactive)
REMARK    1  A    between atoms: C_4  and  N_17
REMARK    2  A    between atoms: C_5  and  C_7
REMARK    3  A    between atoms: C_7  and  N_8
REMARK    4  A    between atoms: C_12  and  C_14
REMARK    5  A    between atoms: C_18  and  C_20
REMARK    6  A    between atoms: C_20  and  C_21
REMARK    7  A    between atoms: C_21  and  C_22
REMARK    8  A    between atoms: C_22  and  C_23
REMARK    9  A    between atoms: C_23  and  C_24
REMARK   10  A    between atoms: C_24  and  C_25
REMARK                            x       y       z     vdW  Elec       q    Type
REMARK                         _______ _______ _______ _____ _____    ______ ____
ROOT
ATOM      1  C   UNL     1       0.647   1.526  -0.809  0.00  0.00    +0.000 A 
ATOM      2  C   UNL     1       1.944   2.002  -0.883  0.00  0.00    +0.002 A 
ATOM      3  C   UNL     1       2.995   1.215  -0.458  0.00  0.00    +0.023 A 
ATOM      4  C   UNL     1       2.750  -0.057   0.046  0.00  0.00    +0.035 A 
ATOM      5  C   UNL     1       1.447  -0.531   0.119  0.00  0.00    -0.043 A 
ATOM      6  C   UNL     1       0.399   0.261  -0.309  0.00  0.00    +0.003 A 
ENDROOT
BRANCH   4   7
ATOM      7  N   UNL     1       3.813  -0.857   0.477  0.00  0.00    -0.285 N 
ATOM      8  C   UNL     1       5.068  -0.589   0.067  0.00  0.00    +0.217 C 
ATOM      9  O   UNL     1       5.265   0.285  -0.751  0.00  0.00    -0.275 OA
ATOM     10  H   UNL     1       3.647  -1.605   1.072  0.00  0.00    +0.155 HD
BRANCH   8  11
ATOM     11  C   UNL     1       6.227  -1.374   0.625  0.00  0.00    +0.096 C 
BRANCH  11  12
ATOM     12  C   UNL     1       7.531  -0.874  -0.002  0.00  0.00    +0.009 C 
BRANCH  12  13
ATOM     13  C   UNL     1       8.707  -1.671   0.565  0.00  0.00    +0.001 C 
BRANCH  13  14
ATOM     14  C   UNL     1      10.011  -1.171  -0.062  0.00  0.00    +0.005 C 
BRANCH  14  15
ATOM     15  C   UNL     1      11.187  -1.968   0.504  0.00  0.00    +0.042 C 
BRANCH  15  16
ATOM     16  C   UNL     1      12.471  -1.476  -0.113  0.00  0.00    -0.010 A 
ATOM     17  C   UNL     1      13.304  -0.497   0.317  0.00  0.00    +0.011 A 
ATOM     18  C   UNL     1      14.440  -0.212  -0.418  0.00  0.00    +0.008 A 
ATOM     19  C   UNL     1      14.687  -0.921  -1.547  0.00  0.00    +0.045 A 
ATOM     20  S   UNL     1      13.293  -2.035  -1.595  0.00  0.00    -0.102 S 
ENDBRANCH  15  16
ENDBRANCH  14  15
ENDBRANCH  13  14
ENDBRANCH  12  13
ENDBRANCH  11  12
ENDBRANCH   8  11
ENDBRANCH   4   7
BRANCH   5  21
ATOM     21  C   UNL     1       1.176  -1.910   0.664  0.00  0.00    -0.040 C 
BRANCH  21  22
ATOM     22  N   UNL     1       1.502  -2.913  -0.357  0.00  0.00    +0.390 N 
ATOM     23  C   UNL     1       0.575  -2.780  -1.501  0.00  0.00    -0.077 C 
ATOM     24  C   UNL     1       0.330  -4.231  -1.984  0.00  0.00    -0.020 C 
ATOM     25  C   UNL     1       0.303  -5.007  -0.640  0.00  0.00    -0.008 C 
ATOM     26  C   UNL     1       1.355  -4.266   0.211  0.00  0.00    +0.019 C 
ATOM     27  H   UNL     1       2.451  -2.780  -0.675  0.00  0.00    -0.080 HD
BRANCH  26  28
ATOM     28  C   UNL     1       2.672  -4.995   0.146  0.00  0.00    +0.197 C 
ATOM     29  O   UNL     1       3.646  -4.448  -0.326  0.00  0.00    -0.278 OA
ATOM     30  N   UNL     1       2.768  -6.256   0.614  0.00  0.00    -0.331 N 
ATOM     31  H   UNL     1       1.989  -6.694   0.992  0.00  0.00    +0.145 HD
ATOM     32  H   UNL     1       3.616  -6.725   0.573  0.00  0.00    +0.145 HD
ENDBRANCH  26  28
ENDBRANCH  21  22
ENDBRANCH   5  21
TORSDOF 10
