REMARK  Name = ZINC21324593
REMARK  9 active torsions:
REMARK  status: ('A' for Active; 'I' for Inactive)
REMARK    1  A    between atoms: C_1  and  C_2
REMARK    2  A    between atoms: C_2  and  C_27
REMARK    3  A    between atoms: N_3  and  N_4
REMARK    4  A    between atoms: C_8  and  S_11
REMARK    5  A    between atoms: N_9  and  N_10
REMARK    6  A    between atoms: S_11  and  C_12
REMARK    7  A    between atoms: C_12  and  C_13
REMARK    8  A    between atoms: N_15  and  C_16
REMARK    9  A    between atoms: C_17  and  C_25
REMARK                            x       y       z     vdW  Elec       q    Type
REMARK                         _______ _______ _______ _____ _____    ______ ____
ROOT
ATOM      1  N   UNL     1      -4.380  13.291  -7.080  0.00  0.00    -0.204 N 
ATOM      2  C   UNL     1      -3.995  12.321  -6.166  0.00  0.00    +0.254 A 
ATOM      3  N   UNL     1      -3.779  12.510  -4.886  0.00  0.00    -0.109 NA
ATOM      4  N   UNL     1      -3.415  11.281  -4.322  0.00  0.00    -0.119 NA
ATOM      5  C   UNL     1      -3.411  10.382  -5.278  0.00  0.00    +0.210 A 
ATOM      6  N   UNL     1      -3.773  11.001  -6.441  0.00  0.00    -0.211 N 
ATOM      7  H   UNL     1      -4.533  13.022  -8.136  0.00  0.00    +0.178 HD
ENDROOT
BRANCH   1  10
ATOM      8  C   UNL     1      -5.144  15.153  -8.961  0.00  0.00    +0.068 C 
ATOM      9  C   UNL     1      -4.934  15.522  -7.515  0.00  0.00    +0.063 C 
ATOM     10  N   UNL     1      -4.573  14.614  -6.659  0.00  0.00    -0.184 NA
BRANCH   9  11
ATOM     11  C   UNL     1      -5.137  16.912  -7.072  0.00  0.00    +0.000 A 
ATOM     12  C   UNL     1      -5.520  17.909  -7.980  0.00  0.00    +0.029 A 
ATOM     13  C   UNL     1      -5.705  19.196  -7.521  0.00  0.00    +0.111 A 
ATOM     14  N   UNL     1      -5.515  19.495  -6.249  0.00  0.00    -0.263 NA
ATOM     15  C   UNL     1      -5.149  18.590  -5.362  0.00  0.00    +0.111 A 
ATOM     16  C   UNL     1      -4.947  17.277  -5.732  0.00  0.00    +0.029 A 
ENDBRANCH   9  11
ENDBRANCH   1  10
BRANCH   6  17
ATOM     17  N   UNL     1      -3.892  10.404  -7.664  0.00  0.00    -0.294 N 
ATOM     18  H   UNL     1      -3.688   9.329  -7.774  0.00  0.00    +0.163 HD
ATOM     19  H   UNL     1      -4.191  11.000  -8.539  0.00  0.00    +0.163 HD
ENDBRANCH   6  17
BRANCH   5  20
ATOM     20  S   UNL     1      -3.016   8.675  -5.093  0.00  0.00    -0.075 S 
BRANCH  20  21
ATOM     21  C   UNL     1      -2.653   8.627  -3.320  0.00  0.00    +0.173 C 
BRANCH  21  22
ATOM     22  C   UNL     1      -2.279   7.222  -2.922  0.00  0.00    +0.228 C 
ATOM     23  O   UNL     1      -2.260   6.341  -3.755  0.00  0.00    -0.275 OA
ATOM     24  N   UNL     1      -1.965   6.946  -1.641  0.00  0.00    -0.278 N 
ATOM     25  H   UNL     1      -1.982   7.746  -0.886  0.00  0.00    +0.155 HD
BRANCH  24  26
ATOM     26  C   UNL     1      -1.621   5.653  -1.274  0.00  0.00    +0.090 A 
ATOM     27  C   UNL     1      -1.271   5.177  -0.019  0.00  0.00    +0.084 A 
ATOM     28  C   UNL     1      -0.951   3.765   0.100  0.00  0.00    -0.018 A 
ATOM     29  C   UNL     1      -1.032   3.059  -1.049  0.00  0.00    -0.004 A 
ATOM     30  S   UNL     1      -1.524   4.240  -2.273  0.00  0.00    -0.077 S 
ATOM     31  C   UNL     1      -0.761   1.597  -1.232  0.00  0.00    +0.043 C 
ATOM     32  C   UNL     1      -0.013   1.086   0.008  0.00  0.00    +0.005 C 
ATOM     33  C   UNL     1      -0.735   1.583   1.264  0.00  0.00    +0.005 C 
ATOM     34  C   UNL     1      -0.551   3.094   1.407  0.00  0.00    +0.037 C 
BRANCH  27  35
ATOM     35  C   UNL     1      -1.226   6.046   1.118  0.00  0.00    +0.102 C 
ATOM     36  N   UNL     1      -1.191   6.736   2.020  0.00  0.00    -0.191 NA
ENDBRANCH  27  35
ENDBRANCH  24  26
ENDBRANCH  21  22
ENDBRANCH  20  21
ENDBRANCH   5  20
TORSDOF 8
