REMARK  Name = ZINC66908418
REMARK  9 active torsions:
REMARK  status: ('A' for Active; 'I' for Inactive)
REMARK    1  A    between atoms: C_1  and  N_2
REMARK    2  A    between atoms: N_2  and  C_3
REMARK    3  A    between atoms: N_2  and  C_21
REMARK    4  A    between atoms: C_3  and  C_4
REMARK    5  A    between atoms: C_4  and  C_5
REMARK    6  A    between atoms: C_5  and  N_6
REMARK    7  A    between atoms: N_9  and  N_10
REMARK    8  A    between atoms: C_11  and  C_13
REMARK    9  A    between atoms: C_13  and  C_14
REMARK                            x       y       z     vdW  Elec       q    Type
REMARK                         _______ _______ _______ _____ _____    ______ ____
ROOT
ATOM      1  N   UNL     1      -0.082  -0.239   4.890  0.00  0.00    -0.298 N 
ATOM      2  C   UNL     1       0.384  -0.583   6.107  0.00  0.00    +0.316 C 
ATOM      3  O   UNL     1       1.426  -1.202   6.207  0.00  0.00    -0.251 OA
ATOM      4  N   UNL     1      -0.307  -0.242   7.213  0.00  0.00    -0.218 N 
ATOM      5  H   UNL     1      -0.913   0.254   4.810  0.00  0.00    +0.150 HD
ATOM      6  H   UNL     1       0.028  -0.490   8.089  0.00  0.00    +0.174 HD
ENDROOT
BRANCH   4   7
ATOM      7  N   UNL     1      -1.508   0.470   7.098  0.00  0.00    -0.233 N 
ATOM      8  C   UNL     1      -2.198   0.811   8.204  0.00  0.00    +0.234 C 
ATOM      9  O   UNL     1      -1.780   0.501   9.299  0.00  0.00    -0.274 OA
ATOM     10  H   UNL     1      -1.842   0.718   6.221  0.00  0.00    +0.173 HD
BRANCH   8  11
ATOM     11  C   UNL     1      -3.490   1.577   8.079  0.00  0.00    +0.135 C 
BRANCH  11  12
ATOM     12  C   UNL     1      -4.058   1.831   9.452  0.00  0.00    -0.003 A 
ATOM     13  C   UNL     1      -4.998   0.967   9.982  0.00  0.00    +0.007 A 
ATOM     14  C   UNL     1      -5.519   1.200  11.241  0.00  0.00    +0.000 A 
ATOM     15  C   UNL     1      -5.100   2.296  11.972  0.00  0.00    +0.003 A 
ATOM     16  C   UNL     1      -4.160   3.160  11.445  0.00  0.00    +0.038 A 
ATOM     17  C   UNL     1      -3.633   2.925  10.185  0.00  0.00    +0.127 A 
ATOM     18  F   UNL     1      -2.711   3.767   9.671  0.00  0.00    -0.205 F 
ENDBRANCH  11  12
ENDBRANCH   8  11
ENDBRANCH   4   7
BRANCH   1  19
ATOM     19  C   UNL     1       0.669  -0.610   3.687  0.00  0.00    +0.104 C 
BRANCH  19  20
ATOM     20  C   UNL     1      -0.071  -0.103   2.448  0.00  0.00    +0.000 C 
BRANCH  20  21
ATOM     21  C   UNL     1       0.713  -0.491   1.192  0.00  0.00    -0.077 C 
BRANCH  21  23
ATOM     22  C   UNL     1      -0.018   1.465   0.010  0.00  0.00    -0.096 C 
ATOM     23  N   UNL     1       0.002  -0.004   0.002  0.00  0.00    +0.380 N 
ATOM     24  H   UNL     1      -0.945  -0.353   0.009  0.00  0.00    -0.082 HD
BRANCH  23  25
ATOM     25  C   UNL     1       0.690  -0.478  -1.207  0.00  0.00    -0.069 C 
ATOM     26  C   UNL     1       0.710  -2.008  -1.215  0.00  0.00    -0.015 C 
ATOM     27  C   UNL     1       1.427  -2.501  -2.474  0.00  0.00    -0.002 C 
ATOM     28  C   UNL     1       0.687  -1.994  -3.713  0.00  0.00    -0.000 C 
ATOM     29  C   UNL     1       0.666  -0.464  -3.705  0.00  0.00    -0.002 C 
ATOM     30  C   UNL     1      -0.050   0.029  -2.446  0.00  0.00    -0.015 C 
ENDBRANCH  23  25
ENDBRANCH  21  23
ENDBRANCH  20  21
ENDBRANCH  19  20
ENDBRANCH   1  19
TORSDOF 8
