REMARK  Name = ZINC67292538
REMARK  5 active torsions:
REMARK  status: ('A' for Active; 'I' for Inactive)
REMARK    1  A    between atoms: C_1  and  C_2
REMARK    2  A    between atoms: C_5  and  N_9
REMARK    3  A    between atoms: C_11  and  C_21
REMARK    4  A    between atoms: N_23  and  C_24
REMARK    5  A    between atoms: C_24  and  C_25
REMARK                            x       y       z     vdW  Elec       q    Type
REMARK                         _______ _______ _______ _____ _____    ______ ____
ROOT
ATOM      1  N   UNL     1       0.011  -4.155  -0.033  0.00  0.00    -0.324 N 
ATOM      2  C   UNL     1       0.755  -4.789  -0.912  0.00  0.00    +0.212 A 
ATOM      3  C   UNL     1       0.896  -6.258  -0.871  0.00  0.00    +0.097 A 
ATOM      4  C   UNL     1       1.184  -6.900  -2.068  0.00  0.00    +0.030 A 
ATOM      5  C   UNL     1       1.321  -6.064  -3.263  0.00  0.00    +0.019 A 
ATOM      6  C   UNL     1       1.343  -6.638  -4.540  0.00  0.00    +0.026 A 
ATOM      7  C   UNL     1       1.471  -5.830  -5.647  0.00  0.00    +0.019 A 
ATOM      8  C   UNL     1       1.576  -4.453  -5.503  0.00  0.00    +0.019 A 
ATOM      9  C   UNL     1       1.557  -3.873  -4.251  0.00  0.00    +0.048 A 
ATOM     10  C   UNL     1       1.431  -4.668  -3.121  0.00  0.00    +0.137 A 
ATOM     11  O   UNL     1       1.414  -4.114  -1.888  0.00  0.00    -0.439 OA
ATOM     12 BR   UNL     1       1.502  -6.599  -7.375  0.00  0.00    -0.050 Br
ATOM     13  H   UNL     1      -0.470  -4.654   0.646  0.00  0.00    +0.169 HD
ENDROOT
BRANCH   1  18
ATOM     14  C   UNL     1      -0.392   1.473  -0.212  0.00  0.00    +0.044 C 
ATOM     15  C   UNL     1      -0.284  -0.029  -0.164  0.00  0.00    -0.049 A 
ATOM     16  C   UNL     1      -0.278  -0.757  -1.340  0.00  0.00    +0.005 A 
ATOM     17  C   UNL     1      -0.180  -2.132  -1.304  0.00  0.00    +0.027 A 
ATOM     18  C   UNL     1      -0.086  -2.791  -0.076  0.00  0.00    +0.060 A 
ATOM     19  C   UNL     1      -0.093  -2.050   1.109  0.00  0.00    +0.065 A 
ATOM     20  C   UNL     1      -0.186  -0.673   1.057  0.00  0.00    +0.025 A 
ATOM     21 CL   UNL     1       0.022  -2.857   2.641  0.00  0.00    -0.081 Cl
ENDBRANCH   1  18
BRANCH   3  22
ATOM     22  C   UNL     1       0.739  -7.010   0.386  0.00  0.00    +0.249 C 
ATOM     23  O   UNL     1       0.417  -6.430   1.406  0.00  0.00    -0.270 OA
ATOM     24  N   UNL     1       0.951  -8.341   0.406  0.00  0.00    -0.309 N 
ATOM     25  H   UNL     1       1.287  -8.790  -0.385  0.00  0.00    +0.149 HD
BRANCH  24  26
ATOM     26  C   UNL     1       0.676  -9.109   1.623  0.00  0.00    +0.136 C 
BRANCH  26  27
ATOM     27  C   UNL     1       0.999 -10.584   1.379  0.00  0.00    +0.135 C 
ATOM     28  C   UNL     1       0.681 -11.420   2.645  0.00  0.00    +0.035 C 
ATOM     29  C   UNL     1       0.447 -12.822   2.020  0.00  0.00    +0.031 C 
ATOM     30  C   UNL     1      -0.201 -12.473   0.663  0.00  0.00    +0.160 C 
ATOM     31  O   UNL     1       0.150 -11.118   0.352  0.00  0.00    -0.375 OA
ENDBRANCH  26  27
ENDBRANCH  24  26
ENDBRANCH   3  22
TORSDOF 4
