REMARK  Name = ZINC39631318
REMARK  13 active torsions:
REMARK  status: ('A' for Active; 'I' for Inactive)
REMARK    1  A    between atoms: C_1  and  C_2
REMARK    2  A    between atoms: C_2  and  C_4
REMARK    3  A    between atoms: C_2  and  N_11
REMARK    4  A    between atoms: C_4  and  C_5
REMARK    5  A    between atoms: C_5  and  C_6
REMARK    6  A    between atoms: C_6  and  C_7
REMARK    7  A    between atoms: C_7  and  C_8
REMARK    8  A    between atoms: C_7  and  C_9
REMARK    9  A    between atoms: C_7  and  O_10
REMARK   10  A    between atoms: C_12  and  C_14
REMARK   11  A    between atoms: C_25  and  C_27
REMARK   12  A    between atoms: C_32  and  O_33
REMARK   13  A    between atoms: O_33  and  C_34
REMARK                            x       y       z     vdW  Elec       q    Type
REMARK                         _______ _______ _______ _____ _____    ______ ____
ROOT
ATOM      1  C   UNL     1       2.776  -1.093   2.396  0.00  0.00    +0.100 C 
ATOM      2  C   UNL     1       2.679  -0.061   3.542  0.00  0.00    +0.121 C 
ATOM      3  N   UNL     1       3.999  -0.120   4.212  0.00  0.00    -0.296 N 
ATOM      4  C   UNL     1       4.970  -0.266   3.102  0.00  0.00    +0.115 C 
ATOM      5  C   UNL     1       4.281  -1.224   2.109  0.00  0.00    -0.004 C 
ATOM      6  C   UNL     1       4.585  -0.804   0.674  0.00  0.00    -0.010 C 
ATOM      7  C   UNL     1       6.078  -0.999   0.395  0.00  0.00    -0.082 C 
ATOM      8  N   UNL     1       6.436  -2.407   0.600  0.00  0.00    +0.379 N 
ATOM      9  C   UNL     1       6.229  -2.777   2.006  0.00  0.00    -0.082 C 
ATOM     10  C   UNL     1       4.742  -2.658   2.353  0.00  0.00    -0.010 C 
ATOM     11  C   UNL     1       4.258  -0.057   5.533  0.00  0.00    +0.250 C 
ATOM     12  O   UNL     1       3.341  -0.035   6.332  0.00  0.00    -0.270 OA
ATOM     13  H   UNL     1       5.859  -2.989   0.012  0.00  0.00    -0.086 HD
ATOM     14  H   UNL     1       7.406  -2.545   0.357  0.00  0.00    -0.086 HD
ENDROOT
BRANCH  11  15
ATOM     15  C   UNL     1       5.653  -0.012   6.010  0.00  0.00    +0.078 A 
ATOM     16  C   UNL     1       6.627   0.664   5.271  0.00  0.00    +0.017 A 
ATOM     17  C   UNL     1       7.929   0.702   5.722  0.00  0.00    +0.001 A 
ATOM     18  C   UNL     1       8.277   0.072   6.906  0.00  0.00    +0.004 A 
ATOM     19  C   UNL     1       7.324  -0.600   7.646  0.00  0.00    +0.046 A 
ATOM     20  C   UNL     1       6.008  -0.643   7.210  0.00  0.00    +0.132 A 
BRANCH  20  21
ATOM     21  O   UNL     1       5.070  -1.298   7.939  0.00  0.00    -0.494 OA
ATOM     22  C   UNL     1       5.506  -1.918   9.151  0.00  0.00    +0.277 C 
ENDBRANCH  20  21
ENDBRANCH  11  15
BRANCH   1  24
ATOM     23  N   UNL     1       1.648  -1.458   0.225  0.00  0.00    -0.312 N 
ATOM     24  C   UNL     1       2.051  -0.590   1.174  0.00  0.00    +0.218 C 
ATOM     25  O   UNL     1       1.831   0.596   1.044  0.00  0.00    -0.275 OA
ATOM     26  H   UNL     1       1.824  -2.406   0.328  0.00  0.00    +0.149 HD
BRANCH  23  28
ATOM     27  C   UNL     1      -0.549  -0.840  -0.654  0.00  0.00    +0.028 C 
ATOM     28  C   UNL     1       0.943  -0.969  -0.963  0.00  0.00    +0.070 C 
BRANCH  28  29
ATOM     29  C   UNL     1       1.142  -1.955  -2.116  0.00  0.00    +0.022 C 
BRANCH  29  30
ATOM     30  C   UNL     1       2.621  -1.990  -2.508  0.00  0.00    +0.005 C 
BRANCH  30  31
ATOM     31  C   UNL     1       2.820  -2.976  -3.661  0.00  0.00    +0.034 C 
BRANCH  31  32
ATOM     32  C   UNL     1       4.298  -3.011  -4.053  0.00  0.00    +0.061 C 
ATOM     33  C   UNL     1       4.478  -3.901  -5.284  0.00  0.00    +0.041 C 
ATOM     34  C   UNL     1       4.774  -1.593  -4.374  0.00  0.00    +0.041 C 
BRANCH  32  35
ATOM     35  O   UNL     1       5.066  -3.537  -2.968  0.00  0.00    -0.389 OA
ATOM     36  H   UNL     1       4.818  -4.436  -2.710  0.00  0.00    +0.210 HD
ENDBRANCH  32  35
ENDBRANCH  31  32
ENDBRANCH  30  31
ENDBRANCH  29  30
ENDBRANCH  28  29
ENDBRANCH  23  28
ENDBRANCH   1  24
TORSDOF 9
