REMARK  Name = ZINC42736727
REMARK  11 active torsions:
REMARK  status: ('A' for Active; 'I' for Inactive)
REMARK    1  A    between atoms: C_1  and  C_2
REMARK    2  A    between atoms: C_2  and  C_4
REMARK    3  A    between atoms: C_2  and  N_8
REMARK    4  A    between atoms: C_4  and  C_5
REMARK    5  A    between atoms: C_4  and  C_6
REMARK    6  A    between atoms: C_4  and  C_7
REMARK    7  A    between atoms: N_8  and  C_9
REMARK    8  A    between atoms: N_8  and  C_10
REMARK    9  A    between atoms: C_10  and  C_11
REMARK   10  A    between atoms: N_13  and  C_14
REMARK   11  A    between atoms: C_15  and  N_22
REMARK                            x       y       z     vdW  Elec       q    Type
REMARK                         _______ _______ _______ _____ _____    ______ ____
ROOT
ATOM      1  C   UNL     1       1.652  -1.346   3.272  0.00  0.00    +0.201 C 
ATOM      2  O   UNL     1       1.739  -0.400   4.026  0.00  0.00    -0.278 OA
ATOM      3  N   UNL     1       1.774  -2.601   3.750  0.00  0.00    -0.284 N 
ATOM      4  H   UNL     1       1.744  -3.356   3.142  0.00  0.00    +0.155 HD
ENDROOT
BRANCH   3   5
ATOM      5  C   UNL     1       1.945  -2.814   5.125  0.00  0.00    +0.073 A 
ATOM      6  C   UNL     1       2.901  -3.722   5.579  0.00  0.00    +0.049 A 
ATOM      7  C   UNL     1       3.066  -3.928   6.940  0.00  0.00    +0.044 A 
ATOM      8  C   UNL     1       2.283  -3.234   7.845  0.00  0.00    +0.044 A 
ATOM      9  C   UNL     1       1.334  -2.333   7.396  0.00  0.00    +0.042 A 
ATOM     10  C   UNL     1       1.167  -2.118   6.039  0.00  0.00    +0.065 A 
ATOM     11 CL   UNL     1      -0.020  -0.981   5.480  0.00  0.00    -0.082 Cl
ATOM     12 CL   UNL     1       2.490  -3.495   9.549  0.00  0.00    -0.083 Cl
BRANCH   6  13
ATOM     13  N   UNL     1       3.692  -4.423   4.662  0.00  0.00    -0.356 N 
ATOM     14  H   UNL     1       3.576  -4.278   3.710  0.00  0.00    +0.142 HD
ATOM     15  H   UNL     1       4.357  -5.054   4.979  0.00  0.00    +0.142 HD
ENDBRANCH   6  13
ENDBRANCH   3   5
BRANCH   1  16
ATOM     16  C   UNL     1       1.409  -1.120   1.802  0.00  0.00    +0.019 C 
BRANCH  16  17
ATOM     17  N   UNL     1       1.315   0.322   1.538  0.00  0.00    +0.386 N 
ATOM     18  C   UNL     1       2.665   0.894   1.453  0.00  0.00    -0.095 C 
ATOM     19  H   UNL     1       0.807   0.769   2.287  0.00  0.00    -0.081 HD
BRANCH  17  21
ATOM     20  C   UNL     1      -0.898   0.404   0.492  0.00  0.00    -0.013 C 
ATOM     21  C   UNL     1       0.609   0.542   0.269  0.00  0.00    -0.066 C 
BRANCH  21  22
ATOM     22  C   UNL     1       1.069  -0.495  -0.757  0.00  0.00    -0.050 C 
ATOM     23  C   UNL     1       0.536  -0.116  -2.140  0.00  0.00    +0.009 C 
ATOM     24  C   UNL     1       2.599  -0.533  -0.793  0.00  0.00    +0.009 C 
ATOM     25  C   UNL     1       0.534  -1.874  -0.364  0.00  0.00    +0.009 C 
ENDBRANCH  21  22
ENDBRANCH  17  21
ENDBRANCH  16  17
ENDBRANCH   1  16
TORSDOF 6
