REMARK  Name = ZINC20167911
REMARK  12 active torsions:
REMARK  status: ('A' for Active; 'I' for Inactive)
REMARK    1  A    between atoms: C_1  and  C_2
REMARK    2  A    between atoms: C_2  and  O_3
REMARK    3  A    between atoms: O_3  and  C_4
REMARK    4  A    between atoms: C_4  and  C_6
REMARK    5  A    between atoms: C_7  and  N_36
REMARK    6  A    between atoms: C_9  and  C_10
REMARK    7  A    between atoms: C_13  and  O_16
REMARK    8  A    between atoms: C_18  and  C_32
REMARK    9  A    between atoms: C_20  and  C_25
REMARK   10  A    between atoms: C_28  and  O_31
REMARK   11  A    between atoms: C_32  and  O_34
REMARK   12  A    between atoms: O_34  and  C_35
REMARK                            x       y       z     vdW  Elec       q    Type
REMARK                         _______ _______ _______ _____ _____    ______ ____
ROOT
ATOM      1  C   UNL     1       8.161   2.602   2.345  0.00  0.00    +0.155 A 
ATOM      2  C   UNL     1       9.381   2.955   1.811  0.00  0.00    +0.065 A 
ATOM      3  C   UNL     1       9.203   4.258   1.146  0.00  0.00    +0.024 A 
ATOM      4  C   UNL     1      10.149   4.973   0.436  0.00  0.00    +0.019 C 
ATOM      5  C   UNL     1       7.808   4.635   1.399  0.00  0.00    +0.079 A 
ATOM      6  C   UNL     1       7.208   5.847   1.106  0.00  0.00    +0.118 C 
ATOM      7  S   UNL     1       5.549   6.099   1.667  0.00  0.00    -0.099 S 
ATOM      8  C   UNL     1       4.876   4.413   1.722  0.00  0.00    +0.170 C 
ATOM      9  C   UNL     1       5.886   3.486   2.345  0.00  0.00    +0.250 C 
ATOM     10  O   UNL     1       5.511   2.646   3.135  0.00  0.00    -0.271 OA
ATOM     11  N   UNL     1       7.197   3.571   2.044  0.00  0.00    -0.270 N 
ENDROOT
BRANCH   4  12
ATOM     12  C   UNL     1      11.445   4.367   0.128  0.00  0.00    -0.024 A 
ATOM     13  C   UNL     1      12.622   5.121   0.249  0.00  0.00    +0.011 A 
ATOM     14  C   UNL     1      13.833   4.545  -0.037  0.00  0.00    +0.046 A 
ATOM     15  C   UNL     1      13.896   3.220  -0.455  0.00  0.00    +0.117 A 
ATOM     16  C   UNL     1      12.732   2.469  -0.582  0.00  0.00    +0.046 A 
ATOM     17  C   UNL     1      11.515   3.031  -0.295  0.00  0.00    +0.011 A 
BRANCH  15  18
ATOM     18  O   UNL     1      15.098   2.658  -0.741  0.00  0.00    -0.507 OA
ATOM     19  H   UNL     1      15.150   1.611  -1.072  0.00  0.00    +0.292 HD
ENDBRANCH  15  18
ENDBRANCH   4  12
BRANCH   8  20
ATOM     20  C   UNL     1       3.612   4.403   2.543  0.00  0.00    -0.025 A 
ATOM     21  C   UNL     1       2.419   4.006   1.968  0.00  0.00    +0.009 A 
ATOM     22  C   UNL     1       1.259   3.997   2.719  0.00  0.00    +0.046 A 
ATOM     23  C   UNL     1       1.292   4.386   4.050  0.00  0.00    +0.117 A 
ATOM     24  C   UNL     1       2.490   4.790   4.622  0.00  0.00    +0.046 A 
ATOM     25  C   UNL     1       3.648   4.793   3.869  0.00  0.00    +0.009 A 
BRANCH  23  26
ATOM     26  O   UNL     1       0.153   4.378   4.790  0.00  0.00    -0.507 OA
ATOM     27  H   UNL     1       0.180   4.687   5.845  0.00  0.00    +0.292 HD
ENDBRANCH  23  26
ENDBRANCH   8  20
BRANCH   2  28
ATOM     28  N   UNL     1      10.552   2.224   1.884  0.00  0.00    -0.356 N 
ATOM     29  H   UNL     1      11.470   2.609   1.416  0.00  0.00    +0.142 HD
ATOM     30  H   UNL     1      10.565   1.258   2.409  0.00  0.00    +0.142 HD
ENDBRANCH   2  28
BRANCH   1  31
ATOM     31  C   UNL     1       7.918   1.429   3.091  0.00  0.00    +0.358 C 
ATOM     32  O   UNL     1       6.898   0.790   2.906  0.00  0.00    -0.243 OA
BRANCH  31  33
ATOM     33  O   UNL     1       8.817   1.015   4.010  0.00  0.00    -0.460 OA
BRANCH  33  35
ATOM     34  C   UNL     1       9.633  -0.489   5.718  0.00  0.00    +0.048 C 
ATOM     35  C   UNL     1       8.506  -0.181   4.729  0.00  0.00    +0.229 C 
ENDBRANCH  33  35
ENDBRANCH  31  33
ENDBRANCH   1  31
BRANCH   6  36
ATOM     36  C   UNL     1       7.897   6.848   0.386  0.00  0.00    +0.347 C 
ATOM     37  O   UNL     1       8.435   7.765   0.980  0.00  0.00    -0.244 OA
BRANCH  36  38
ATOM     38  O   UNL     1       7.958   6.789  -0.963  0.00  0.00    -0.464 OA
ATOM     39  C   UNL     1       8.671   7.835  -1.626  0.00  0.00    +0.280 C 
ENDBRANCH  36  38
ENDBRANCH   6  36
TORSDOF 10
