REMARK  Name = ZINC14029999
REMARK  14 active torsions:
REMARK  status: ('A' for Active; 'I' for Inactive)
REMARK    1  A    between atoms: C_1  and  C_2
REMARK    2  A    between atoms: C_2  and  C_3
REMARK    3  A    between atoms: C_3  and  C_4
REMARK    4  A    between atoms: C_4  and  O_5
REMARK    5  A    between atoms: O_5  and  C_6
REMARK    6  A    between atoms: C_9  and  C_12
REMARK    7  A    between atoms: N_14  and  C_15
REMARK    8  A    between atoms: C_15  and  N_17
REMARK    9  A    between atoms: N_17  and  C_18
REMARK   10  A    between atoms: C_21  and  S_24
REMARK   11  A    between atoms: S_24  and  N_27
REMARK   12  A    between atoms: N_27  and  C_28
REMARK   13  A    between atoms: C_31  and  C_35
REMARK   14  A    between atoms: C_33  and  C_34
REMARK                            x       y       z     vdW  Elec       q    Type
REMARK                         _______ _______ _______ _____ _____    ______ ____
ROOT
ATOM      1  N   UNL     1       0.950   4.336   5.227  0.00  0.00    -0.297 N 
ATOM      2  H   UNL     1       1.358   3.918   6.002  0.00  0.00    +0.154 HD
ENDROOT
BRANCH   1   3
ATOM      3  C   UNL     1       1.058   3.732   3.970  0.00  0.00    +0.033 A 
ATOM      4  C   UNL     1       1.392   4.495   2.858  0.00  0.00    +0.025 A 
ATOM      5  C   UNL     1       1.498   3.896   1.618  0.00  0.00    +0.030 A 
ATOM      6  C   UNL     1       1.272   2.538   1.483  0.00  0.00    +0.109 A 
ATOM      7  C   UNL     1       0.934   1.777   2.587  0.00  0.00    +0.030 A 
ATOM      8  C   UNL     1       0.832   2.369   3.831  0.00  0.00    +0.025 A 
BRANCH   6   9
ATOM      9  S   UNL     1       1.409   1.778  -0.100  0.00  0.00    +0.072 S 
ATOM     10  O   UNL     1       1.196   2.802  -1.062  0.00  0.00    -0.150 OA
ATOM     11  O   UNL     1       0.616   0.599  -0.055  0.00  0.00    -0.150 OA
BRANCH   9  12
ATOM     12  N   UNL     1       2.980   1.285  -0.273  0.00  0.00    -0.216 N 
ATOM     13  H   UNL     1       3.522   1.638  -0.996  0.00  0.00    +0.174 HD
BRANCH  12  14
ATOM     14  C   UNL     1       3.523   0.357   0.619  0.00  0.00    +0.051 A 
ATOM     15  C   UNL     1       2.732  -0.665   1.128  0.00  0.00    +0.025 A 
ATOM     16  C   UNL     1       3.272  -1.581   2.009  0.00  0.00    +0.005 A 
ATOM     17  C   UNL     1       4.600  -1.481   2.385  0.00  0.00    -0.050 A 
ATOM     18  C   UNL     1       5.390  -0.465   1.880  0.00  0.00    +0.008 A 
ATOM     19  C   UNL     1       4.857   0.452   0.995  0.00  0.00    -0.028 A 
ATOM     20  C   UNL     1       5.721   1.555   0.440  0.00  0.00    +0.046 C 
ATOM     21  C   UNL     1       5.186  -2.483   3.346  0.00  0.00    +0.044 C 
ENDBRANCH  12  14
ENDBRANCH   9  12
ENDBRANCH   6   9
ENDBRANCH   1   3
BRANCH   1  22
ATOM     22  C   UNL     1       0.281   5.498   5.362  0.00  0.00    +0.141 C 
ATOM     23  S   UNL     1      -0.342   6.292   3.979  0.00  0.00    -0.018 S 
BRANCH  22  26
ATOM     24  C   UNL     1      -0.568   7.196   6.720  0.00  0.00    +0.250 C 
ATOM     25  O   UNL     1      -1.010   7.760   5.738  0.00  0.00    -0.270 OA
ATOM     26  N   UNL     1       0.101   6.034   6.585  0.00  0.00    -0.264 N 
ATOM     27  H   UNL     1       0.454   5.584   7.369  0.00  0.00    +0.157 HD
BRANCH  24  31
ATOM     28  C   UNL     1      -1.133   8.886  10.574  0.00  0.00    +0.121 A 
ATOM     29  C   UNL     1      -1.640   9.533   9.452  0.00  0.00    +0.046 A 
ATOM     30  C   UNL     1      -1.458   8.988   8.201  0.00  0.00    +0.016 A 
ATOM     31  C   UNL     1      -0.764   7.783   8.059  0.00  0.00    +0.037 A 
ATOM     32  C   UNL     1      -0.262   7.133   9.190  0.00  0.00    +0.016 A 
ATOM     33  C   UNL     1      -0.442   7.688  10.437  0.00  0.00    +0.046 A 
BRANCH  28  34
ATOM     34  O   UNL     1      -1.314   9.427  11.805  0.00  0.00    -0.492 OA
BRANCH  34  35
ATOM     35  C   UNL     1      -0.768   8.710  12.914  0.00  0.00    +0.229 C 
BRANCH  35  36
ATOM     36  C   UNL     1      -1.069   9.467  14.209  0.00  0.00    +0.041 C 
BRANCH  36  38
ATOM     37  C   UNL     1      -0.786   9.457  16.692  0.00  0.00    +0.004 C 
ATOM     38  C   UNL     1      -0.484   8.700  15.397  0.00  0.00    -0.000 C 
ENDBRANCH  36  38
ENDBRANCH  35  36
ENDBRANCH  34  35
ENDBRANCH  28  34
ENDBRANCH  24  31
ENDBRANCH  22  26
ENDBRANCH   1  22
TORSDOF 11
