REMARK  Name = ZINC38976633
REMARK  8 active torsions:
REMARK  status: ('A' for Active; 'I' for Inactive)
REMARK    1  A    between atoms: C_1  and  C_2
REMARK    2  A    between atoms: C_2  and  C_3
REMARK    3  A    between atoms: C_3  and  C_4
REMARK    4  A    between atoms: C_4  and  N_5
REMARK    5  A    between atoms: C_14  and  C_19
REMARK    6  A    between atoms: C_16  and  O_18
REMARK    7  A    between atoms: N_21  and  C_22
REMARK    8  A    between atoms: C_24  and  O_34
REMARK                            x       y       z     vdW  Elec       q    Type
REMARK                         _______ _______ _______ _____ _____    ______ ____
ROOT
ATOM      1  C   UNL     1       1.132  -0.661   4.702  0.00  0.00    +0.229 C 
ATOM      2  O   UNL     1       0.593  -0.161   3.738  0.00  0.00    -0.275 OA
ATOM      3  N   UNL     1       1.742   0.121   5.615  0.00  0.00    -0.297 N 
ATOM      4  H   UNL     1       2.173  -0.278   6.386  0.00  0.00    +0.150 HD
ENDROOT
BRANCH   3   5
ATOM      5  C   UNL     1       1.752   1.576   5.442  0.00  0.00    +0.226 C 
ATOM      6  C   UNL     1       3.006   2.115   6.104  0.00  0.00    +0.132 C 
ATOM      7  C   UNL     1       2.832   3.064   7.114  0.00  0.00    +0.036 A 
ATOM      8  C   UNL     1       3.944   3.616   7.782  0.00  0.00    +0.013 A 
ATOM      9  C   UNL     1       3.747   4.540   8.762  0.00  0.00    +0.001 A 
ATOM     10  C   UNL     1       2.467   4.952   9.121  0.00  0.00    +0.002 A 
ATOM     11  C   UNL     1       1.355   4.454   8.511  0.00  0.00    +0.024 A 
ATOM     12  C   UNL     1       1.483   3.497   7.490  0.00  0.00    +0.044 A 
ATOM     13  N   UNL     1       0.389   3.009   6.893  0.00  0.00    -0.283 N 
ATOM     14  C   UNL     1       0.425   2.111   5.930  0.00  0.00    +0.245 C 
ATOM     15  O   UNL     1      -0.612   1.712   5.432  0.00  0.00    -0.273 OA
ATOM     16  H   UNL     1      -0.477   3.334   7.185  0.00  0.00    +0.155 HD
BRANCH   6  17
ATOM     17  O   UNL     1       4.223   1.699   5.739  0.00  0.00    -0.508 OA
ATOM     18  H   UNL     1       4.944   2.113   6.232  0.00  0.00    +0.292 HD
ENDBRANCH   6  17
ENDBRANCH   3   5
BRANCH   1  28
ATOM     19  N   UNL     1      -1.320  -2.226   4.820  0.00  0.00    -0.303 N 
ATOM     20  C   UNL     1      -1.357  -2.559   3.474  0.00  0.00    +0.042 A 
ATOM     21  C   UNL     1      -2.565  -2.593   2.789  0.00  0.00    +0.024 A 
ATOM     22  C   UNL     1      -2.588  -2.923   1.450  0.00  0.00    +0.002 A 
ATOM     23  C   UNL     1      -1.414  -3.224   0.775  0.00  0.00    +0.001 A 
ATOM     24  C   UNL     1      -0.205  -3.198   1.435  0.00  0.00    +0.013 A 
ATOM     25  C   UNL     1      -0.166  -2.866   2.792  0.00  0.00    +0.039 A 
ATOM     26  C   UNL     1       1.108  -2.836   3.525  0.00  0.00    +0.181 C 
ATOM     27  O   UNL     1       2.112  -3.334   3.061  0.00  0.00    -0.291 OA
ATOM     28  C   UNL     1       1.121  -2.158   4.880  0.00  0.00    +0.192 C 
ATOM     29  C   UNL     1      -0.147  -2.579   5.629  0.00  0.00    +0.222 C 
BRANCH  29  30
ATOM     30  O   UNL     1      -0.123  -3.991   5.847  0.00  0.00    -0.373 OA
ATOM     31  H   UNL     1      -0.900  -4.331   6.310  0.00  0.00    +0.212 HD
ENDBRANCH  29  30
BRANCH  19  32
ATOM     32  C   UNL     1      -2.447  -1.518   5.432  0.00  0.00    +0.107 C 
BRANCH  32  33
ATOM     33  C   UNL     1      -3.387  -2.529   6.092  0.00  0.00    +0.019 C 
BRANCH  33  35
ATOM     34  C   UNL     1      -5.518  -2.802   7.368  0.00  0.00    +0.004 C 
ATOM     35  C   UNL     1      -4.577  -1.791   6.708  0.00  0.00    -0.002 C 
ENDBRANCH  33  35
ENDBRANCH  32  33
ENDBRANCH  19  32
ENDBRANCH   1  28
TORSDOF 7
