REMARK  Name = ZINC07539607
REMARK  10 active torsions:
REMARK  status: ('A' for Active; 'I' for Inactive)
REMARK    1  A    between atoms: C_1  and  O_2
REMARK    2  A    between atoms: O_2  and  C_3
REMARK    3  A    between atoms: C_6  and  C_10
REMARK    4  A    between atoms: C_13  and  C_15
REMARK    5  A    between atoms: C_15  and  N_48
REMARK    6  A    between atoms: C_16  and  C_17
REMARK    7  A    between atoms: C_16  and  N_48
REMARK    8  A    between atoms: C_17  and  C_18
REMARK    9  A    between atoms: C_21  and  S_24
REMARK   10  A    between atoms: S_24  and  N_27
REMARK                            x       y       z     vdW  Elec       q    Type
REMARK                         _______ _______ _______ _____ _____    ______ ____
ROOT
ATOM      1  N   UNL     1      -9.146  -1.232   4.652  0.00  0.00    +0.384 N 
ATOM      2  H   UNL     1      -8.267  -1.172   5.179  0.00  0.00    -0.085 HD
ATOM      3  H   UNL     1      -9.191  -2.133   4.161  0.00  0.00    -0.085 HD
ENDROOT
BRANCH   1   4
ATOM      4  C   UNL     1      -9.196  -0.137   3.664  0.00  0.00    -0.007 C 
BRANCH   4   8
ATOM      5  C   UNL     1      -6.019  -0.037   1.861  0.00  0.00    +0.135 A 
ATOM      6  C   UNL     1      -6.733  -0.819   1.009  0.00  0.00    +0.050 A 
ATOM      7  C   UNL     1      -8.019  -0.962   1.569  0.00  0.00    +0.043 A 
ATOM      8  C   UNL     1      -8.026  -0.267   2.723  0.00  0.00    +0.089 A 
ATOM      9  O   UNL     1      -6.814   0.286   2.899  0.00  0.00    -0.462 OA
BRANCH   5  13
ATOM     10  C   UNL     1      -1.975   1.163   1.348  0.00  0.00    +0.138 A 
ATOM     11  C   UNL     1      -2.587   0.364   0.392  0.00  0.00    +0.048 A 
ATOM     12  C   UNL     1      -3.897  -0.033   0.558  0.00  0.00    +0.015 A 
ATOM     13  C   UNL     1      -4.613   0.381   1.683  0.00  0.00    +0.019 A 
ATOM     14  C   UNL     1      -3.996   1.189   2.640  0.00  0.00    +0.035 A 
ATOM     15  C   UNL     1      -2.683   1.577   2.470  0.00  0.00    +0.083 A 
ATOM     16 CL   UNL     1      -1.915   2.582   3.658  0.00  0.00    -0.080 Cl
BRANCH  10  18
ATOM     17  C   UNL     1      -0.013   1.086   0.008  0.00  0.00    +0.277 C 
ATOM     18  O   UNL     1      -0.682   1.547   1.184  0.00  0.00    -0.494 OA
ENDBRANCH  10  18
ENDBRANCH   5  13
ENDBRANCH   4   8
ENDBRANCH   1   4
BRANCH   1  19
ATOM     19  C   UNL     1     -10.282  -1.130   5.587  0.00  0.00    -0.077 C 
BRANCH  19  20
ATOM     20  C   UNL     1     -10.203  -2.276   6.598  0.00  0.00    +0.016 C 
BRANCH  20  21
ATOM     21  C   UNL     1     -11.361  -2.179   7.558  0.00  0.00    -0.049 A 
ATOM     22  C   UNL     1     -11.230  -1.453   8.727  0.00  0.00    +0.005 A 
ATOM     23  C   UNL     1     -12.293  -1.361   9.606  0.00  0.00    +0.029 A 
ATOM     24  C   UNL     1     -13.484  -2.001   9.319  0.00  0.00    +0.105 A 
ATOM     25  C   UNL     1     -13.613  -2.731   8.152  0.00  0.00    +0.029 A 
ATOM     26  C   UNL     1     -12.551  -2.820   7.272  0.00  0.00    +0.005 A 
BRANCH  24  27
ATOM     27  S   UNL     1     -14.838  -1.887  10.441  0.00  0.00    +0.056 S 
ATOM     28  O   UNL     1     -14.643  -0.698  11.194  0.00  0.00    -0.153 OA
ATOM     29  O   UNL     1     -16.016  -2.123   9.682  0.00  0.00    -0.153 OA
BRANCH  27  30
ATOM     30  N   UNL     1     -14.700  -3.149  11.505  0.00  0.00    -0.204 NA
ATOM     31  H   UNL     1     -15.032  -3.057  12.412  0.00  0.00    +0.144 HD
ATOM     32  H   UNL     1     -14.287  -3.979  11.222  0.00  0.00    +0.144 HD
ENDBRANCH  27  30
ENDBRANCH  24  27
ENDBRANCH  20  21
ENDBRANCH  19  20
ENDBRANCH   1  19
TORSDOF 9
