REMARK  Name = ZINC22010856
REMARK  9 active torsions:
REMARK  status: ('A' for Active; 'I' for Inactive)
REMARK    1  A    between atoms: C_1  and  C_2
REMARK    2  A    between atoms: C_2  and  C_4
REMARK    3  A    between atoms: C_2  and  N_18
REMARK    4  A    between atoms: N_10  and  C_11
REMARK    5  A    between atoms: N_18  and  C_19
REMARK    6  A    between atoms: N_18  and  C_20
REMARK    7  A    between atoms: C_20  and  C_21
REMARK    8  A    between atoms: C_21  and  O_22
REMARK    9  A    between atoms: O_22  and  C_23
REMARK                            x       y       z     vdW  Elec       q    Type
REMARK                         _______ _______ _______ _____ _____    ______ ____
ROOT
ATOM      1  C   UNL     1       0.683  -0.778   1.161  0.00  0.00    +0.153 A 
ATOM      2  N   UNL     1       1.995  -0.933   1.168  0.00  0.00    -0.198 NA
ATOM      3  C   UNL     1       2.608  -1.376   2.263  0.00  0.00    +0.217 A 
ATOM      4  N   UNL     1       1.899  -1.663   3.349  0.00  0.00    -0.181 NA
ATOM      5  C   UNL     1       0.580  -1.506   3.338  0.00  0.00    +0.224 A 
ATOM      6  N   UNL     1      -0.025  -1.057   2.241  0.00  0.00    -0.198 NA
ATOM      7  N   UNL     1      -0.161  -1.803   4.465  0.00  0.00    -0.284 N 
ATOM      8  N   UNL     1       3.979  -1.538   2.270  0.00  0.00    -0.327 N 
ATOM      9  H   UNL     1      -1.130  -1.761   4.433  0.00  0.00    +0.155 HD
ATOM     10  H   UNL     1       4.496  -1.329   1.476  0.00  0.00    +0.145 HD
ATOM     11  H   UNL     1       4.425  -1.861   3.068  0.00  0.00    +0.145 HD
ENDROOT
BRANCH   7  12
ATOM     12  C   UNL     1       0.484  -2.164   5.652  0.00  0.00    +0.034 A 
ATOM     13  C   UNL     1       1.722  -1.617   5.965  0.00  0.00    +0.023 A 
ATOM     14  C   UNL     1       2.356  -1.976   7.138  0.00  0.00    +0.002 A 
ATOM     15  C   UNL     1       1.761  -2.878   8.000  0.00  0.00    +0.000 A 
ATOM     16  C   UNL     1       0.529  -3.425   7.691  0.00  0.00    +0.002 A 
ATOM     17  C   UNL     1      -0.114  -3.067   6.522  0.00  0.00    +0.023 A 
ENDBRANCH   7  12
BRANCH   1  19
ATOM     18  C   UNL     1       0.274   1.219  -0.252  0.00  0.00    +0.032 C 
ATOM     19  C   UNL     1      -0.008  -0.275  -0.081  0.00  0.00    +0.122 C 
BRANCH  19  20
ATOM     20  N   UNL     1       0.497  -1.006  -1.252  0.00  0.00    -0.293 NA
ATOM     21  C   UNL     1      -0.077  -0.471  -2.494  0.00  0.00    +0.105 C 
BRANCH  20  22
ATOM     22  C   UNL     1       0.233  -2.446  -1.127  0.00  0.00    +0.125 C 
BRANCH  22  23
ATOM     23  C   UNL     1       0.983  -3.198  -2.228  0.00  0.00    +0.244 C 
BRANCH  23  24
ATOM     24  O   UNL     1       2.391  -3.054  -2.031  0.00  0.00    -0.491 OA
BRANCH  24  25
ATOM     25  C   UNL     1       3.206  -3.666  -2.929  0.00  0.00    +0.121 A 
ATOM     26  C   UNL     1       2.662  -4.387  -3.982  0.00  0.00    +0.047 A 
ATOM     27  C   UNL     1       3.493  -5.009  -4.894  0.00  0.00    +0.023 A 
ATOM     28  C   UNL     1       4.866  -4.914  -4.757  0.00  0.00    +0.041 A 
ATOM     29  C   UNL     1       5.411  -4.196  -3.707  0.00  0.00    +0.023 A 
ATOM     30  C   UNL     1       4.584  -3.567  -2.797  0.00  0.00    +0.047 A 
ATOM     31 CL   UNL     1       5.908  -5.697  -5.904  0.00  0.00    -0.084 Cl
ENDBRANCH  24  25
ENDBRANCH  23  24
ENDBRANCH  22  23
ENDBRANCH  20  22
ENDBRANCH  19  20
ENDBRANCH   1  19
TORSDOF 7
