REMARK  Name = ZINC04453427
REMARK  6 active torsions:
REMARK  status: ('A' for Active; 'I' for Inactive)
REMARK    1  A    between atoms: C_1  and  C_2
REMARK    2  A    between atoms: C_5  and  C_7
REMARK    3  A    between atoms: N_12  and  C_26
REMARK    4  A    between atoms: C_16  and  C_24
REMARK    5  A    between atoms: C_19  and  C_20
REMARK    6  A    between atoms: C_19  and  C_22
REMARK                            x       y       z     vdW  Elec       q    Type
REMARK                         _______ _______ _______ _____ _____    ______ ____
ROOT
ATOM      1  C   UNL     1       0.063  -4.080   0.966  0.00  0.00    +0.074 C 
ATOM      2  C   UNL     1       1.322  -4.299   1.811  0.00  0.00    +0.041 C 
ATOM      3  C   UNL     1       2.559  -4.031   0.968  0.00  0.00    +0.093 C 
ATOM      4  N   UNL     1       3.729  -4.720   1.521  0.00  0.00    -0.301 NA
ATOM      5  C   UNL     1       3.536  -6.177   1.462  0.00  0.00    +0.111 C 
ATOM      6  C   UNL     1       2.292  -6.532   2.229  0.00  0.00    -0.010 C 
ATOM      7  C   UNL     1       1.322  -5.697   2.361  0.00  0.00    -0.045 C 
ATOM      8  C   UNL     1       0.106  -6.155   3.149  0.00  0.00    +0.166 C 
ATOM      9  C   UNL     1      -1.122  -5.745   2.365  0.00  0.00    +0.096 C 
ATOM     10  N   UNL     1      -2.061  -6.547   2.173  0.00  0.00    -0.154 NA
ATOM     11  C   UNL     1      -1.181  -4.335   1.821  0.00  0.00    +0.191 C 
ATOM     12  C   UNL     1       4.956  -4.322   0.818  0.00  0.00    +0.105 C 
ENDROOT
BRANCH   1  17
ATOM     13  C   UNL     1      -0.018   1.503   0.010  0.00  0.00    +0.051 C 
ATOM     14  C   UNL     1       0.002  -0.004   0.002  0.00  0.00    -0.013 A 
ATOM     15  C   UNL     1       0.010  -0.852  -1.056  0.00  0.00    +0.011 A 
ATOM     16  C   UNL     1       0.030  -2.214  -0.823  0.00  0.00    +0.012 A 
ATOM     17  C   UNL     1       0.041  -2.662   0.457  0.00  0.00    -0.003 A 
ATOM     18  S   UNL     1       0.031  -1.136   1.383  0.00  0.00    -0.098 S 
ENDBRANCH   1  17
BRANCH  11  19
ATOM     19  C   UNL     1      -1.216  -3.376   2.937  0.00  0.00    +0.091 C 
ATOM     20  N   UNL     1      -1.242  -2.636   3.799  0.00  0.00    -0.195 NA
ENDBRANCH  11  19
BRANCH  11  21
ATOM     21  C   UNL     1      -2.388  -4.176   0.994  0.00  0.00    +0.091 C 
ATOM     22  N   UNL     1      -3.320  -4.053   0.356  0.00  0.00    -0.195 NA
ENDBRANCH  11  21
BRANCH   8  23
ATOM     23  C   UNL     1       0.095  -5.510   4.472  0.00  0.00    +0.076 C 
ATOM     24  N   UNL     1       0.086  -5.011   5.493  0.00  0.00    -0.196 NA
ENDBRANCH   8  23
TORSDOF 4
