REMARK  Name = ZINC39760482
REMARK  9 active torsions:
REMARK  status: ('A' for Active; 'I' for Inactive)
REMARK    1  A    between atoms: C_1  and  C_2
REMARK    2  A    between atoms: C_2  and  C_3
REMARK    3  A    between atoms: C_2  and  C_4
REMARK    4  A    between atoms: C_2  and  N_5
REMARK    5  A    between atoms: C_9  and  C_11
REMARK    6  A    between atoms: C_11  and  S_12
REMARK    7  A    between atoms: S_12  and  C_13
REMARK    8  A    between atoms: C_17  and  C_22
REMARK    9  A    between atoms: N_18  and  C_19
REMARK                            x       y       z     vdW  Elec       q    Type
REMARK                         _______ _______ _______ _____ _____    ______ ____
ROOT
ATOM      1  C   UNL     1       6.937  -0.761  -5.494  0.00  0.00    +0.237 C 
ATOM      2  N   UNL     1       5.996  -0.344  -6.546  0.00  0.00    -0.237 N 
ATOM      3  N   UNL     1       5.655  -1.500  -7.257  0.00  0.00    -0.169 NA
ATOM      4  C   UNL     1       6.264  -2.551  -6.774  0.00  0.00    +0.147 C 
ATOM      5  N   UNL     1       7.080  -2.214  -5.687  0.00  0.00    -0.282 N 
ATOM      6  H   UNL     1       5.675   0.556  -6.713  0.00  0.00    +0.171 HD
ENDROOT
BRANCH   4   7
ATOM      7  C   UNL     1       6.119  -3.852  -7.280  0.00  0.00    +0.022 C 
ATOM      8  C   UNL     1       5.405  -4.241  -8.414  0.00  0.00    +0.006 A 
ATOM      9  C   UNL     1       4.650  -3.516  -9.360  0.00  0.00    +0.010 A 
ATOM     10  C   UNL     1       4.050  -4.170 -10.388  0.00  0.00    +0.001 A 
ATOM     11  C   UNL     1       4.161  -5.555 -10.537  0.00  0.00    +0.002 A 
ATOM     12  C   UNL     1       4.871  -6.313  -9.666  0.00  0.00    +0.026 A 
ATOM     13  C   UNL     1       5.525  -5.700  -8.566  0.00  0.00    +0.043 A 
ATOM     14  N   UNL     1       6.263  -6.206  -7.598  0.00  0.00    -0.380 N 
ATOM     15  C   UNL     1       6.708  -5.124  -6.713  0.00  0.00    +0.152 C 
ATOM     16  H   UNL     1       6.481  -7.145  -7.490  0.00  0.00    +0.160 HD
ENDBRANCH   4   7
BRANCH   5  17
ATOM     17  C   UNL     1       7.912  -3.125  -4.897  0.00  0.00    +0.078 C 
ATOM     18  C   UNL     1       8.655  -2.539  -3.694  0.00  0.00    +0.024 C 
ATOM     19  C   UNL     1       9.428  -2.928  -4.956  0.00  0.00    +0.024 C 
ENDBRANCH   5  17
BRANCH   1  20
ATOM     20  S   UNL     1       6.253  -0.404  -3.852  0.00  0.00    -0.109 S 
BRANCH  20  21
ATOM     21  C   UNL     1       4.669  -1.288  -3.835  0.00  0.00    +0.168 C 
BRANCH  21  26
ATOM     22  N   UNL     1       0.979  -2.009  -0.840  0.00  0.00    -0.294 N 
ATOM     23  C   UNL     1       2.178  -1.444  -1.081  0.00  0.00    +0.306 C 
ATOM     24  O   UNL     1       2.709  -0.759  -0.229  0.00  0.00    -0.252 OA
ATOM     25  N   UNL     1       2.788  -1.637  -2.267  0.00  0.00    -0.240 N 
ATOM     26  C   UNL     1       3.987  -1.072  -2.509  0.00  0.00    +0.230 C 
ATOM     27  O   UNL     1       4.517  -0.389  -1.659  0.00  0.00    -0.274 OA
ATOM     28  H   UNL     1       0.554  -2.556  -1.520  0.00  0.00    +0.151 HD
ATOM     29  H   UNL     1       2.363  -2.183  -2.947  0.00  0.00    +0.159 HD
BRANCH  22  31
ATOM     30  C   UNL     1       0.068  -0.304   0.658  0.00  0.00    +0.031 C 
ATOM     31  C   UNL     1       0.316  -1.799   0.450  0.00  0.00    +0.028 C 
ATOM     32  C   UNL     1       1.208  -2.330   1.574  0.00  0.00    +0.031 C 
ATOM     33  C   UNL     1      -1.020  -2.545   0.464  0.00  0.00    +0.031 C 
ENDBRANCH  22  31
ENDBRANCH  21  26
ENDBRANCH  20  21
ENDBRANCH   1  20
TORSDOF 6
