REMARK  Name = ZINC04531372
REMARK  4 active torsions:
REMARK  status: ('A' for Active; 'I' for Inactive)
REMARK    1  A    between atoms: N_12  and  C_13
REMARK    2  A    between atoms: C_13  and  C_14
REMARK    3  A    between atoms: C_14  and  C_16
REMARK    4  A    between atoms: C_14  and  O_24
REMARK                            x       y       z     vdW  Elec       q    Type
REMARK                         _______ _______ _______ _____ _____    ______ ____
ROOT
ATOM      1  C   UNL     1       4.316   7.749   0.002  0.00  0.00    +0.001 A 
ATOM      2  C   UNL     1       5.125   6.620  -0.011  0.00  0.00    +0.002 A 
ATOM      3  C   UNL     1       4.587   5.374  -0.013  0.00  0.00    +0.026 A 
ATOM      4  C   UNL     1       3.181   5.181  -0.001  0.00  0.00    +0.052 A 
ATOM      5  C   UNL     1       2.378   6.333   0.013  0.00  0.00    +0.052 A 
ATOM      6  C   UNL     1       2.960   7.609   0.015  0.00  0.00    +0.014 A 
ATOM      7  C   UNL     1       0.896   6.263   0.027  0.00  0.00    +0.229 A 
ATOM      8  O   UNL     1       0.178   7.247   0.040  0.00  0.00    -0.279 OA
ATOM      9  S   UNL     1       0.270   4.590   0.024  0.00  0.00    -0.014 S 
ATOM     10  C   UNL     1       1.588   3.386   0.005  0.00  0.00    +0.140 A 
ATOM     11  N   UNL     1       2.797   3.897   0.002  0.00  0.00    -0.337 N 
ATOM     12  N   UNL     1       1.356   2.033   0.000  0.00  0.00    -0.322 N 
ATOM     13  H   UNL     1       2.201   1.330  -0.012  0.00  0.00    +0.148 HD
ATOM     14  H   UNL     1       3.552   3.097   0.002  0.00  0.00    +0.168 HD
ENDROOT
BRANCH  12  15
ATOM     15  C   UNL     1      -0.019   1.526   0.010  0.00  0.00    +0.139 C 
BRANCH  15  16
ATOM     16  C   UNL     1       0.002  -0.004   0.002  0.00  0.00    +0.162 C 
BRANCH  16  17
ATOM     17  C   UNL     1      -1.407  -0.525  -0.111  0.00  0.00    -0.016 A 
ATOM     18  C   UNL     1      -2.215  -0.582   1.010  0.00  0.00    +0.008 A 
ATOM     19  C   UNL     1      -3.510  -1.055   0.906  0.00  0.00    +0.022 A 
ATOM     20  C   UNL     1      -3.994  -1.482  -0.317  0.00  0.00    +0.059 A 
ATOM     21  C   UNL     1      -3.184  -1.430  -1.438  0.00  0.00    +0.060 A 
ATOM     22  C   UNL     1      -1.890  -0.951  -1.334  0.00  0.00    +0.027 A 
ATOM     23 CL   UNL     1      -3.791  -1.966  -2.974  0.00  0.00    -0.082 Cl
ATOM     24 CL   UNL     1      -5.618  -2.083  -0.446  0.00  0.00    -0.082 Cl
ENDBRANCH  16  17
BRANCH  16  25
ATOM     25  O   UNL     1       0.590  -0.479   1.215  0.00  0.00    -0.386 OA
ATOM     26  H   UNL     1       0.691  -1.560   1.390  0.00  0.00    +0.210 HD
ENDBRANCH  16  25
ENDBRANCH  15  16
ENDBRANCH  12  15
TORSDOF 4
