REMARK  Name = ZINC32508265
REMARK  5 active torsions:
REMARK  status: ('A' for Active; 'I' for Inactive)
REMARK    1  A    between atoms: C_1  and  C_2
REMARK    2  A    between atoms: C_5  and  N_9
REMARK    3  A    between atoms: C_7  and  C_8
REMARK    4  A    between atoms: N_21  and  C_22
REMARK    5  A    between atoms: C_22  and  C_24
REMARK                            x       y       z     vdW  Elec       q    Type
REMARK                         _______ _______ _______ _____ _____    ______ ____
ROOT
ATOM      1  N   UNL     1      -4.585   1.210   1.645  0.00  0.00    -0.276 N 
ATOM      2  C   UNL     1      -5.582   1.981   2.363  0.00  0.00    +0.116 C 
ATOM      3  C   UNL     1      -6.752   2.290   1.399  0.00  0.00    +0.190 C 
ATOM      4  S   UNL     1      -7.263   3.974   1.954  0.00  0.00    -0.028 S 
ATOM      5  O   UNL     1      -7.671   4.737   0.827  0.00  0.00    -0.174 OA
ATOM      6  O   UNL     1      -8.125   3.857   3.078  0.00  0.00    -0.174 OA
ATOM      7  C   UNL     1      -5.612   4.551   2.526  0.00  0.00    +0.182 C 
ATOM      8  C   UNL     1      -4.984   3.232   3.017  0.00  0.00    +0.097 C 
ATOM      9  S   UNL     1      -3.248   3.147   2.442  0.00  0.00    -0.086 S 
ATOM     10  C   UNL     1      -3.311   1.665   1.552  0.00  0.00    +0.154 C 
ATOM     11  N   UNL     1      -2.308   1.089   0.898  0.00  0.00    -0.159 NA
ENDROOT
BRANCH   1  16
ATOM     12  C   UNL     1      -6.015  -3.725  -0.760  0.00  0.00    +0.044 C 
ATOM     13  C   UNL     1      -5.635  -2.414  -0.121  0.00  0.00    -0.047 A 
ATOM     14  C   UNL     1      -5.278  -1.338  -0.913  0.00  0.00    +0.005 A 
ATOM     15  C   UNL     1      -4.930  -0.135  -0.331  0.00  0.00    +0.024 A 
ATOM     16  C   UNL     1      -4.937  -0.007   1.052  0.00  0.00    +0.036 A 
ATOM     17  C   UNL     1      -5.290  -1.091   1.845  0.00  0.00    +0.027 A 
ATOM     18  C   UNL     1      -5.643  -2.290   1.256  0.00  0.00    -0.046 A 
ATOM     19  C   UNL     1      -6.032  -3.465   2.115  0.00  0.00    +0.044 C 
ENDBRANCH   1  16
BRANCH  11  20
ATOM     20  C   UNL     1      -1.105   1.658   0.890  0.00  0.00    +0.241 C 
ATOM     21  O   UNL     1      -0.924   2.706   1.479  0.00  0.00    -0.273 OA
BRANCH  20  22
ATOM     22  C   UNL     1       0.032   1.004   0.148  0.00  0.00    +0.077 C 
ATOM     23  C   UNL     1       0.554   1.706  -1.107  0.00  0.00    +0.013 C 
ATOM     24  C   UNL     1       1.390   1.709   0.174  0.00  0.00    +0.013 C 
ENDBRANCH  20  22
ENDBRANCH  11  20
TORSDOF 3
