REMARK  Name = ZINC45694681
REMARK  6 active torsions:
REMARK  status: ('A' for Active; 'I' for Inactive)
REMARK    1  A    between atoms: C_1  and  C_2
REMARK    2  A    between atoms: C_2  and  C_3
REMARK    3  A    between atoms: N_15  and  C_16
REMARK    4  A    between atoms: C_21  and  S_22
REMARK    5  A    between atoms: S_22  and  C_23
REMARK    6  A    between atoms: C_23  and  C_24
REMARK                            x       y       z     vdW  Elec       q    Type
REMARK                         _______ _______ _______ _____ _____    ______ ____
ROOT
ATOM      1  C   UNL     1      -1.729  -0.855  -2.460  0.00  0.00    +0.108 C 
ATOM      2  C   UNL     1      -0.211  -0.892  -2.289  0.00  0.00    -0.017 A 
ATOM      3  C   UNL     1       0.672  -1.077  -3.352  0.00  0.00    +0.013 A 
ATOM      4  C   UNL     1       2.005  -1.103  -3.126  0.00  0.00    +0.046 A 
ATOM      5  S   UNL     1       2.084  -0.860  -1.358  0.00  0.00    -0.101 S 
ATOM      6  C   UNL     1       0.341  -0.740  -1.055  0.00  0.00    -0.004 A 
ATOM      7  C   UNL     1      -0.362  -0.520   0.245  0.00  0.00    +0.062 C 
ATOM      8  C   UNL     1      -1.844  -0.887   0.071  0.00  0.00    +0.115 C 
ATOM      9  N   UNL     1      -2.310  -0.339  -1.213  0.00  0.00    -0.278 N 
ATOM     10  C   UNL     1      -3.253   0.623  -1.245  0.00  0.00    +0.307 C 
ATOM     11  O   UNL     1      -3.793   0.980  -0.215  0.00  0.00    -0.252 OA
ATOM     12  N   UNL     1      -3.598   1.190  -2.418  0.00  0.00    -0.268 N 
ATOM     13  H   UNL     1      -3.217   0.859  -3.247  0.00  0.00    +0.156 HD
ENDROOT
BRANCH  12  14
ATOM     14  C   UNL     1      -4.506   2.257  -2.441  0.00  0.00    +0.048 A 
ATOM     15  C   UNL     1      -4.767   2.973  -1.283  0.00  0.00    +0.024 A 
ATOM     16  C   UNL     1      -5.664   4.025  -1.307  0.00  0.00    +0.002 A 
ATOM     17  C   UNL     1      -6.304   4.367  -2.485  0.00  0.00    +0.001 A 
ATOM     18  C   UNL     1      -6.050   3.659  -3.644  0.00  0.00    +0.016 A 
ATOM     19  C   UNL     1      -5.147   2.605  -3.630  0.00  0.00    +0.030 A 
BRANCH  19  20
ATOM     20  S   UNL     1      -4.816   1.705  -5.109  0.00  0.00    -0.114 S 
BRANCH  20  21
ATOM     21  C   UNL     1      -5.860   2.510  -6.355  0.00  0.00    +0.169 C 
BRANCH  21  22
ATOM     22  C   UNL     1      -5.670   1.827  -7.685  0.00  0.00    +0.221 C 
ATOM     23  O   UNL     1      -4.906   0.891  -7.783  0.00  0.00    -0.275 OA
ATOM     24  N   UNL     1      -6.349   2.258  -8.767  0.00  0.00    -0.329 N 
ATOM     25  H   UNL     1      -6.960   3.008  -8.689  0.00  0.00    +0.145 HD
ATOM     26  H   UNL     1      -6.227   1.819  -9.623  0.00  0.00    +0.145 HD
ENDBRANCH  21  22
ENDBRANCH  20  21
ENDBRANCH  19  20
ENDBRANCH  12  14
BRANCH   1  28
ATOM     27  C   UNL     1      -3.759  -2.207  -3.003  0.00  0.00    +0.006 C 
ATOM     28  C   UNL     1      -2.254  -2.267  -2.730  0.00  0.00    +0.024 C 
ENDBRANCH   1  28
TORSDOF 5
