REMARK  Name = ZINC15782507
REMARK  4 active torsions:
REMARK  status: ('A' for Active; 'I' for Inactive)
REMARK    1  A    between atoms: C_1  and  C_2
REMARK    2  A    between atoms: C_6  and  C_24
REMARK    3  A    between atoms: C_8  and  N_15
REMARK    4  A    between atoms: C_10  and  O_14
REMARK                            x       y       z     vdW  Elec       q    Type
REMARK                         _______ _______ _______ _____ _____    ______ ____
ROOT
ATOM      1  C   UNL     1      -0.018   1.503   0.010  0.00  0.00    +0.062 C 
ATOM      2  C   UNL     1       0.002  -0.004   0.002  0.00  0.00    +0.022 C 
ATOM      3  C   UNL     1       0.008  -0.775  -1.102  0.00  0.00    +0.062 C 
ATOM      4  C   UNL     1       0.029  -2.164  -0.662  0.00  0.00    +0.116 C 
ATOM      5  N   UNL     1       0.051  -3.268  -1.359  0.00  0.00    -0.363 N 
ATOM      6  C   UNL     1       0.109  -4.554  -0.653  0.00  0.00    +0.139 C 
ATOM      7  C   UNL     1      -0.625  -4.467   0.685  0.00  0.00    +0.184 C 
ATOM      8  C   UNL     1      -0.008  -3.353   1.545  0.00  0.00    +0.248 C 
ATOM      9  N   UNL     1       0.014  -2.135   0.727  0.00  0.00    -0.208 N 
ATOM     10  N   UNL     1       0.024  -0.802   1.119  0.00  0.00    -0.265 N 
ATOM     11  H   UNL     1       0.040  -0.485   2.036  0.00  0.00    +0.170 HD
ATOM     12  H   UNL     1       0.029  -3.239  -2.328  0.00  0.00    +0.162 HD
ENDROOT
BRANCH   7  13
ATOM     13  N   UNL     1      -2.039  -4.169   0.446  0.00  0.00    -0.234 N 
ATOM     14  C   UNL     1      -3.116  -4.939   0.817  0.00  0.00    +0.090 A 
ATOM     15  C   UNL     1      -3.253  -6.153   1.482  0.00  0.00    +0.029 A 
ATOM     16  C   UNL     1      -4.499  -6.670   1.703  0.00  0.00    +0.002 A 
ATOM     17  C   UNL     1      -5.632  -5.994   1.268  0.00  0.00    +0.002 A 
ATOM     18  C   UNL     1      -5.524  -4.801   0.614  0.00  0.00    +0.032 A 
ATOM     19  C   UNL     1      -4.259  -4.250   0.375  0.00  0.00    +0.113 A 
ATOM     20  N   UNL     1      -3.845  -3.118  -0.230  0.00  0.00    -0.129 NA
ATOM     21  N   UNL     1      -2.562  -3.039  -0.200  0.00  0.00    -0.064 NA
ENDBRANCH   7  13
BRANCH   6  22
ATOM     22  C   UNL     1      -0.536  -5.617  -1.505  0.00  0.00    -0.023 A 
ATOM     23  C   UNL     1      -1.684  -5.329  -2.219  0.00  0.00    +0.006 A 
ATOM     24  C   UNL     1      -2.275  -6.304  -3.000  0.00  0.00    +0.000 A 
ATOM     25  C   UNL     1      -1.719  -7.567  -3.067  0.00  0.00    +0.000 A 
ATOM     26  C   UNL     1      -0.571  -7.856  -2.354  0.00  0.00    +0.000 A 
ATOM     27  C   UNL     1       0.024  -6.879  -1.576  0.00  0.00    +0.006 A 
ENDBRANCH   6  22
BRANCH   8  28
ATOM     28  O   UNL     1       1.323  -3.710   1.922  0.00  0.00    -0.371 OA
ATOM     29  H   UNL     1       1.769  -3.048   2.467  0.00  0.00    +0.212 HD
ENDBRANCH   8  28
TORSDOF 3
