REMARK  Name = ZINC19894172
REMARK  5 active torsions:
REMARK  status: ('A' for Active; 'I' for Inactive)
REMARK    1  A    between atoms: C_1  and  N_2
REMARK    2  A    between atoms: C_4  and  C_5
REMARK    3  A    between atoms: C_8  and  N_11
REMARK    4  A    between atoms: N_11  and  C_12
REMARK    5  A    between atoms: N_11  and  C_13
REMARK                            x       y       z     vdW  Elec       q    Type
REMARK                         _______ _______ _______ _____ _____    ______ ____
ROOT
ATOM      1  C   UNL     1       0.218   1.565   0.189  0.00  0.00    +0.158 C 
ATOM      2  N   UNL     1      -0.693   1.693   1.329  0.00  0.00    -0.202 N 
ATOM      3  C   UNL     1      -2.093   1.728   1.150  0.00  0.00    +0.099 C 
ATOM      4  C   UNL     1      -2.676   2.622   0.314  0.00  0.00    +0.036 C 
ATOM      5  C   UNL     1      -2.896   0.738   1.918  0.00  0.00    +0.217 C 
ATOM      6  O   UNL     1      -3.875   0.200   1.431  0.00  0.00    -0.285 OA
ATOM      7  C   UNL     1      -2.468   0.442   3.275  0.00  0.00    +0.087 A 
ATOM      8  C   UNL     1      -1.259   0.843   3.854  0.00  0.00    +0.127 A 
ATOM      9  C   UNL     1      -1.072   0.434   5.155  0.00  0.00    +0.037 A 
ATOM     10  C   UNL     1      -2.031  -0.301   5.780  0.00  0.00    +0.048 A 
ATOM     11  S   UNL     1      -3.263  -0.463   4.567  0.00  0.00    -0.091 S 
ATOM     12  S   UNL     1      -0.117   1.811   2.891  0.00  0.00    +0.076 S 
ATOM     13  O   UNL     1       1.134   1.138   2.926  0.00  0.00    -0.150 OA
ATOM     14  O   UNL     1      -0.276   3.165   3.292  0.00  0.00    -0.150 OA
ENDROOT
BRANCH   4  15
ATOM     15  C   UNL     1      -4.139   2.752   0.282  0.00  0.00    -0.023 A 
ATOM     16  C   UNL     1      -4.800   2.944  -0.937  0.00  0.00    +0.010 A 
ATOM     17  C   UNL     1      -6.172   3.058  -0.964  0.00  0.00    +0.023 A 
ATOM     18  C   UNL     1      -6.900   2.996   0.221  0.00  0.00    +0.029 A 
ATOM     19  C   UNL     1      -6.246   2.812   1.436  0.00  0.00    +0.023 A 
ATOM     20  C   UNL     1      -4.876   2.690   1.471  0.00  0.00    +0.010 A 
BRANCH  18  21
ATOM     21  N   UNL     1      -8.287   3.118   0.191  0.00  0.00    -0.336 N 
ATOM     22  C   UNL     1      -9.045   3.179   1.443  0.00  0.00    +0.129 C 
ATOM     23  C   UNL     1      -8.989   3.187  -1.094  0.00  0.00    +0.129 C 
ENDBRANCH  18  21
ENDBRANCH   4  15
TORSDOF 2
