REMARK  Name = ZINC48955282
REMARK  6 active torsions:
REMARK  status: ('A' for Active; 'I' for Inactive)
REMARK    1  A    between atoms: C_1  and  N_2
REMARK    2  A    between atoms: C_3  and  C_5
REMARK    3  A    between atoms: C_5  and  N_6
REMARK    4  A    between atoms: N_9  and  C_10
REMARK    5  A    between atoms: C_15  and  O_16
REMARK    6  A    between atoms: O_16  and  C_17
REMARK                            x       y       z     vdW  Elec       q    Type
REMARK                         _______ _______ _______ _____ _____    ______ ____
ROOT
ATOM      1  N   UNL     1      -2.509  -2.708   0.029  0.00  0.00    -0.291 N 
ATOM      2  C   UNL     1      -2.738  -4.037   0.014  0.00  0.00    +0.304 C 
ATOM      3  O   UNL     1      -1.803  -4.814  -0.003  0.00  0.00    -0.252 OA
ATOM      4  N   UNL     1      -4.003  -4.503   0.016  0.00  0.00    -0.266 N 
ATOM      5  H   UNL     1      -3.254  -2.088   0.043  0.00  0.00    +0.151 HD
ATOM      6  H   UNL     1      -4.747  -3.885   0.095  0.00  0.00    +0.156 HD
ENDROOT
BRANCH   4   7
ATOM      7  C   UNL     1      -4.242  -5.879  -0.095  0.00  0.00    +0.078 A 
ATOM      8  C   UNL     1      -3.366  -6.786   0.483  0.00  0.00    +0.027 A 
ATOM      9  C   UNL     1      -3.604  -8.143   0.373  0.00  0.00    +0.003 A 
ATOM     10  C   UNL     1      -4.715  -8.600  -0.312  0.00  0.00    +0.024 A 
ATOM     11  C   UNL     1      -5.593  -7.702  -0.891  0.00  0.00    +0.084 A 
ATOM     12  C   UNL     1      -5.364  -6.339  -0.780  0.00  0.00    +0.159 A 
ATOM     13 CL   UNL     1      -6.986  -8.280  -1.751  0.00  0.00    -0.080 Cl
BRANCH  12  14
ATOM     14  O   UNL     1      -6.229  -5.454  -1.343  0.00  0.00    -0.492 OA
ATOM     15  C   UNL     1      -5.970  -5.062  -2.692  0.00  0.00    +0.277 C 
ENDBRANCH  12  14
ENDBRANCH   4   7
BRANCH   1  16
ATOM     16  C   UNL     1      -1.134  -2.202   0.027  0.00  0.00    +0.201 C 
BRANCH  16  19
ATOM     17  C   UNL     1      -0.015   1.458   0.067  0.00  0.00    +0.128 C 
ATOM     18  N   UNL     1       0.004  -0.006   0.048  0.00  0.00    -0.317 N 
ATOM     19  C   UNL     1      -1.154  -0.695   0.047  0.00  0.00    +0.230 C 
ATOM     20  O   UNL     1      -2.212  -0.103   0.062  0.00  0.00    -0.274 OA
ATOM     21  H   UNL     1       0.851  -0.480   0.036  0.00  0.00    +0.148 HD
ENDBRANCH  16  19
ENDBRANCH   1  16
TORSDOF 4
