REMARK  Name = ZINC35716555
REMARK  7 active torsions:
REMARK  status: ('A' for Active; 'I' for Inactive)
REMARK    1  A    between atoms: C_1  and  N_2
REMARK    2  A    between atoms: N_2  and  C_3
REMARK    3  A    between atoms: N_2  and  C_9
REMARK    4  A    between atoms: C_3  and  C_4
REMARK    5  A    between atoms: C_9  and  C_10
REMARK    6  A    between atoms: N_12  and  C_13
REMARK    7  A    between atoms: C_15  and  N_20
REMARK                            x       y       z     vdW  Elec       q    Type
REMARK                         _______ _______ _______ _____ _____    ______ ____
ROOT
ATOM      1  C   UNL     1      -2.066  -0.121  -1.270  0.00  0.00    +0.201 C 
ATOM      2  O   UNL     1      -1.470   0.525  -2.106  0.00  0.00    -0.278 OA
ATOM      3  N   UNL     1      -3.349  -0.476  -1.480  0.00  0.00    -0.286 N 
ATOM      4  H   UNL     1      -3.804  -1.047  -0.842  0.00  0.00    +0.155 HD
ENDROOT
BRANCH   3   5
ATOM      5  C   UNL     1      -4.024  -0.020  -2.618  0.00  0.00    +0.054 A 
ATOM      6  C   UNL     1      -3.339   0.139  -3.814  0.00  0.00    +0.047 A 
ATOM      7  C   UNL     1      -4.011   0.591  -4.940  0.00  0.00    +0.026 A 
ATOM      8  C   UNL     1      -5.368   0.883  -4.868  0.00  0.00    +0.024 A 
ATOM      9  C   UNL     1      -6.048   0.723  -3.676  0.00  0.00    +0.023 A 
ATOM     10  C   UNL     1      -5.382   0.267  -2.553  0.00  0.00    +0.062 A 
ATOM     11 CL   UNL     1      -6.242   0.061  -1.059  0.00  0.00    -0.082 Cl
BRANCH   7  12
ATOM     12  N   UNL     1      -3.325   0.754  -6.146  0.00  0.00    -0.358 N 
ATOM     13  H   UNL     1      -2.378   0.551  -6.197  0.00  0.00    +0.142 HD
ATOM     14  H   UNL     1      -3.795   1.070  -6.934  0.00  0.00    +0.142 HD
ENDBRANCH   7  12
ENDBRANCH   3   5
BRANCH   1  15
ATOM     15  C   UNL     1      -1.370  -0.527   0.004  0.00  0.00    +0.019 C 
BRANCH  15  17
ATOM     16  C   UNL     1      -0.006   1.446   0.008  0.00  0.00    -0.095 C 
ATOM     17  N   UNL     1       0.009  -0.022  -0.009  0.00  0.00    +0.387 N 
ATOM     18  H   UNL     1       0.477  -0.344  -0.843  0.00  0.00    -0.081 HD
BRANCH  17  19
ATOM     19  C   UNL     1       0.723  -0.518   1.175  0.00  0.00    -0.035 C 
BRANCH  19  20
ATOM     20  C   UNL     1       2.170  -0.103   1.100  0.00  0.00    -0.027 A 
ATOM     21  C   UNL     1       2.761   1.021   1.574  0.00  0.00    +0.009 A 
ATOM     22  C   UNL     1       4.120   1.192   1.388  0.00  0.00    +0.008 A 
ATOM     23  C   UNL     1       4.822   0.232   0.739  0.00  0.00    +0.045 A 
ATOM     24  S   UNL     1       3.551  -0.968   0.371  0.00  0.00    -0.103 S 
ENDBRANCH  19  20
ENDBRANCH  17  19
ENDBRANCH  15  17
ENDBRANCH   1  15
TORSDOF 6
