REMARK  Name = ZINC09481783
REMARK  8 active torsions:
REMARK  status: ('A' for Active; 'I' for Inactive)
REMARK    1  A    between atoms: C_4  and  O_7
REMARK    2  A    between atoms: O_7  and  C_8
REMARK    3  A    between atoms: C_11  and  C_14
REMARK    4  A    between atoms: N_16  and  C_17
REMARK    5  A    between atoms: C_17  and  C_18
REMARK    6  A    between atoms: N_20  and  C_21
REMARK    7  A    between atoms: C_25  and  S_27
REMARK    8  A    between atoms: S_27  and  N_30
REMARK                            x       y       z     vdW  Elec       q    Type
REMARK                         _______ _______ _______ _____ _____    ______ ____
ROOT
ATOM      1  C   UNL     1       1.069   5.949   0.147  0.00  0.00    +0.234 C 
ATOM      2  O   UNL     1       2.127   5.357   0.145  0.00  0.00    -0.274 OA
ATOM      3  N   UNL     1      -0.088   5.263   0.054  0.00  0.00    -0.284 N 
ATOM      4  H   UNL     1      -0.930   5.740  -0.008  0.00  0.00    +0.155 HD
ENDROOT
BRANCH   3   5
ATOM      5  C   UNL     1      -0.073   3.864   0.048  0.00  0.00    +0.035 A 
ATOM      6  C   UNL     1       0.968   3.182  -0.570  0.00  0.00    +0.023 A 
ATOM      7  C   UNL     1       0.980   1.801  -0.574  0.00  0.00    +0.004 A 
ATOM      8  C   UNL     1      -0.043   1.097   0.035  0.00  0.00    +0.029 A 
ATOM      9  C   UNL     1      -1.083   1.774   0.647  0.00  0.00    +0.110 A 
ATOM     10  C   UNL     1      -1.098   3.155   0.660  0.00  0.00    +0.052 A 
BRANCH   9  11
ATOM     11  S   UNL     1      -2.387   0.872   1.416  0.00  0.00    +0.073 S 
ATOM     12  O   UNL     1      -3.517   1.734   1.441  0.00  0.00    -0.150 OA
ATOM     13  O   UNL     1      -2.417  -0.406   0.797  0.00  0.00    -0.150 OA
BRANCH  11  14
ATOM     14  N   UNL     1      -1.946   0.624   2.993  0.00  0.00    -0.205 N 
ATOM     15  C   UNL     1      -1.809   1.690   3.842  0.00  0.00    +0.088 C 
ATOM     16  C   UNL     1      -1.782   3.842   4.626  0.00  0.00    +0.114 C 
ATOM     17  C   UNL     1      -0.999   3.023   5.679  0.00  0.00    +0.028 C 
ATOM     18  C   UNL     1      -1.418   1.581   5.299  0.00  0.00    +0.072 C 
ATOM     19  H   UNL     1      -1.785  -0.277   3.316  0.00  0.00    +0.175 HD
ATOM     20  N   UNL     1      -2.006   2.923   3.490  0.00  0.00    -0.375 N 
ATOM     21  H   UNL     1      -2.280   3.221   2.546  0.00  0.00    +0.161 HD
ENDBRANCH  11  14
ENDBRANCH   9  11
ENDBRANCH   3   5
BRANCH   1  22
ATOM     22  C   UNL     1       1.047   7.452   0.253  0.00  0.00    +0.200 C 
BRANCH  22  25
ATOM     23  C   UNL     1       2.647   9.280   0.443  0.00  0.00    +0.244 C 
ATOM     24  O   UNL     1       1.712  10.057   0.463  0.00  0.00    -0.270 OA
ATOM     25  N   UNL     1       2.420   7.956   0.341  0.00  0.00    -0.303 N 
ATOM     26  H   UNL     1       3.166   7.335   0.325  0.00  0.00    +0.150 HD
BRANCH  23  30
ATOM     27  C   UNL     1       6.627  10.739   0.699  0.00  0.00    +0.128 A 
ATOM     28  C   UNL     1       5.560  11.629   0.721  0.00  0.00    +0.047 A 
ATOM     29  C   UNL     1       4.268  11.160   0.638  0.00  0.00    +0.016 A 
ATOM     30  C   UNL     1       4.030   9.787   0.532  0.00  0.00    +0.037 A 
ATOM     31  C   UNL     1       5.106   8.895   0.515  0.00  0.00    +0.016 A 
ATOM     32  C   UNL     1       6.395   9.372   0.593  0.00  0.00    +0.047 A 
BRANCH  27  33
ATOM     33  O   UNL     1       7.899  11.205   0.780  0.00  0.00    -0.456 OA
BRANCH  33  37
ATOM     34  C   UNL     1       9.265  12.474   4.460  0.00  0.00    +0.000 A 
ATOM     35  C   UNL     1      10.127  12.438   3.379  0.00  0.00    +0.004 A 
ATOM     36  C   UNL     1       9.672  12.013   2.146  0.00  0.00    +0.046 A 
ATOM     37  C   UNL     1       8.349  11.623   1.992  0.00  0.00    +0.128 A 
ATOM     38  C   UNL     1       7.486  11.665   3.077  0.00  0.00    +0.046 A 
ATOM     39  C   UNL     1       7.947  12.085   4.310  0.00  0.00    +0.004 A 
ENDBRANCH  33  37
ENDBRANCH  27  33
ENDBRANCH  23  30
ENDBRANCH  22  25
ENDBRANCH   1  22
TORSDOF 8
