REMARK  Name = ZINC39841114
REMARK  10 active torsions:
REMARK  status: ('A' for Active; 'I' for Inactive)
REMARK    1  A    between atoms: C_1  and  C_2
REMARK    2  A    between atoms: C_2  and  C_3
REMARK    3  A    between atoms: C_3  and  C_4
REMARK    4  A    between atoms: C_4  and  N_5
REMARK    5  A    between atoms: C_6  and  N_7
REMARK    6  A    between atoms: C_8  and  C_22
REMARK    7  A    between atoms: C_14  and  C_21
REMARK    8  A    between atoms: N_24  and  C_25
REMARK    9  A    between atoms: C_26  and  C_34
REMARK   10  A    between atoms: N_36  and  C_37
REMARK                            x       y       z     vdW  Elec       q    Type
REMARK                         _______ _______ _______ _____ _____    ______ ____
ROOT
ATOM      1  N   UNL     1       1.383  -2.542   2.466  0.00  0.00    -0.313 N 
ATOM      2  C   UNL     1       2.683  -2.712   2.311  0.00  0.00    +0.110 A 
ATOM      3  C   UNL     1       3.497  -3.161   3.375  0.00  0.00    +0.076 A 
ATOM      4  C   UNL     1       2.912  -3.430   4.615  0.00  0.00    +0.033 A 
ATOM      5  C   UNL     1       1.538  -3.241   4.744  0.00  0.00    +0.083 A 
ATOM      6  C   UNL     1       0.781  -2.781   3.632  0.00  0.00    +0.150 A 
ATOM      7  N   UNL     1      -0.536  -2.601   3.779  0.00  0.00    -0.211 NA
ATOM      8  C   UNL     1      -1.159  -2.833   4.929  0.00  0.00    +0.145 A 
ATOM      9  C   UNL     1      -2.552  -2.616   4.995  0.00  0.00    -0.007 A 
ATOM     10  C   UNL     1      -3.213  -2.846   6.162  0.00  0.00    +0.008 A 
ATOM     11  C   UNL     1      -2.503  -3.295   7.286  0.00  0.00    +0.019 A 
ATOM     12  C   UNL     1      -1.170  -3.498   7.208  0.00  0.00    +0.096 A 
ATOM     13  N   UNL     1      -0.496  -3.272   6.043  0.00  0.00    -0.267 N 
ATOM     14  C   UNL     1       0.839  -3.498   6.003  0.00  0.00    +0.268 A 
ATOM     15  O   UNL     1       1.440  -3.888   6.988  0.00  0.00    -0.267 OA
ATOM     16  C   UNL     1      -3.303  -2.133   3.781  0.00  0.00    +0.047 C 
ENDROOT
BRANCH   3  17
ATOM     17  C   UNL     1       4.944  -3.343   3.180  0.00  0.00    +0.252 C 
ATOM     18  O   UNL     1       5.463  -3.005   2.133  0.00  0.00    -0.270 OA
ATOM     19  N   UNL     1       5.693  -3.884   4.160  0.00  0.00    -0.275 N 
ATOM     20  H   UNL     1       5.279  -4.154   4.995  0.00  0.00    +0.156 HD
BRANCH  19  21
ATOM     21  C   UNL     1       7.056  -4.056   3.976  0.00  0.00    +0.085 A 
ATOM     22  C   UNL     1       7.974  -4.596   4.864  0.00  0.00    +0.069 A 
ATOM     23  C   UNL     1       9.358  -4.665   4.426  0.00  0.00    -0.023 A 
ATOM     24  C   UNL     1       9.569  -4.182   3.183  0.00  0.00    -0.004 A 
ATOM     25  S   UNL     1       7.972  -3.665   2.625  0.00  0.00    -0.077 S 
ATOM     26  C   UNL     1      10.876  -4.113   2.455  0.00  0.00    +0.043 C 
ATOM     27  C   UNL     1      12.007  -4.326   3.472  0.00  0.00    +0.005 C 
ATOM     28  C   UNL     1      11.674  -5.547   4.335  0.00  0.00    +0.005 C 
ATOM     29  C   UNL     1      10.499  -5.225   5.262  0.00  0.00    +0.037 C 
BRANCH  22  30
ATOM     30  C   UNL     1       7.566  -5.076   6.187  0.00  0.00    +0.246 C 
ATOM     31  O   UNL     1       7.222  -6.234   6.335  0.00  0.00    -0.270 OA
ATOM     32  N   UNL     1       7.572  -4.236   7.240  0.00  0.00    -0.314 N 
ATOM     33  C   UNL     1       7.165  -4.716   8.563  0.00  0.00    +0.128 C 
ATOM     34  H   UNL     1       7.847  -3.312   7.123  0.00  0.00    +0.149 HD
ENDBRANCH  22  30
ENDBRANCH  19  21
ENDBRANCH   3  17
BRANCH   2  35
ATOM     35  N   UNL     1       3.258  -2.444   1.087  0.00  0.00    -0.344 N 
ATOM     36  H   UNL     1       2.699  -2.211   0.329  0.00  0.00    +0.144 HD
ATOM     37  H   UNL     1       4.222  -2.490   0.983  0.00  0.00    +0.144 HD
ENDBRANCH   2  35
BRANCH   1  38
ATOM     38  C   UNL     1       0.584  -2.074   1.331  0.00  0.00    +0.125 C 
BRANCH  38  39
ATOM     39  C   UNL     1       0.537  -0.545   1.336  0.00  0.00    +0.021 C 
BRANCH  39  41
ATOM     40  C   UNL     1      -0.344   1.473   0.155  0.00  0.00    +0.004 C 
ATOM     41  C   UNL     1      -0.298  -0.057   0.150  0.00  0.00    -0.002 C 
ENDBRANCH  39  41
ENDBRANCH  38  39
ENDBRANCH   1  38
TORSDOF 7
