REMARK  Name = ZINC39634989
REMARK  8 active torsions:
REMARK  status: ('A' for Active; 'I' for Inactive)
REMARK    1  A    between atoms: C_1  and  O_2
REMARK    2  A    between atoms: O_2  and  C_3
REMARK    3  A    between atoms: C_6  and  C_9
REMARK    4  A    between atoms: C_9  and  C_10
REMARK    5  A    between atoms: C_10  and  N_11
REMARK    6  A    between atoms: C_12  and  C_14
REMARK    7  A    between atoms: C_25  and  C_27
REMARK    8  A    between atoms: C_29  and  C_34
REMARK                            x       y       z     vdW  Elec       q    Type
REMARK                         _______ _______ _______ _____ _____    ______ ____
ROOT
ATOM      1  C   UNL     1       6.462  -4.703  -5.769  0.00  0.00    +0.100 C 
ATOM      2  C   UNL     1       5.964  -6.072  -6.284  0.00  0.00    +0.121 C 
ATOM      3  N   UNL     1       7.190  -6.772  -6.733  0.00  0.00    -0.296 N 
ATOM      4  C   UNL     1       8.211  -6.416  -5.718  0.00  0.00    +0.115 C 
ATOM      5  C   UNL     1       7.937  -4.933  -5.398  0.00  0.00    -0.004 C 
ATOM      6  C   UNL     1       8.156  -4.665  -3.912  0.00  0.00    -0.010 C 
ATOM      7  C   UNL     1       9.640  -4.844  -3.579  0.00  0.00    -0.082 C 
ATOM      8  N   UNL     1      10.440  -3.916  -4.387  0.00  0.00    +0.379 N 
ATOM      9  C   UNL     1      10.296  -4.240  -5.811  0.00  0.00    -0.082 C 
ATOM     10  C   UNL     1       8.840  -4.036  -6.239  0.00  0.00    -0.010 C 
ATOM     11  C   UNL     1       7.344  -7.554  -7.819  0.00  0.00    +0.247 C 
ATOM     12  O   UNL     1       6.445  -7.650  -8.632  0.00  0.00    -0.270 OA
ATOM     13  H   UNL     1      10.123  -2.972  -4.225  0.00  0.00    -0.086 HD
ATOM     14  H   UNL     1      11.411  -3.992  -4.123  0.00  0.00    -0.086 HD
ENDROOT
BRANCH  11  15
ATOM     15  C   UNL     1       8.606  -8.297  -8.023  0.00  0.00    +0.040 A 
ATOM     16  C   UNL     1       8.959  -8.743  -9.298  0.00  0.00    +0.025 A 
ATOM     17  C   UNL     1      10.138  -9.435  -9.483  0.00  0.00    +0.058 A 
ATOM     18  C   UNL     1      10.970  -9.689  -8.408  0.00  0.00    +0.050 A 
ATOM     19  C   UNL     1      10.627  -9.251  -7.139  0.00  0.00    +0.125 A 
ATOM     20  C   UNL     1       9.451  -8.551  -6.942  0.00  0.00    +0.051 A 
ATOM     21  F   UNL     1      11.445  -9.504  -6.094  0.00  0.00    -0.205 F 
BRANCH  17  22
ATOM     22  C   UNL     1      10.519  -9.916 -10.859  0.00  0.00    +0.418 C 
ATOM     23  F   UNL     1      11.269  -8.929 -11.507  0.00  0.00    -0.166 F 
ATOM     24  F   UNL     1      11.280 -11.085 -10.750  0.00  0.00    -0.166 F 
ATOM     25  F   UNL     1       9.361 -10.181 -11.598  0.00  0.00    -0.166 F 
ENDBRANCH  17  22
ENDBRANCH  11  15
BRANCH   1  27
ATOM     26  N   UNL     1       5.481  -2.972  -4.299  0.00  0.00    -0.315 N 
ATOM     27  C   UNL     1       5.675  -4.281  -4.555  0.00  0.00    +0.218 C 
ATOM     28  O   UNL     1       5.217  -5.119  -3.808  0.00  0.00    -0.275 OA
ATOM     29  H   UNL     1       5.848  -2.301  -4.897  0.00  0.00    +0.149 HD
BRANCH  26  30
ATOM     30  C   UNL     1       4.716  -2.561  -3.119  0.00  0.00    +0.109 C 
BRANCH  30  31
ATOM     31  C   UNL     1       4.645  -1.034  -3.063  0.00  0.00    +0.054 C 
BRANCH  31  35
ATOM     32  C   UNL     1       2.414   0.164   0.379  0.00  0.00    +0.120 A 
ATOM     33  C   UNL     1       3.788  -0.007   0.467  0.00  0.00    +0.046 A 
ATOM     34  C   UNL     1       4.507  -0.395  -0.648  0.00  0.00    +0.007 A 
ATOM     35  C   UNL     1       3.858  -0.612  -1.849  0.00  0.00    -0.046 A 
ATOM     36  C   UNL     1       2.489  -0.442  -1.939  0.00  0.00    +0.007 A 
ATOM     37  C   UNL     1       1.765  -0.060  -0.826  0.00  0.00    +0.046 A 
BRANCH  32  39
ATOM     38  C   UNL     1       2.439   0.757   2.681  0.00  0.00    +0.277 C 
ATOM     39  O   UNL     1       1.705   0.544   1.474  0.00  0.00    -0.495 OA
ENDBRANCH  32  39
ENDBRANCH  31  35
ENDBRANCH  30  31
ENDBRANCH  26  30
ENDBRANCH   1  27
TORSDOF 7
