REMARK  Name = ZINC40315597
REMARK  6 active torsions:
REMARK  status: ('A' for Active; 'I' for Inactive)
REMARK    1  A    between atoms: C_3  and  N_22
REMARK    2  A    between atoms: C_4  and  S_8
REMARK    3  A    between atoms: S_8  and  N_11
REMARK    4  A    between atoms: N_11  and  C_12
REMARK    5  A    between atoms: C_12  and  C_13
REMARK    6  A    between atoms: N_17  and  C_19
REMARK                            x       y       z     vdW  Elec       q    Type
REMARK                         _______ _______ _______ _____ _____    ______ ____
ROOT
ATOM      1  S   UNL     1       3.894  -0.773  -0.019  0.00  0.00    +0.060 S 
ATOM      2  O   UNL     1       4.628  -0.289   1.098  0.00  0.00    -0.153 OA
ATOM      3  O   UNL     1       3.456  -2.121  -0.116  0.00  0.00    -0.153 OA
ENDROOT
BRANCH   1   7
ATOM      4  C   UNL     1       0.193   1.820  -0.357  0.00  0.00    +0.022 A 
ATOM      5  C   UNL     1       0.420   0.824  -1.286  0.00  0.00    +0.026 A 
ATOM      6  C   UNL     1       1.553   0.028  -1.186  0.00  0.00    +0.051 A 
ATOM      7  C   UNL     1       2.455   0.236  -0.150  0.00  0.00    +0.127 A 
ATOM      8  C   UNL     1       2.223   1.233   0.776  0.00  0.00    +0.050 A 
ATOM      9  C   UNL     1       1.093   2.025   0.673  0.00  0.00    +0.043 A 
ATOM     10 CL   UNL     1       0.804   3.278   1.840  0.00  0.00    -0.083 Cl
BRANCH   6  11
ATOM     11  N   UNL     1       1.785  -0.981  -2.125  0.00  0.00    -0.356 N 
ATOM     12  H   UNL     1       1.112  -1.187  -2.792  0.00  0.00    +0.142 HD
ATOM     13  H   UNL     1       2.619  -1.476  -2.108  0.00  0.00    +0.142 HD
ENDBRANCH   6  11
ENDBRANCH   1   7
BRANCH   1  14
ATOM     14  N   UNL     1       4.822  -0.479  -1.358  0.00  0.00    -0.190 NA
ATOM     15  H   UNL     1       4.980  -1.186  -2.003  0.00  0.00    +0.148 HD
BRANCH  14  16
ATOM     16  C   UNL     1       5.404   0.849  -1.569  0.00  0.00    +0.107 C 
BRANCH  16  17
ATOM     17  C   UNL     1       6.501   0.762  -2.633  0.00  0.00    -0.014 C 
ATOM     18  C   UNL     1       7.733  -0.016  -2.098  0.00  0.00    -0.016 C 
ATOM     19  C   UNL     1       8.895   0.556  -2.937  0.00  0.00    -0.078 C 
ATOM     20  N   UNL     1       8.469   1.878  -3.430  0.00  0.00    +0.382 N 
ATOM     21  C   UNL     1       7.110   2.157  -2.917  0.00  0.00    -0.074 C 
ATOM     22  H   UNL     1       8.456   1.876  -4.439  0.00  0.00    -0.081 HD
BRANCH  20  23
ATOM     23  C   UNL     1       9.400   2.909  -2.952  0.00  0.00    -0.069 C 
ATOM     24  C   UNL     1       9.963   3.887  -3.984  0.00  0.00    -0.017 C 
ATOM     25  C   UNL     1      10.861   2.800  -3.391  0.00  0.00    -0.017 C 
ENDBRANCH  20  23
ENDBRANCH  16  17
ENDBRANCH  14  16
ENDBRANCH   1  14
TORSDOF 6
