REMARK  Name = ZINC04223614
REMARK  6 active torsions:
REMARK  status: ('A' for Active; 'I' for Inactive)
REMARK    1  A    between atoms: C_1  and  C_2
REMARK    2  A    between atoms: C_2  and  N_45
REMARK    3  A    between atoms: C_8  and  N_13
REMARK    4  A    between atoms: C_9  and  C_10
REMARK    5  A    between atoms: C_14  and  C_16
REMARK    6  A    between atoms: C_16  and  N_17
REMARK                            x       y       z     vdW  Elec       q    Type
REMARK                         _______ _______ _______ _____ _____    ______ ____
ROOT
ATOM      1  C   UNL     1      -2.660   2.358  -8.080  0.00  0.00    -0.074 C 
ATOM      2  C   UNL     1      -1.338   1.984  -7.403  0.00  0.00    +0.018 C 
ATOM      3  C   UNL     1      -1.523   2.115  -5.895  0.00  0.00    -0.027 A 
ATOM      4  C   UNL     1      -2.559   2.829  -5.399  0.00  0.00    -0.021 A 
ATOM      5  S   UNL     1      -2.386   2.712  -3.642  0.00  0.00    -0.079 S 
ATOM      6  C   UNL     1      -0.959   1.732  -3.566  0.00  0.00    +0.084 A 
ATOM      7  C   UNL     1      -0.647   1.522  -4.903  0.00  0.00    +0.068 A 
ATOM      8  C   UNL     1      -3.604   3.548  -6.192  0.00  0.00    -0.035 C 
ATOM      9  N   UNL     1      -3.109   3.676  -7.585  0.00  0.00    +0.383 N 
ATOM     10  H   UNL     1      -2.314   4.326  -7.598  0.00  0.00    -0.081 HD
ENDROOT
BRANCH   7  11
ATOM     11  C   UNL     1       0.522   0.729  -5.297  0.00  0.00    +0.244 C 
ATOM     12  O   UNL     1       0.413  -0.472  -5.463  0.00  0.00    -0.270 OA
ATOM     13  N   UNL     1       1.715   1.329  -5.475  0.00  0.00    -0.325 N 
ATOM     14  H   UNL     1       1.801   2.286  -5.343  0.00  0.00    +0.145 HD
ATOM     15  H   UNL     1       2.488   0.803  -5.735  0.00  0.00    +0.145 HD
ENDBRANCH   7  11
BRANCH   6  16
ATOM     16  N   UNL     1      -0.288   1.272  -2.443  0.00  0.00    -0.278 N 
ATOM     17  C   UNL     1      -0.742   1.585  -1.213  0.00  0.00    +0.235 C 
ATOM     18  O   UNL     1      -1.736   2.268  -1.088  0.00  0.00    -0.274 OA
ATOM     19  H   UNL     1       0.507   0.726  -2.543  0.00  0.00    +0.155 HD
BRANCH  17  20
ATOM     20  C   UNL     1      -0.013   1.086   0.008  0.00  0.00    +0.212 C 
BRANCH  20  21
ATOM     21  N   UNL     1      -0.698   1.558   1.213  0.00  0.00    -0.233 N 
ATOM     22  C   UNL     1      -0.396   2.717   1.812  0.00  0.00    +0.223 C 
ATOM     23  O   UNL     1       0.456   3.496   1.443  0.00  0.00    -0.275 OA
ATOM     24  C   UNL     1      -1.289   2.902   3.019  0.00  0.00    +0.105 C 
ATOM     25  C   UNL     1      -2.163   1.631   3.020  0.00  0.00    +0.105 C 
ATOM     26  C   UNL     1      -1.675   0.864   1.810  0.00  0.00    +0.223 C 
ATOM     27  O   UNL     1      -2.101  -0.209   1.440  0.00  0.00    -0.275 OA
ENDBRANCH  20  21
ENDBRANCH  17  20
ENDBRANCH   6  16
BRANCH   9  29
ATOM     28  C   UNL     1      -5.338   3.212  -8.545  0.00  0.00    -0.017 C 
ATOM     29  C   UNL     1      -4.179   4.206  -8.456  0.00  0.00    -0.082 C 
ENDBRANCH   9  29
TORSDOF 5
