REMARK  Name = ZINC04702806
REMARK  9 active torsions:
REMARK  status: ('A' for Active; 'I' for Inactive)
REMARK    1  A    between atoms: C_1  and  O_2
REMARK    2  A    between atoms: O_2  and  C_3
REMARK    3  A    between atoms: C_3  and  C_5
REMARK    4  A    between atoms: C_7  and  C_29
REMARK    5  A    between atoms: C_9  and  N_11
REMARK    6  A    between atoms: C_12  and  C_14
REMARK    7  A    between atoms: C_14  and  C_15
REMARK    8  A    between atoms: C_29  and  O_31
REMARK    9  A    between atoms: O_31  and  C_32
REMARK                            x       y       z     vdW  Elec       q    Type
REMARK                         _______ _______ _______ _____ _____    ______ ____
ROOT
ATOM      1  N   UNL     1       2.010  -4.735   3.292  0.00  0.00    -0.285 N 
ATOM      2  C   UNL     1       2.655  -3.999   4.218  0.00  0.00    +0.216 C 
ATOM      3  O   UNL     1       2.607  -2.788   4.171  0.00  0.00    -0.276 OA
ATOM      4  H   UNL     1       1.984  -5.702   3.372  0.00  0.00    +0.155 HD
ENDROOT
BRANCH   1   9
ATOM      5  C   UNL     1       1.285  -2.313   0.604  0.00  0.00    +0.062 A 
ATOM      6  C   UNL     1       0.116  -2.851   0.068  0.00  0.00    +0.030 A 
ATOM      7  C   UNL     1      -0.420  -4.019   0.608  0.00  0.00    +0.062 A 
ATOM      8  C   UNL     1       0.214  -4.645   1.683  0.00  0.00    +0.038 A 
ATOM      9  C   UNL     1       1.377  -4.106   2.214  0.00  0.00    +0.035 A 
ATOM     10  C   UNL     1       1.917  -2.947   1.675  0.00  0.00    +0.038 A 
BRANCH   5  11
ATOM     11  C   UNL     1       1.857  -1.075   0.034  0.00  0.00    +0.339 C 
ATOM     12  O   UNL     1       2.879  -0.609   0.498  0.00  0.00    -0.245 OA
BRANCH  11  14
ATOM     13  C   UNL     1       1.856   0.728  -1.500  0.00  0.00    +0.280 C 
ATOM     14  O   UNL     1       1.247  -0.464  -1.000  0.00  0.00    -0.464 OA
ENDBRANCH  11  14
ENDBRANCH   5  11
BRANCH   7  15
ATOM     15  C   UNL     1      -1.659  -4.593   0.044  0.00  0.00    +0.339 C 
ATOM     16  O   UNL     1      -2.126  -5.611   0.516  0.00  0.00    -0.245 OA
BRANCH  15  17
ATOM     17  O   UNL     1      -2.271  -3.989  -0.992  0.00  0.00    -0.464 OA
ATOM     18  C   UNL     1      -3.465  -4.599  -1.487  0.00  0.00    +0.280 C 
ENDBRANCH  15  17
ENDBRANCH   7  15
ENDBRANCH   1   9
BRANCH   2  19
ATOM     19  C   UNL     1       3.437  -4.681   5.312  0.00  0.00    +0.089 C 
BRANCH  19  20
ATOM     20  C   UNL     1       4.067  -3.625   6.222  0.00  0.00    +0.025 C 
ATOM     21  C   UNL     1       4.734  -4.305   7.384  0.00  0.00    +0.200 C 
ATOM     22  O   UNL     1       4.162  -5.228   7.924  0.00  0.00    -0.278 OA
ATOM     23  N   UNL     1       5.934  -3.933   7.848  0.00  0.00    -0.315 N 
ATOM     24  C   UNL     1       6.703  -2.856   7.235  0.00  0.00    +0.059 C 
ATOM     25  C   UNL     1       7.398  -2.012   8.298  0.00  0.00    +0.020 C 
ATOM     26  C   UNL     1       6.357  -1.308   9.170  0.00  0.00    +0.002 C 
ATOM     27  C   UNL     1       5.488  -0.410   8.286  0.00  0.00    -0.001 C 
ATOM     28  C   UNL     1       4.767  -1.270   7.248  0.00  0.00    -0.014 C 
ATOM     29  C   UNL     1       5.788  -1.974   6.387  0.00  0.00    -0.050 C 
ATOM     30  N   UNL     1       5.049  -2.847   5.456  0.00  0.00    +0.390 N 
ATOM     31  H   UNL     1       6.304  -4.394   8.616  0.00  0.00    +0.149 HD
ATOM     32  H   UNL     1       5.691  -3.473   4.994  0.00  0.00    -0.084 HD
ATOM     33  H   UNL     1       4.572  -2.280   4.771  0.00  0.00    -0.084 HD
ENDBRANCH  19  20
ENDBRANCH   2  19
TORSDOF 7
