REMARK  Name = ZINC66967851
REMARK  9 active torsions:
REMARK  status: ('A' for Active; 'I' for Inactive)
REMARK    1  A    between atoms: C_1  and  C_2
REMARK    2  A    between atoms: C_2  and  C_3
REMARK    3  A    between atoms: C_3  and  N_4
REMARK    4  A    between atoms: C_10  and  N_13
REMARK    5  A    between atoms: N_13  and  C_14
REMARK    6  A    between atoms: C_14  and  C_16
REMARK    7  A    between atoms: C_14  and  C_17
REMARK    8  A    between atoms: N_22  and  C_23
REMARK    9  A    between atoms: C_23  and  C_24
REMARK                            x       y       z     vdW  Elec       q    Type
REMARK                         _______ _______ _______ _____ _____    ______ ____
ROOT
ATOM      1  C   UNL     1       3.138  -5.962   4.876  0.00  0.00    +0.154 C 
ATOM      2  C   UNL     1       3.674  -7.059   3.953  0.00  0.00    +0.038 C 
ENDROOT
BRANCH   1   3
ATOM      3  C   UNL     1       4.239  -5.494   5.791  0.00  0.00    +0.240 C 
ATOM      4  O   UNL     1       4.590  -4.333   5.772  0.00  0.00    -0.273 OA
ATOM      5  N   UNL     1       4.834  -6.364   6.631  0.00  0.00    -0.239 N 
ATOM      6  C   UNL     1       5.819  -5.945   7.449  0.00  0.00    +0.306 C 
ATOM      7  O   UNL     1       6.171  -4.782   7.431  0.00  0.00    -0.252 OA
ATOM      8  N   UNL     1       6.414  -6.815   8.289  0.00  0.00    -0.294 N 
ATOM      9  H   UNL     1       4.553  -7.292   6.646  0.00  0.00    +0.159 HD
ATOM     10  H   UNL     1       6.133  -7.744   8.304  0.00  0.00    +0.151 HD
BRANCH   8  11
ATOM     11  C   UNL     1       7.485  -6.360   9.179  0.00  0.00    +0.148 C 
BRANCH  11  12
ATOM     12  C   UNL     1       7.976  -7.518  10.008  0.00  0.00    +0.007 A 
ATOM     13  C   UNL     1       8.971  -8.399   9.739  0.00  0.00    +0.013 A 
ATOM     14  C   UNL     1       9.252  -9.394  10.657  0.00  0.00    +0.008 A 
ATOM     15  C   UNL     1       8.524  -9.459  11.798  0.00  0.00    +0.045 A 
ATOM     16  S   UNL     1       7.405  -8.082  11.602  0.00  0.00    -0.100 S 
ENDBRANCH  11  12
ENDBRANCH   8  11
ENDBRANCH   1   3
BRANCH   1  17
ATOM     17  N   UNL     1       2.660  -4.836   4.070  0.00  0.00    -0.333 N 
ATOM     18  H   UNL     1       3.245  -4.082   3.896  0.00  0.00    +0.147 HD
BRANCH  17  25
ATOM     19  N   UNL     1       0.762  -1.980   1.234  0.00  0.00    +0.385 N 
ATOM     20  C   UNL     1      -0.591  -2.519   1.498  0.00  0.00    -0.042 C 
ATOM     21  C   UNL     1      -0.377  -3.796   2.278  0.00  0.00    -0.061 A 
ATOM     22  C   UNL     1      -1.208  -4.873   2.528  0.00  0.00    +0.002 A 
ATOM     23  C   UNL     1      -0.758  -5.936   3.288  0.00  0.00    +0.002 A 
ATOM     24  C   UNL     1       0.525  -5.928   3.801  0.00  0.00    +0.023 A 
ATOM     25  C   UNL     1       1.363  -4.848   3.552  0.00  0.00    +0.029 A 
ATOM     26  C   UNL     1       0.908  -3.781   2.789  0.00  0.00    -0.042 A 
ATOM     27  C   UNL     1       1.575  -2.494   2.359  0.00  0.00    -0.040 C 
ATOM     28  H   UNL     1       1.117  -2.324   0.354  0.00  0.00    -0.081 HD
BRANCH  19  29
ATOM     29  C   UNL     1       0.742  -0.511   1.242  0.00  0.00    -0.078 C 
BRANCH  29  31
ATOM     30  C   UNL     1      -0.019   1.526   0.010  0.00  0.00    +0.002 C 
ATOM     31  C   UNL     1       0.002  -0.004   0.002  0.00  0.00    -0.022 C 
ENDBRANCH  29  31
ENDBRANCH  19  29
ENDBRANCH  17  25
ENDBRANCH   1  17
TORSDOF 7
