REMARK  Name = ZINC62539541
REMARK  4 active torsions:
REMARK  status: ('A' for Active; 'I' for Inactive)
REMARK    1  A    between atoms: C_1  and  C_2
REMARK    2  A    between atoms: C_6  and  C_14
REMARK    3  A    between atoms: C_7  and  N_8
REMARK    4  A    between atoms: C_17  and  C_20
REMARK                            x       y       z     vdW  Elec       q    Type
REMARK                         _______ _______ _______ _____ _____    ______ ____
ROOT
ATOM      1  C   UNL     1      -0.018   1.503   0.010  0.00  0.00    +0.046 C 
ATOM      2  C   UNL     1       0.002  -0.004   0.002  0.00  0.00    -0.026 A 
ATOM      3  C   UNL     1       0.006  -0.686  -1.200  0.00  0.00    +0.052 A 
ATOM      4  C   UNL     1       0.024  -2.072  -1.214  0.00  0.00    +0.142 A 
ATOM      5  C   UNL     1       0.037  -2.774  -0.011  0.00  0.00    +0.074 A 
ATOM      6  C   UNL     1       0.035  -2.091   1.194  0.00  0.00    -0.005 A 
ATOM      7  C   UNL     1       0.023  -0.702   1.202  0.00  0.00    +0.037 A 
ATOM      8  C   UNL     1       0.052  -2.854   2.494  0.00  0.00    +0.048 C 
ATOM      9  N   UNL     1       0.048  -4.177  -0.023  0.00  0.00    -0.337 N 
ATOM     10  C   UNL     1       0.358  -4.849  -1.297  0.00  0.00    +0.145 C 
ATOM     11  C   UNL     1      -0.387  -4.099  -2.410  0.00  0.00    +0.187 C 
ATOM     12  O   UNL     1       0.032  -2.732  -2.404  0.00  0.00    -0.486 OA
ATOM     13  C   UNL     1      -0.058  -4.733  -3.764  0.00  0.00    +0.053 C 
ATOM     14  H   UNL     1      -0.143  -4.688   0.780  0.00  0.00    +0.146 HD
ENDROOT
BRANCH   7  15
ATOM     15  N   UNL     1       0.026  -0.008   2.417  0.00  0.00    -0.333 N 
ATOM     16  C   UNL     1       1.290   0.389   3.058  0.00  0.00    +0.086 C 
ATOM     17  C   UNL     1       1.210   1.878   3.409  0.00  0.00    -0.063 C 
ATOM     18  N   UNL     1       0.013   2.124   4.223  0.00  0.00    +0.381 N 
ATOM     19  C   UNL     1      -1.194   1.838   3.438  0.00  0.00    -0.063 C 
ATOM     20  C   UNL     1      -1.233   0.351   3.086  0.00  0.00    +0.086 C 
ATOM     21  H   UNL     1       0.033   1.527   5.037  0.00  0.00    -0.086 HD
ATOM     22  H   UNL     1       0.001   3.089   4.518  0.00  0.00    -0.086 HD
ENDBRANCH   7  15
TORSDOF 1
