REMARK  Name = ZINC39533381
REMARK  12 active torsions:
REMARK  status: ('A' for Active; 'I' for Inactive)
REMARK    1  A    between atoms: C_1  and  C_2
REMARK    2  A    between atoms: C_2  and  C_3
REMARK    3  A    between atoms: C_2  and  C_4
REMARK    4  A    between atoms: C_4  and  C_5
REMARK    5  A    between atoms: C_8  and  C_11
REMARK    6  A    between atoms: C_11  and  C_13
REMARK    7  A    between atoms: C_11  and  N_22
REMARK    8  A    between atoms: C_13  and  N_14
REMARK    9  A    between atoms: N_14  and  C_15
REMARK   10  A    between atoms: C_20  and  O_21
REMARK   11  A    between atoms: C_26  and  S_29
REMARK   12  A    between atoms: S_29  and  C_30
REMARK                            x       y       z     vdW  Elec       q    Type
REMARK                         _______ _______ _______ _____ _____    ______ ____
ROOT
ATOM      1  C   UNL     1      -1.375  -6.292  -0.488  0.00  0.00    -0.020 C 
ENDROOT
BRANCH   1   2
ATOM      2  N   UNL     1      -0.451  -6.944   0.449  0.00  0.00    +0.388 N 
ATOM      3  C   UNL     1       0.881  -6.337   0.327  0.00  0.00    -0.062 C 
ATOM      4  C   UNL     1       1.839  -7.004   1.316  0.00  0.00    +0.063 C 
ATOM      5  N   UNL     1       1.910  -8.444   1.030  0.00  0.00    -0.308 NA
ATOM      6  C   UNL     1       0.580  -9.061   1.125  0.00  0.00    +0.095 C 
ATOM      7  C   UNL     1      -0.368  -8.377   0.137  0.00  0.00    -0.048 C 
ATOM      8  H   UNL     1       2.324  -8.613   0.126  0.00  0.00    +0.123 HD
ATOM      9  H   UNL     1      -0.789  -6.825   1.393  0.00  0.00    -0.081 HD
BRANCH   6  10
ATOM     10  S   UNL     1       0.702 -10.826   0.725  0.00  0.00    -0.147 S 
ATOM     11  C   UNL     1       2.479 -11.175   0.819  0.00  0.00    +0.086 C 
ENDBRANCH   6  10
ENDBRANCH   1   2
BRANCH   1  15
ATOM     12  C   UNL     1      -1.533  -2.106   0.349  0.00  0.00    -0.047 A 
ATOM     13  C   UNL     1      -1.525  -2.549  -0.960  0.00  0.00    +0.004 A 
ATOM     14  C   UNL     1      -1.473  -3.903  -1.231  0.00  0.00    +0.002 A 
ATOM     15  C   UNL     1      -1.430  -4.815  -0.193  0.00  0.00    -0.059 A 
ATOM     16  C   UNL     1      -1.437  -4.371   1.117  0.00  0.00    +0.002 A 
ATOM     17  C   UNL     1      -1.484  -3.017   1.387  0.00  0.00    +0.004 A 
BRANCH  12  18
ATOM     18  C   UNL     1      -1.589  -0.629   0.644  0.00  0.00    +0.038 C 
BRANCH  18  20
ATOM     19  C   UNL     1      -0.224   1.448   0.902  0.00  0.00    +0.007 C 
ATOM     20  C   UNL     1      -0.167  -0.071   0.727  0.00  0.00    -0.013 C 
ATOM     21  C   UNL     1       0.557  -0.695   1.922  0.00  0.00    +0.007 C 
ENDBRANCH  18  20
ENDBRANCH  12  18
ENDBRANCH   1  15
BRANCH   1  22
ATOM     22  C   UNL     1      -2.772  -6.895  -0.331  0.00  0.00    +0.091 C 
BRANCH  22  23
ATOM     23  N   UNL     1      -3.670  -6.313  -1.331  0.00  0.00    -0.342 N 
ATOM     24  H   UNL     1      -3.321  -5.707  -2.002  0.00  0.00    +0.146 HD
BRANCH  23  25
ATOM     25  C   UNL     1      -5.033  -6.631  -1.316  0.00  0.00    +0.069 A 
ATOM     26  C   UNL     1      -5.536  -7.493  -0.352  0.00  0.00    +0.026 A 
ATOM     27  C   UNL     1      -6.882  -7.806  -0.339  0.00  0.00    +0.002 A 
ATOM     28  C   UNL     1      -7.731  -7.261  -1.286  0.00  0.00    +0.004 A 
ATOM     29  C   UNL     1      -7.237  -6.401  -2.249  0.00  0.00    +0.047 A 
ATOM     30  C   UNL     1      -5.890  -6.079  -2.265  0.00  0.00    +0.138 A 
BRANCH  30  31
ATOM     31  O   UNL     1      -5.404  -5.229  -3.210  0.00  0.00    -0.505 OA
ATOM     32  H   UNL     1      -5.109  -5.668  -4.020  0.00  0.00    +0.292 HD
ENDBRANCH  30  31
ENDBRANCH  23  25
ENDBRANCH  22  23
ENDBRANCH   1  22
TORSDOF 9
