REMARK  Name = ZINC49123023
REMARK  11 active torsions:
REMARK  status: ('A' for Active; 'I' for Inactive)
REMARK    1  A    between atoms: C_1  and  C_2
REMARK    2  A    between atoms: N_5  and  C_8
REMARK    3  A    between atoms: C_8  and  C_10
REMARK    4  A    between atoms: C_8  and  C_26
REMARK    5  A    between atoms: C_10  and  N_11
REMARK    6  A    between atoms: N_14  and  C_15
REMARK    7  A    between atoms: C_15  and  C_16
REMARK    8  A    between atoms: C_20  and  S_22
REMARK    9  A    between atoms: S_22  and  N_25
REMARK   10  A    between atoms: C_26  and  C_27
REMARK   11  A    between atoms: C_26  and  C_28
REMARK                            x       y       z     vdW  Elec       q    Type
REMARK                         _______ _______ _______ _____ _____    ______ ____
ROOT
ATOM      1  N   UNL     1       1.306  -3.659   2.564  0.00  0.00    -0.301 N 
ATOM      2  C   UNL     1       2.129  -3.763   3.627  0.00  0.00    +0.300 C 
ATOM      3  O   UNL     1       1.771  -4.374   4.615  0.00  0.00    -0.253 OA
ATOM      4  N   UNL     1       3.348  -3.188   3.595  0.00  0.00    -0.295 N 
ATOM      5  H   UNL     1       1.592  -3.171   1.776  0.00  0.00    +0.150 HD
ATOM      6  H   UNL     1       3.633  -2.700   2.807  0.00  0.00    +0.151 HD
ENDROOT
BRANCH   1   7
ATOM      7  C   UNL     1      -0.018  -4.283   2.599  0.00  0.00    +0.091 C 
BRANCH   7   8
ATOM      8  C   UNL     1      -0.818  -3.852   1.368  0.00  0.00    -0.048 C 
BRANCH   8  13
ATOM      9  C   UNL     1      -1.720   1.566   2.903  0.00  0.00    +0.007 C 
ATOM     10  C   UNL     1      -1.255   0.108   2.878  0.00  0.00    -0.018 C 
ATOM     11  C   UNL     1      -0.392  -0.133   1.637  0.00  0.00    -0.016 C 
ATOM     12  C   UNL     1       0.004  -1.610   1.577  0.00  0.00    -0.078 C 
ATOM     13  N   UNL     1      -1.204  -2.441   1.504  0.00  0.00    +0.383 N 
ATOM     14  C   UNL     1      -2.001  -2.269   2.724  0.00  0.00    -0.078 C 
ATOM     15  C   UNL     1      -2.474  -0.818   2.828  0.00  0.00    -0.016 C 
ATOM     16  H   UNL     1      -1.752  -2.166   0.703  0.00  0.00    -0.081 HD
ENDBRANCH   8  13
BRANCH   8  17
ATOM     17  C   UNL     1      -2.075  -4.715   1.248  0.00  0.00    -0.029 C 
ATOM     18  C   UNL     1      -2.872  -4.288   0.014  0.00  0.00    +0.005 C 
ATOM     19  C   UNL     1      -1.674  -6.185   1.112  0.00  0.00    +0.005 C 
ENDBRANCH   8  17
ENDBRANCH   7   8
ENDBRANCH   1   7
BRANCH   4  20
ATOM     20  C   UNL     1       4.241  -3.301   4.750  0.00  0.00    +0.141 C 
BRANCH  20  21
ATOM     21  C   UNL     1       5.531  -2.578   4.460  0.00  0.00    -0.028 A 
ATOM     22  C   UNL     1       6.583  -3.251   3.866  0.00  0.00    +0.005 A 
ATOM     23  C   UNL     1       7.766  -2.587   3.600  0.00  0.00    +0.002 A 
ATOM     24  C   UNL     1       7.897  -1.250   3.928  0.00  0.00    +0.028 A 
ATOM     25  C   UNL     1       6.845  -0.577   4.520  0.00  0.00    +0.105 A 
ATOM     26  C   UNL     1       5.660  -1.240   4.782  0.00  0.00    +0.033 A 
BRANCH  25  27
ATOM     27  S   UNL     1       7.013   1.127   4.938  0.00  0.00    +0.056 S 
ATOM     28  O   UNL     1       6.079   1.384   5.977  0.00  0.00    -0.153 OA
ATOM     29  O   UNL     1       8.405   1.373   5.085  0.00  0.00    -0.153 OA
BRANCH  27  30
ATOM     30  N   UNL     1       6.513   2.004   3.625  0.00  0.00    -0.204 NA
ATOM     31  H   UNL     1       6.204   1.548   2.826  0.00  0.00    +0.144 HD
ATOM     32  H   UNL     1       6.529   2.973   3.655  0.00  0.00    +0.144 HD
ENDBRANCH  27  30
ENDBRANCH  25  27
ENDBRANCH  20  21
ENDBRANCH   4  20
TORSDOF 8
