REMARK  Name = ZINC50586881
REMARK  5 active torsions:
REMARK  status: ('A' for Active; 'I' for Inactive)
REMARK    1  A    between atoms: C_1  and  C_2
REMARK    2  A    between atoms: C_4  and  C_20
REMARK    3  A    between atoms: N_5  and  C_7
REMARK    4  A    between atoms: C_10  and  C_17
REMARK    5  A    between atoms: C_11  and  C_13
REMARK                            x       y       z     vdW  Elec       q    Type
REMARK                         _______ _______ _______ _____ _____    ______ ____
ROOT
ATOM      1  C   UNL     1       0.225  -3.333   1.406  0.00  0.00    +0.066 A 
ATOM      2  C   UNL     1      -0.348  -4.503   0.919  0.00  0.00    +0.028 A 
ATOM      3  C   UNL     1      -0.394  -5.630   1.710  0.00  0.00    +0.014 A 
ATOM      4  C   UNL     1       0.137  -5.597   3.001  0.00  0.00    +0.024 A 
ATOM      5  C   UNL     1       0.712  -4.421   3.487  0.00  0.00    +0.067 A 
ATOM      6  C   UNL     1       0.759  -3.299   2.689  0.00  0.00    +0.040 A 
ENDROOT
BRANCH   1  11
ATOM      7  C   UNL     1       1.899   0.776  -0.804  0.00  0.00    +0.069 C 
ATOM      8  C   UNL     1       1.022  -0.371  -0.373  0.00  0.00    +0.079 A 
ATOM      9  C   UNL     1      -0.290  -0.605  -0.800  0.00  0.00    +0.085 A 
ATOM     10  C   UNL     1      -0.734  -1.728  -0.190  0.00  0.00    +0.060 A 
ATOM     11  N   UNL     1       0.270  -2.191   0.600  0.00  0.00    -0.235 N 
ATOM     12  N   UNL     1       1.360  -1.322   0.460  0.00  0.00    -0.170 NA
ATOM     13  C   UNL     1      -2.096  -2.353  -0.356  0.00  0.00    +0.067 C 
ATOM     14 CL   UNL     1      -1.190   0.375  -1.916  0.00  0.00    -0.080 Cl
ENDBRANCH   1  11
BRANCH   4  15
ATOM     15  C   UNL     1       0.089  -6.804   3.853  0.00  0.00    +0.095 C 
ATOM     16  N   UNL     1      -0.534  -6.765   5.030  0.00  0.00    -0.387 N 
ATOM     17  N   UNL     1       0.669  -7.931   3.444  0.00  0.00    -0.345 N 
ATOM     18  H   UNL     1      -1.030  -5.973   5.290  0.00  0.00    +0.157 HD
ATOM     19  H   UNL     1       1.122  -7.960   2.587  0.00  0.00    +0.144 HD
ATOM     20  H   UNL     1       0.637  -8.724   4.003  0.00  0.00    +0.144 HD
ATOM     21  H   UNL     1      -0.493  -7.528   5.626  0.00  0.00    +0.157 HD
ENDBRANCH   4  15
BRANCH   5  22
ATOM     22  C   UNL     1       1.285  -4.380   4.880  0.00  0.00    +0.418 C 
ATOM     23  F   UNL     1       1.924  -3.153   5.086  0.00  0.00    -0.166 F 
ATOM     24  F   UNL     1       0.254  -4.532   5.813  0.00  0.00    -0.166 F 
ATOM     25  F   UNL     1       2.210  -5.419   5.034  0.00  0.00    -0.166 F 
ENDBRANCH   5  22
TORSDOF 3
