REMARK  Name = ZINC22561438
REMARK  12 active torsions:
REMARK  status: ('A' for Active; 'I' for Inactive)
REMARK    1  A    between atoms: C_1  and  C_2
REMARK    2  A    between atoms: C_2  and  C_4
REMARK    3  A    between atoms: C_2  and  N_32
REMARK    4  A    between atoms: C_7  and  S_16
REMARK    5  A    between atoms: N_8  and  C_9
REMARK    6  A    between atoms: S_16  and  C_17
REMARK    7  A    between atoms: C_17  and  C_19
REMARK    8  A    between atoms: C_17  and  C_20
REMARK    9  A    between atoms: N_22  and  C_23
REMARK   10  A    between atoms: C_26  and  C_29
REMARK   11  A    between atoms: N_32  and  C_33
REMARK   12  A    between atoms: N_32  and  C_34
REMARK                            x       y       z     vdW  Elec       q    Type
REMARK                         _______ _______ _______ _____ _____    ______ ____
ROOT
ATOM      1  C   UNL     1       3.870  -8.788   0.304  0.00  0.00    +0.125 A 
ATOM      2  N   UNL     1       2.686  -8.463  -0.134  0.00  0.00    -0.135 NA
ATOM      3  N   UNL     1       2.566  -7.185  -0.178  0.00  0.00    -0.122 NA
ATOM      4  C   UNL     1       3.680  -6.616   0.222  0.00  0.00    +0.197 A 
ATOM      5  N   UNL     1       4.548  -7.622   0.547  0.00  0.00    -0.275 N 
ENDROOT
BRANCH   5   6
ATOM      6  C   UNL     1       5.859  -7.489   1.028  0.00  0.00    +0.050 A 
ATOM      7  C   UNL     1       6.928  -7.939   0.267  0.00  0.00    +0.028 A 
ATOM      8  C   UNL     1       8.218  -7.802   0.741  0.00  0.00    +0.022 A 
ATOM      9  C   UNL     1       8.444  -7.226   1.978  0.00  0.00    +0.041 A 
ATOM     10  C   UNL     1       7.379  -6.781   2.742  0.00  0.00    +0.022 A 
ATOM     11  C   UNL     1       6.088  -6.911   2.269  0.00  0.00    +0.028 A 
ATOM     12 CL   UNL     1      10.067  -7.060   2.574  0.00  0.00    -0.084 Cl
ENDBRANCH   5   6
BRANCH   1  14
ATOM     13  C   UNL     1       3.769 -10.792   1.761  0.00  0.00    -0.005 C 
ATOM     14  C   UNL     1       4.397 -10.186   0.504  0.00  0.00    -0.003 C 
BRANCH  14  15
ATOM     15  N   UNL     1       4.052 -11.010  -0.662  0.00  0.00    +0.382 N 
ATOM     16  C   UNL     1       4.651 -12.348  -0.557  0.00  0.00    -0.096 C 
ATOM     17  C   UNL     1       2.596 -11.098  -0.833  0.00  0.00    -0.096 C 
ATOM     18  H   UNL     1       4.469 -10.523  -1.556  0.00  0.00    -0.082 HD
ENDBRANCH  14  15
ENDBRANCH   1  14
BRANCH   4  19
ATOM     19  S   UNL     1       3.994  -4.886   0.329  0.00  0.00    -0.073 S 
BRANCH  19  20
ATOM     20  C   UNL     1       2.408  -4.242  -0.258  0.00  0.00    +0.137 C 
ATOM     21  C   UNL     1       2.207  -4.636  -1.723  0.00  0.00    +0.029 C 
BRANCH  20  22
ATOM     22  C   UNL     1       2.400  -2.740  -0.137  0.00  0.00    +0.230 C 
ATOM     23  O   UNL     1       3.445  -2.125  -0.144  0.00  0.00    -0.274 OA
ATOM     24  N   UNL     1       1.231  -2.079  -0.020  0.00  0.00    -0.285 N 
ATOM     25  H   UNL     1       0.288  -2.640   0.062  0.00  0.00    +0.155 HD
BRANCH  24  26
ATOM     26  C   UNL     1       1.216  -0.685  -0.004  0.00  0.00    +0.033 A 
ATOM     27  C   UNL     1       2.255   0.013   0.603  0.00  0.00    +0.024 A 
ATOM     28  C   UNL     1       2.244   1.390   0.620  0.00  0.00    +0.015 A 
ATOM     29  C   UNL     1       1.188   2.086   0.026  0.00  0.00    +0.037 A 
ATOM     30  C   UNL     1       0.146   1.382  -0.583  0.00  0.00    +0.015 A 
ATOM     31  C   UNL     1       0.163   0.005  -0.596  0.00  0.00    +0.024 A 
BRANCH  29  32
ATOM     32  C   UNL     1       1.173   3.562   0.043  0.00  0.00    +0.242 C 
ATOM     33  O   UNL     1       2.080   4.173   0.574  0.00  0.00    -0.270 OA
ATOM     34  N   UNL     1       0.153   4.232  -0.530  0.00  0.00    -0.325 N 
ATOM     35  H   UNL     1       0.141   5.332  -0.517  0.00  0.00    +0.145 HD
ATOM     36  H   UNL     1      -0.668   3.679  -1.010  0.00  0.00    +0.145 HD
ENDBRANCH  29  32
ENDBRANCH  24  26
ENDBRANCH  20  22
ENDBRANCH  19  20
ENDBRANCH   4  19
TORSDOF 8
