REMARK  Name = ZINC32307905
REMARK  9 active torsions:
REMARK  status: ('A' for Active; 'I' for Inactive)
REMARK    1  A    between atoms: C_1  and  C_2
REMARK    2  A    between atoms: C_2  and  C_23
REMARK    3  A    between atoms: C_9  and  N_16
REMARK    4  A    between atoms: C_12  and  S_14
REMARK    5  A    between atoms: S_14  and  C_15
REMARK    6  A    between atoms: N_16  and  C_17
REMARK    7  A    between atoms: C_17  and  C_18
REMARK    8  A    between atoms: C_18  and  C_19
REMARK    9  A    between atoms: C_19  and  O_20
REMARK                            x       y       z     vdW  Elec       q    Type
REMARK                         _______ _______ _______ _____ _____    ______ ____
ROOT
ATOM      1  C   UNL     1      -0.019   1.526   0.010  0.00  0.00    +0.041 C 
ATOM      2  C   UNL     1       0.002  -0.004   0.002  0.00  0.00    +0.068 C 
ATOM      3  C   UNL     1      -1.436  -0.530  -0.008  0.00  0.00    +0.071 C 
ATOM      4  C   UNL     1      -2.063  -0.223   1.350  0.00  0.00    -0.024 A 
ATOM      5  C   UNL     1      -1.248   0.075   2.402  0.00  0.00    +0.021 A 
ATOM      6  S   UNL     1      -2.367   0.359   3.747  0.00  0.00    -0.071 S 
ATOM      7  C   UNL     1      -3.871   0.070   2.861  0.00  0.00    +0.110 A 
ATOM      8  C   UNL     1      -3.439  -0.227   1.583  0.00  0.00    +0.023 A 
ATOM      9  C   UNL     1      -4.502  -0.536   0.530  0.00  0.00    +0.174 C 
ATOM     10  N   UNL     1      -5.696  -0.993   1.258  0.00  0.00    -0.304 N 
ATOM     11  C   UNL     1      -6.069  -0.406   2.444  0.00  0.00    +0.156 C 
ATOM     12  N   UNL     1      -5.160   0.108   3.257  0.00  0.00    -0.219 NA
ATOM     13  C   UNL     1       0.244   0.134   2.383  0.00  0.00    +0.203 C 
ATOM     14  O   UNL     1       0.694  -0.474   1.161  0.00  0.00    -0.368 OA
ATOM     15  C   UNL     1       0.726  -0.494  -1.254  0.00  0.00    +0.041 C 
ATOM     16  H   UNL     1      -6.227  -1.718   0.895  0.00  0.00    +0.150 HD
ENDROOT
BRANCH  11  17
ATOM     17  S   UNL     1      -7.774  -0.338   2.885  0.00  0.00    -0.094 S 
ATOM     18  C   UNL     1      -7.777   0.505   4.491  0.00  0.00    +0.093 C 
ENDBRANCH  11  17
BRANCH   9  19
ATOM     19  N   UNL     1      -4.813   0.676  -0.240  0.00  0.00    -0.295 NA
ATOM     20  H   UNL     1      -5.673   1.096   0.079  0.00  0.00    +0.124 HD
BRANCH  19  21
ATOM     21  C   UNL     1      -4.872   0.385  -1.679  0.00  0.00    +0.085 C 
BRANCH  21  22
ATOM     22  C   UNL     1      -5.197   1.668  -2.446  0.00  0.00    +0.043 C 
BRANCH  22  23
ATOM     23  C   UNL     1      -5.258   1.365  -3.945  0.00  0.00    +0.157 C 
BRANCH  23  24
ATOM     24  O   UNL     1      -5.562   2.563  -4.661  0.00  0.00    -0.395 OA
ATOM     25  H   UNL     1      -5.617   2.445  -5.620  0.00  0.00    +0.209 HD
ENDBRANCH  23  24
ENDBRANCH  22  23
ENDBRANCH  21  22
ENDBRANCH  19  21
ENDBRANCH   9  19
TORSDOF 6
