REMARK  Name = ZINC48796069
REMARK  7 active torsions:
REMARK  status: ('A' for Active; 'I' for Inactive)
REMARK    1  A    between atoms: C_1  and  N_2
REMARK    2  A    between atoms: C_3  and  C_5
REMARK    3  A    between atoms: C_5  and  N_6
REMARK    4  A    between atoms: C_9  and  N_12
REMARK    5  A    between atoms: N_12  and  C_13
REMARK    6  A    between atoms: C_13  and  C_14
REMARK    7  A    between atoms: C_19  and  O_20
REMARK                            x       y       z     vdW  Elec       q    Type
REMARK                         _______ _______ _______ _____ _____    ______ ____
ROOT
ATOM      1  N   UNL     1      -6.170  -4.679  -0.721  0.00  0.00    +0.384 N 
ATOM      2  H   UNL     1      -6.546  -4.254   0.113  0.00  0.00    -0.085 HD
ATOM      3  H   UNL     1      -6.699  -4.372  -1.523  0.00  0.00    -0.085 HD
ENDROOT
BRANCH   1   7
ATOM      4  N   UNL     1      -2.514  -2.709   0.011  0.00  0.00    -0.294 NA
ATOM      5  C   UNL     1      -3.214  -2.357  -1.230  0.00  0.00    +0.083 C 
ATOM      6  C   UNL     1      -4.683  -2.773  -1.125  0.00  0.00    -0.000 C 
ATOM      7  C   UNL     1      -4.764  -4.283  -0.881  0.00  0.00    -0.069 C 
ATOM      8  C   UNL     1      -3.986  -4.629   0.392  0.00  0.00    -0.000 C 
ATOM      9  C   UNL     1      -2.538  -4.159   0.242  0.00  0.00    +0.083 C 
BRANCH   4  10
ATOM     10  C   UNL     1      -1.135  -2.201   0.001  0.00  0.00    +0.180 C 
BRANCH  10  13
ATOM     11  C   UNL     1      -0.018   1.461   0.010  0.00  0.00    +0.128 C 
ATOM     12  N   UNL     1       0.002  -0.004   0.002  0.00  0.00    -0.317 N 
ATOM     13  C   UNL     1      -1.156  -0.694   0.009  0.00  0.00    +0.227 C 
ATOM     14  O   UNL     1      -2.214  -0.102   0.023  0.00  0.00    -0.274 OA
ATOM     15  H   UNL     1       0.849  -0.478  -0.009  0.00  0.00    +0.148 HD
ENDBRANCH  10  13
ENDBRANCH   4  10
ENDBRANCH   1   7
BRANCH   1  16
ATOM     16  C   UNL     1      -6.256  -6.141  -0.607  0.00  0.00    -0.043 C 
BRANCH  16  17
ATOM     17  C   UNL     1      -7.698  -6.547  -0.442  0.00  0.00    -0.022 A 
ATOM     18  C   UNL     1      -8.194  -6.843   0.813  0.00  0.00    +0.005 A 
ATOM     19  C   UNL     1      -9.517  -7.216   0.965  0.00  0.00    +0.002 A 
ATOM     20  C   UNL     1     -10.347  -7.294  -0.138  0.00  0.00    +0.019 A 
ATOM     21  C   UNL     1      -9.856  -6.999  -1.396  0.00  0.00    +0.059 A 
ATOM     22  C   UNL     1      -8.529  -6.619  -1.550  0.00  0.00    +0.132 A 
ATOM     23 BR   UNL     1     -10.991  -7.106  -2.904  0.00  0.00    -0.047 Br
BRANCH  22  24
ATOM     24  O   UNL     1      -8.045  -6.324  -2.785  0.00  0.00    -0.505 OA
ATOM     25  H   UNL     1      -7.679  -7.084  -3.257  0.00  0.00    +0.292 HD
ENDBRANCH  22  24
ENDBRANCH  16  17
ENDBRANCH   1  16
TORSDOF 6
