REMARK  Name = ZINC49075828
REMARK  8 active torsions:
REMARK  status: ('A' for Active; 'I' for Inactive)
REMARK    1  A    between atoms: C_1  and  C_2
REMARK    2  A    between atoms: C_2  and  C_4
REMARK    3  A    between atoms: C_2  and  N_10
REMARK    4  A    between atoms: C_4  and  N_5
REMARK    5  A    between atoms: N_10  and  C_11
REMARK    6  A    between atoms: C_11  and  C_12
REMARK    7  A    between atoms: C_12  and  C_14
REMARK    8  A    between atoms: C_12  and  O_21
REMARK                            x       y       z     vdW  Elec       q    Type
REMARK                         _______ _______ _______ _____ _____    ______ ____
ROOT
ATOM      1  N   UNL     1      -1.376  -0.512   0.012  0.00  0.00    +0.384 N 
ATOM      2  H   UNL     1      -1.363  -1.518   0.090  0.00  0.00    -0.085 HD
ATOM      3  H   UNL     1      -1.873  -0.121   0.799  0.00  0.00    -0.085 HD
ENDROOT
BRANCH   1   5
ATOM      4  C   UNL     1      -0.019   1.526   0.010  0.00  0.00    -0.012 C 
ATOM      5  C   UNL     1       0.002  -0.004   0.002  0.00  0.00    -0.053 C 
BRANCH   5   6
ATOM      6  C   UNL     1       0.742  -0.511   1.242  0.00  0.00    +0.127 C 
BRANCH   6   7
ATOM      7  N   UNL     1       0.866  -1.969   1.174  0.00  0.00    -0.273 N 
ATOM      8  C   UNL     1       2.015  -2.673   1.261  0.00  0.00    +0.108 A 
ATOM      9  C   UNL     1       1.703  -3.985   1.153  0.00  0.00    +0.041 A 
ATOM     10  C   UNL     1       0.317  -4.087   0.995  0.00  0.00    +0.134 A 
ATOM     11  N   UNL     1      -0.186  -2.879   1.013  0.00  0.00    -0.180 NA
ENDBRANCH   6   7
ENDBRANCH   5   6
ENDBRANCH   1   5
BRANCH   1  12
ATOM     12  C   UNL     1      -2.050  -0.126  -1.234  0.00  0.00    -0.046 C 
BRANCH  12  13
ATOM     13  C   UNL     1      -3.485  -0.656  -1.224  0.00  0.00    +0.128 C 
BRANCH  13  14
ATOM     14  C   UNL     1      -4.138  -0.366  -2.551  0.00  0.00    -0.020 A 
ATOM     15  C   UNL     1      -4.636   0.896  -2.816  0.00  0.00    +0.006 A 
ATOM     16  C   UNL     1      -5.234   1.161  -4.033  0.00  0.00    +0.001 A 
ATOM     17  C   UNL     1      -5.335   0.165  -4.986  0.00  0.00    +0.015 A 
ATOM     18  C   UNL     1      -4.836  -1.097  -4.722  0.00  0.00    +0.018 A 
ATOM     19  C   UNL     1      -4.232  -1.361  -3.506  0.00  0.00    +0.021 A 
ATOM     20 BR   UNL     1      -4.973  -2.460  -6.026  0.00  0.00    -0.050 Br
ENDBRANCH  13  14
BRANCH  13  21
ATOM     21  O   UNL     1      -4.222  -0.014  -0.181  0.00  0.00    -0.389 OA
ATOM     22  H   UNL     1      -4.273   0.948  -0.270  0.00  0.00    +0.210 HD
ENDBRANCH  13  21
ENDBRANCH  12  13
ENDBRANCH   1  12
TORSDOF 7
