REMARK  Name = ZINC10243481
REMARK  11 active torsions:
REMARK  status: ('A' for Active; 'I' for Inactive)
REMARK    1  A    between atoms: C_1  and  C_2
REMARK    2  A    between atoms: C_2  and  N_45
REMARK    3  A    between atoms: C_3  and  C_4
REMARK    4  A    between atoms: C_3  and  N_45
REMARK    5  A    between atoms: C_5  and  C_6
REMARK    6  A    between atoms: C_5  and  N_45
REMARK    7  A    between atoms: C_6  and  S_7
REMARK    8  A    between atoms: S_7  and  C_8
REMARK    9  A    between atoms: C_13  and  N_17
REMARK   10  A    between atoms: C_14  and  N_16
REMARK   11  A    between atoms: C_18  and  C_20
REMARK                            x       y       z     vdW  Elec       q    Type
REMARK                         _______ _______ _______ _____ _____    ______ ____
ROOT
ATOM      1  C   UNL     1       0.222  -0.311  -0.691  0.00  0.00    +0.171 A 
ATOM      2  N   UNL     1       0.342   1.035  -0.866  0.00  0.00    -0.300 N 
ATOM      3  H   UNL     1      -0.444   1.601  -0.821  0.00  0.00    +0.171 HD
ATOM      4  C   UNL     1       1.552   1.582  -1.108  0.00  0.00    +0.275 A 
ATOM      5  O   UNL     1       1.668   2.787  -1.267  0.00  0.00    -0.266 OA
ATOM      6  C   UNL     1       2.673   0.742  -1.175  0.00  0.00    +0.139 A 
ATOM      7  C   UNL     1       2.494  -0.625  -0.988  0.00  0.00    +0.146 A 
ATOM      8  N   UNL     1       1.269  -1.107  -0.751  0.00  0.00    -0.207 NA
ENDROOT
BRANCH   6   9
ATOM      9  N   UNL     1       3.954   1.271  -1.425  0.00  0.00    -0.272 N 
ATOM     10  C   UNL     1       4.182   1.980  -2.548  0.00  0.00    +0.284 C 
ATOM     11  O   UNL     1       3.261   2.243  -3.300  0.00  0.00    -0.266 OA
ATOM     12  H   UNL     1       4.671   1.125  -0.789  0.00  0.00    +0.155 HD
BRANCH  10  13
ATOM     13  C   UNL     1       5.539   2.434  -2.865  0.00  0.00    +0.191 A 
ATOM     14  C   UNL     1       5.909   3.152  -3.967  0.00  0.00    +0.056 A 
ATOM     15  C   UNL     1       7.291   3.369  -3.862  0.00  0.00    +0.058 A 
ATOM     16  C   UNL     1       7.702   2.773  -2.719  0.00  0.00    +0.171 A 
ATOM     17  O   UNL     1       6.644   2.211  -2.121  0.00  0.00    -0.444 OA
ATOM     18 BR   UNL     1       9.479   2.741  -2.072  0.00  0.00    -0.008 Br
ENDBRANCH  10  13
ENDBRANCH   6   9
BRANCH   7  19
ATOM     19  N   UNL     1       3.578  -1.482  -1.047  0.00  0.00    -0.341 N 
ATOM     20  H   UNL     1       3.451  -2.435  -0.917  0.00  0.00    +0.144 HD
ATOM     21  H   UNL     1       4.466  -1.130  -1.219  0.00  0.00    +0.144 HD
ENDBRANCH   7  19
BRANCH   1  22
ATOM     22  S   UNL     1      -1.368  -1.000  -0.375  0.00  0.00    -0.090 S 
BRANCH  22  23
ATOM     23  C   UNL     1      -0.930  -2.751  -0.234  0.00  0.00    +0.059 C 
BRANCH  23  24
ATOM     24  C   UNL     1      -2.190  -3.571   0.048  0.00  0.00    -0.068 C 
BRANCH  24  25
ATOM     25  N   UNL     1      -1.809  -4.992   0.188  0.00  0.00    +0.380 N 
ATOM     26  H   UNL     1      -1.118  -5.224  -0.535  0.00  0.00    -0.082 HD
BRANCH  25  28
ATOM     27  C   UNL     1      -0.623  -6.639   1.554  0.00  0.00    -0.017 C 
ATOM     28  C   UNL     1      -1.208  -5.226   1.518  0.00  0.00    -0.082 C 
ENDBRANCH  25  28
BRANCH  25  29
ATOM     29  C   UNL     1      -2.997  -5.854   0.011  0.00  0.00    -0.082 C 
ATOM     30  C   UNL     1      -3.317  -5.947  -1.482  0.00  0.00    -0.017 C 
ENDBRANCH  25  29
ENDBRANCH  24  25
ENDBRANCH  23  24
ENDBRANCH  22  23
ENDBRANCH   1  22
TORSDOF 9
