REMARK  Name = ZINC59094907
REMARK  13 active torsions:
REMARK  status: ('A' for Active; 'I' for Inactive)
REMARK    1  A    between atoms: C_1  and  C_2
REMARK    2  A    between atoms: C_7  and  C_8
REMARK    3  A    between atoms: C_8  and  N_9
REMARK    4  A    between atoms: N_9  and  C_10
REMARK    5  A    between atoms: N_9  and  C_20
REMARK    6  A    between atoms: C_12  and  C_18
REMARK    7  A    between atoms: C_12  and  C_19
REMARK    8  A    between atoms: C_14  and  C_16
REMARK    9  A    between atoms: C_14  and  C_17
REMARK   10  A    between atoms: C_20  and  N_22
REMARK   11  A    between atoms: N_22  and  C_23
REMARK   12  A    between atoms: C_27  and  O_29
REMARK   13  A    between atoms: O_29  and  C_30
REMARK                            x       y       z     vdW  Elec       q    Type
REMARK                         _______ _______ _______ _____ _____    ______ ____
ROOT
ATOM      1  N   UNL     1      -1.646   0.004   2.732  0.00  0.00    -0.305 N 
ENDROOT
BRANCH   1   2
ATOM      2  C   UNL     1      -2.483  -0.991   3.414  0.00  0.00    +0.073 C 
ATOM      3  C   UNL     1      -2.852  -0.469   4.804  0.00  0.00    +0.009 C 
ATOM      4  C   UNL     1      -3.735  -1.489   5.522  0.00  0.00    -0.072 C 
ATOM      5  N   UNL     1      -4.904  -1.854   4.735  0.00  0.00    +0.386 N 
ATOM      6  C   UNL     1      -4.699  -2.173   3.331  0.00  0.00    -0.072 C 
ATOM      7  C   UNL     1      -3.773  -1.193   2.619  0.00  0.00    +0.009 C 
ATOM      8  C   UNL     1      -6.077  -2.093   2.631  0.00  0.00    -0.010 C 
ATOM      9  C   UNL     1      -4.187  -3.604   3.145  0.00  0.00    -0.010 C 
ATOM     10  C   UNL     1      -2.910  -2.710   5.927  0.00  0.00    -0.010 C 
ATOM     11  C   UNL     1      -4.238  -0.823   6.824  0.00  0.00    -0.010 C 
ATOM     12  H   UNL     1      -5.358  -2.652   5.185  0.00  0.00    -0.084 HD
ATOM     13  H   UNL     1      -5.582  -1.090   4.795  0.00  0.00    -0.084 HD
ENDBRANCH   1   2
BRANCH   1  14
ATOM     14  C   UNL     1      -2.132   1.235   2.480  0.00  0.00    +0.138 C 
ATOM     15  S   UNL     1      -3.678   1.681   3.064  0.00  0.00    -0.018 S 
BRANCH  14  16
ATOM     16  N   UNL     1      -1.401   2.116   1.768  0.00  0.00    -0.297 N 
ATOM     17  H   UNL     1      -1.653   2.330   0.856  0.00  0.00    +0.154 HD
BRANCH  16  18
ATOM     18  C   UNL     1      -0.278   2.720   2.344  0.00  0.00    +0.036 A 
ATOM     19  C   UNL     1       0.128   2.358   3.622  0.00  0.00    +0.023 A 
ATOM     20  C   UNL     1       1.236   2.954   4.190  0.00  0.00    +0.005 A 
ATOM     21  C   UNL     1       1.945   3.912   3.489  0.00  0.00    +0.046 A 
ATOM     22  C   UNL     1       1.544   4.278   2.212  0.00  0.00    +0.122 A 
ATOM     23  C   UNL     1       0.435   3.678   1.636  0.00  0.00    +0.069 A 
BRANCH  22  24
ATOM     24  O   UNL     1       2.241   5.220   1.524  0.00  0.00    -0.495 OA
ATOM     25  C   UNL     1       3.376   5.792   2.177  0.00  0.00    +0.277 C 
ENDBRANCH  22  24
ENDBRANCH  16  18
ENDBRANCH  14  16
ENDBRANCH   1  14
BRANCH   1  26
ATOM     26  C   UNL     1      -0.281  -0.342   2.326  0.00  0.00    +0.142 C 
BRANCH  26  33
ATOM     27  C   UNL     1       2.147  -1.342   1.121  0.00  0.00    +0.044 C 
ATOM     28  C   UNL     1       0.876  -1.278   0.314  0.00  0.00    -0.046 A 
ATOM     29  C   UNL     1       0.871  -1.704  -1.002  0.00  0.00    +0.003 A 
ATOM     30  C   UNL     1      -0.294  -1.645  -1.742  0.00  0.00    +0.000 A 
ATOM     31  C   UNL     1      -1.455  -1.161  -1.168  0.00  0.00    +0.000 A 
ATOM     32  C   UNL     1      -1.450  -0.737   0.148  0.00  0.00    +0.005 A 
ATOM     33  C   UNL     1      -0.285  -0.800   0.890  0.00  0.00    -0.027 A 
ENDBRANCH  26  33
ENDBRANCH   1  26
TORSDOF 7
