REMARK  Name = ZINC18046429
REMARK  11 active torsions:
REMARK  status: ('A' for Active; 'I' for Inactive)
REMARK    1  A    between atoms: C_1  and  C_2
REMARK    2  A    between atoms: C_2  and  C_3
REMARK    3  A    between atoms: C_2  and  C_4
REMARK    4  A    between atoms: C_2  and  N_5
REMARK    5  A    between atoms: C_6  and  C_8
REMARK    6  A    between atoms: C_8  and  O_9
REMARK    7  A    between atoms: O_9  and  C_10
REMARK    8  A    between atoms: C_13  and  C_16
REMARK    9  A    between atoms: C_16  and  N_17
REMARK   10  A    between atoms: N_17  and  C_18
REMARK   11  A    between atoms: C_27  and  O_30
REMARK                            x       y       z     vdW  Elec       q    Type
REMARK                         _______ _______ _______ _____ _____    ______ ____
ROOT
ATOM      1  C   UNL     1       0.002  -0.004   0.002  0.00  0.00    +0.121 A 
ATOM      2  C   UNL     1       1.212  -0.682  -0.019  0.00  0.00    +0.046 A 
ATOM      3  C   UNL     1       1.228  -2.064  -0.021  0.00  0.00    +0.005 A 
ATOM      4  C   UNL     1       0.040  -2.770  -0.013  0.00  0.00    -0.064 A 
ATOM      5  C   UNL     1      -1.168  -2.096   0.002  0.00  0.00    +0.005 A 
ATOM      6  C   UNL     1      -1.189  -0.715   0.010  0.00  0.00    +0.046 A 
ENDROOT
BRANCH   1   7
ATOM      7  O   UNL     1      -0.016   1.355   0.009  0.00  0.00    -0.483 OA
BRANCH   7   8
ATOM      8  C   UNL     1       1.248   2.021   0.001  0.00  0.00    +0.324 C 
BRANCH   8  10
ATOM      9  N   UNL     1       2.088   4.347   0.005  0.00  0.00    -0.308 N 
ATOM     10  C   UNL     1       1.030   3.512   0.011  0.00  0.00    +0.251 C 
ATOM     11  O   UNL     1      -0.097   3.960   0.024  0.00  0.00    -0.272 OA
ATOM     12  H   UNL     1       3.110   3.941  -0.006  0.00  0.00    +0.149 HD
BRANCH   9  14
ATOM     13  C   UNL     1       1.101   6.191   1.274  0.00  0.00    +0.031 C 
ATOM     14  C   UNL     1       1.876   5.797   0.015  0.00  0.00    +0.026 C 
ATOM     15  C   UNL     1       3.230   6.510   0.006  0.00  0.00    +0.031 C 
ATOM     16  C   UNL     1       1.077   6.204  -1.224  0.00  0.00    +0.031 C 
ENDBRANCH   9  14
ENDBRANCH   8  10
ENDBRANCH   7   8
ENDBRANCH   1   7
BRANCH   4  17
ATOM     17  C   UNL     1       0.060  -4.277  -0.021  0.00  0.00    -0.046 C 
BRANCH  17  18
ATOM     18  N   UNL     1       0.053  -4.759  -1.409  0.00  0.00    +0.386 N 
ATOM     19  H   UNL     1      -0.854  -4.402  -1.917  0.00  0.00    -0.085 HD
ATOM     20  H   UNL     1       0.942  -4.378  -1.934  0.00  0.00    -0.085 HD
BRANCH  18  21
ATOM     21  C   UNL     1       0.073  -6.227  -1.456  0.00  0.00    -0.065 C 
ATOM     22  C   UNL     1       1.336  -6.743  -0.763  0.00  0.00    -0.009 C 
ATOM     23  C   UNL     1       1.356  -8.272  -0.813  0.00  0.00    -0.009 C 
ATOM     24  C   UNL     1       0.121  -8.822  -0.096  0.00  0.00    +0.007 C 
ATOM     25  C   UNL     1      -1.142  -8.306  -0.789  0.00  0.00    -0.009 C 
ATOM     26  C   UNL     1      -1.162  -6.777  -0.740  0.00  0.00    -0.009 C 
ATOM     27  C   UNL     1      -1.149  -8.770  -2.247  0.00  0.00    +0.038 C 
ATOM     28  C   UNL     1       0.086  -8.220  -2.963  0.00  0.00    +0.065 C 
ATOM     29  C   UNL     1       1.349  -8.736  -2.271  0.00  0.00    +0.038 C 
ATOM     30  C   UNL     1       0.066  -6.691  -2.914  0.00  0.00    +0.022 C 
BRANCH  28  31
ATOM     31  O   UNL     1       0.079  -8.653  -4.325  0.00  0.00    -0.389 OA
ATOM     32  H   UNL     1       0.894  -8.354  -5.001  0.00  0.00    +0.210 HD
ENDBRANCH  28  31
ENDBRANCH  18  21
ENDBRANCH  17  18
ENDBRANCH   4  17
TORSDOF 8
