REMARK  Name = ZINC65978664
REMARK  11 active torsions:
REMARK  status: ('A' for Active; 'I' for Inactive)
REMARK    1  A    between atoms: C_1  and  C_2
REMARK    2  A    between atoms: C_5  and  C_27
REMARK    3  A    between atoms: C_6  and  N_8
REMARK    4  A    between atoms: C_10  and  C_14
REMARK    5  A    between atoms: C_11  and  C_13
REMARK    6  A    between atoms: C_14  and  N_15
REMARK    7  A    between atoms: N_15  and  C_16
REMARK    8  A    between atoms: C_16  and  C_17
REMARK    9  A    between atoms: C_20  and  O_25
REMARK   10  A    between atoms: C_21  and  O_23
REMARK   11  A    between atoms: O_23  and  C_24
REMARK                            x       y       z     vdW  Elec       q    Type
REMARK                         _______ _______ _______ _____ _____    ______ ____
ROOT
ATOM      1  N   UNL     1       0.256  -3.130   2.154  0.00  0.00    -0.221 N 
ATOM      2  C   UNL     1       0.313  -2.776   3.464  0.00  0.00    +0.134 A 
ATOM      3  C   UNL     1       0.426  -3.914   4.191  0.00  0.00    -0.005 A 
ATOM      4  C   UNL     1       0.438  -4.994   3.302  0.00  0.00    +0.063 A 
ATOM      5  N   UNL     1       0.331  -4.527   2.084  0.00  0.00    -0.170 NA
ATOM      6  C   UNL     1       0.549  -6.448   3.682  0.00  0.00    +0.068 C 
ATOM      7 CL   UNL     1       0.253  -1.159   4.093  0.00  0.00    -0.062 Cl
ENDROOT
BRANCH   1  13
ATOM      8  C   UNL     1       1.749   0.922  -0.200  0.00  0.00    +0.044 C 
ATOM      9  C   UNL     1       0.849  -0.282  -0.099  0.00  0.00    -0.048 A 
ATOM     10  C   UNL     1      -0.095  -0.524  -1.081  0.00  0.00    +0.004 A 
ATOM     11  C   UNL     1      -0.922  -1.628  -0.991  0.00  0.00    +0.006 A 
ATOM     12  C   UNL     1      -0.808  -2.494   0.080  0.00  0.00    -0.025 A 
ATOM     13  C   UNL     1       0.138  -2.254   1.066  0.00  0.00    +0.070 A 
ATOM     14  C   UNL     1       0.971  -1.147   0.971  0.00  0.00    +0.031 A 
ATOM     15  C   UNL     1      -1.710  -3.697   0.176  0.00  0.00    +0.046 C 
ENDBRANCH   1  13
BRANCH   3  16
ATOM     16  C   UNL     1       0.521  -4.001   5.692  0.00  0.00    -0.041 C 
BRANCH  16  17
ATOM     17  N   UNL     1      -0.828  -4.113   6.263  0.00  0.00    +0.384 N 
ATOM     18  H   UNL     1      -1.370  -3.302   6.006  0.00  0.00    -0.085 HD
ATOM     19  H   UNL     1      -1.276  -4.944   5.906  0.00  0.00    -0.085 HD
BRANCH  17  20
ATOM     20  C   UNL     1      -0.735  -4.198   7.726  0.00  0.00    -0.046 C 
BRANCH  20  21
ATOM     21  C   UNL     1      -2.119  -4.313   8.312  0.00  0.00    -0.061 A 
ATOM     22  C   UNL     1      -2.823  -3.172   8.648  0.00  0.00    +0.005 A 
ATOM     23  C   UNL     1      -4.093  -3.272   9.185  0.00  0.00    +0.049 A 
ATOM     24  C   UNL     1      -4.663  -4.519   9.387  0.00  0.00    +0.158 A 
ATOM     25  C   UNL     1      -3.954  -5.668   9.049  0.00  0.00    +0.161 A 
ATOM     26  C   UNL     1      -2.684  -5.560   8.506  0.00  0.00    +0.051 A 
BRANCH  25  27
ATOM     27  O   UNL     1      -4.510  -6.893   9.245  0.00  0.00    -0.491 OA
ATOM     28  C   UNL     1      -3.724  -8.028   8.875  0.00  0.00    +0.277 C 
ENDBRANCH  25  27
BRANCH  24  29
ATOM     29  O   UNL     1      -5.912  -4.619   9.916  0.00  0.00    -0.503 OA
ATOM     30  H   UNL     1      -6.619  -4.622   9.256  0.00  0.00    +0.292 HD
ENDBRANCH  24  29
ENDBRANCH  20  21
ENDBRANCH  17  20
ENDBRANCH  16  17
ENDBRANCH   3  16
TORSDOF 7
