REMARK  Name = ZINC02064535
REMARK  7 active torsions:
REMARK  status: ('A' for Active; 'I' for Inactive)
REMARK    1  A    between atoms: C_6  and  C_7
REMARK    2  A    between atoms: N_9  and  C_10
REMARK    3  A    between atoms: C_10  and  N_12
REMARK    4  A    between atoms: N_12  and  N_13
REMARK    5  A    between atoms: C_14  and  C_16
REMARK    6  A    between atoms: C_16  and  C_17
REMARK    7  A    between atoms: C_17  and  N_43
REMARK                            x       y       z     vdW  Elec       q    Type
REMARK                         _______ _______ _______ _____ _____    ______ ____
ROOT
ATOM      1  N   UNL     1       3.478   1.933  -0.021  0.00  0.00    -0.246 N 
ATOM      2  H   UNL     1       4.324   1.459  -0.031  0.00  0.00    +0.172 HD
ENDROOT
BRANCH   1   3
ATOM      3  N   UNL     1       3.459   3.333  -0.013  0.00  0.00    -0.235 N 
ATOM      4  C   UNL     1       4.617   4.023  -0.020  0.00  0.00    +0.227 C 
ATOM      5  O   UNL     1       5.675   3.431  -0.034  0.00  0.00    -0.274 OA
ATOM      6  H   UNL     1       2.612   3.807  -0.002  0.00  0.00    +0.173 HD
BRANCH   4   7
ATOM      7  C   UNL     1       4.596   5.530  -0.012  0.00  0.00    +0.079 C 
BRANCH   7   8
ATOM      8  C   UNL     1       6.031   6.059  -0.023  0.00  0.00    -0.069 C 
BRANCH   8  14
ATOM      9  C   UNL     1       5.442   8.054  -1.264  0.00  0.00    -0.050 C 
ATOM     10  C   UNL     1       5.385   9.582  -1.189  0.00  0.00    +0.141 C 
ATOM     11  O   UNL     1       6.697  10.091  -0.935  0.00  0.00    -0.383 OA
ATOM     12  C   UNL     1       7.282   9.600   0.274  0.00  0.00    +0.141 C 
ATOM     13  C   UNL     1       7.358   8.072   0.213  0.00  0.00    -0.050 C 
ATOM     14  N   UNL     1       5.996   7.538   0.005  0.00  0.00    +0.383 N 
ATOM     15  H   UNL     1       5.395   7.842   0.780  0.00  0.00    -0.082 HD
ENDBRANCH   8  14
ENDBRANCH   7   8
ENDBRANCH   4   7
ENDBRANCH   1   3
BRANCH   1  16
ATOM     16  C   UNL     1       2.320   1.243  -0.013  0.00  0.00    +0.153 C 
ATOM     17  S   UNL     1       2.343  -0.469  -0.023  0.00  0.00    -0.017 S 
BRANCH  16  20
ATOM     18  C   UNL     1      -0.014   1.211   0.009  0.00  0.00    +0.250 C 
ATOM     19  O   UNL     1       0.002  -0.004   0.002  0.00  0.00    -0.270 OA
ATOM     20  N   UNL     1       1.143   1.901   0.001  0.00  0.00    -0.263 N 
ATOM     21  H   UNL     1       1.130   2.871   0.007  0.00  0.00    +0.157 HD
BRANCH  18  27
ATOM     22  C   UNL     1      -1.326   3.328   0.032  0.00  0.00    +0.014 A 
ATOM     23  C   UNL     1      -2.533   3.996   0.036  0.00  0.00    +0.016 A 
ATOM     24  C   UNL     1      -3.721   3.284   0.038  0.00  0.00    +0.018 A 
ATOM     25  C   UNL     1      -3.705   1.899   0.030  0.00  0.00    +0.016 A 
ATOM     26  C   UNL     1      -2.505   1.220   0.021  0.00  0.00    +0.014 A 
ATOM     27  C   UNL     1      -1.304   1.932   0.019  0.00  0.00    +0.037 A 
ATOM     28 BR   UNL     1      -5.371   4.207   0.051  0.00  0.00    -0.050 Br
ENDBRANCH  18  27
ENDBRANCH  16  20
ENDBRANCH   1  16
TORSDOF 7
