REMARK  Name = ZINC59098176
REMARK  12 active torsions:
REMARK  status: ('A' for Active; 'I' for Inactive)
REMARK    1  A    between atoms: C_1  and  C_2
REMARK    2  A    between atoms: C_5  and  C_7
REMARK    3  A    between atoms: C_7  and  N_8
REMARK    4  A    between atoms: N_8  and  C_9
REMARK    5  A    between atoms: N_8  and  C_19
REMARK    6  A    between atoms: C_11  and  C_17
REMARK    7  A    between atoms: C_11  and  C_18
REMARK    8  A    between atoms: C_13  and  C_15
REMARK    9  A    between atoms: C_13  and  C_16
REMARK   10  A    between atoms: C_19  and  N_21
REMARK   11  A    between atoms: N_21  and  C_22
REMARK   12  A    between atoms: C_27  and  C_28
REMARK                            x       y       z     vdW  Elec       q    Type
REMARK                         _______ _______ _______ _____ _____    ______ ____
ROOT
ATOM      1  N   UNL     1       2.311  -3.388  -1.196  0.00  0.00    -0.302 N 
ENDROOT
BRANCH   1   2
ATOM      2  C   UNL     1       3.604  -3.067  -1.814  0.00  0.00    +0.073 C 
ATOM      3  C   UNL     1       3.745  -1.548  -1.923  0.00  0.00    +0.009 C 
ATOM      4  C   UNL     1       5.092  -1.196  -2.553  0.00  0.00    -0.072 C 
ATOM      5  N   UNL     1       6.205  -1.810  -1.844  0.00  0.00    +0.386 N 
ATOM      6  C   UNL     1       6.093  -3.219  -1.501  0.00  0.00    -0.072 C 
ATOM      7  C   UNL     1       4.731  -3.591  -0.924  0.00  0.00    +0.009 C 
ATOM      8  C   UNL     1       6.418  -4.120  -2.695  0.00  0.00    -0.010 C 
ATOM      9  C   UNL     1       7.149  -3.517  -0.410  0.00  0.00    -0.010 C 
ATOM     10  C   UNL     1       5.261   0.337  -2.448  0.00  0.00    -0.010 C 
ATOM     11  C   UNL     1       5.089  -1.552  -4.039  0.00  0.00    -0.010 C 
ATOM     12  H   UNL     1       7.052  -1.681  -2.403  0.00  0.00    -0.084 HD
ATOM     13  H   UNL     1       6.369  -1.281  -0.984  0.00  0.00    -0.084 HD
ENDBRANCH   1   2
BRANCH   1  14
ATOM     14  C   UNL     1       1.426  -4.166  -1.852  0.00  0.00    +0.138 C 
ATOM     15  S   UNL     1      -0.127  -4.442  -1.187  0.00  0.00    -0.018 S 
BRANCH  14  16
ATOM     16  N   UNL     1       1.764  -4.726  -3.030  0.00  0.00    -0.296 N 
ATOM     17  H   UNL     1       1.920  -5.681  -3.086  0.00  0.00    +0.154 HD
BRANCH  16  18
ATOM     18  C   UNL     1       1.890  -3.929  -4.173  0.00  0.00    +0.037 A 
ATOM     19  C   UNL     1       1.654  -2.562  -4.097  0.00  0.00    +0.023 A 
ATOM     20  C   UNL     1       1.779  -1.777  -5.226  0.00  0.00    +0.003 A 
ATOM     21  C   UNL     1       2.138  -2.350  -6.432  0.00  0.00    +0.020 A 
ATOM     22  C   UNL     1       2.374  -3.711  -6.512  0.00  0.00    +0.046 A 
ATOM     23  C   UNL     1       2.257  -4.501  -5.383  0.00  0.00    -0.011 A 
ATOM     24  C   UNL     1       2.520  -5.982  -5.468  0.00  0.00    +0.047 C 
ATOM     25 CL   UNL     1       2.825  -4.426  -8.028  0.00  0.00    -0.083 Cl
ENDBRANCH  16  18
ENDBRANCH  14  16
ENDBRANCH   1  14
BRANCH   1  26
ATOM     26  C   UNL     1       1.982  -2.864   0.131  0.00  0.00    +0.181 C 
BRANCH  26  31
ATOM     27  C   UNL     1       1.267   2.114  -0.255  0.00  0.00    +0.086 C 
ATOM     28  C   UNL     1       0.987   0.635  -0.179  0.00  0.00    +0.102 A 
ATOM     29  C   UNL     1      -0.229   0.062  -0.235  0.00  0.00    +0.045 A 
ATOM     30  C   UNL     1      -0.028  -1.334  -0.127  0.00  0.00    +0.046 A 
ATOM     31  C   UNL     1       1.298  -1.529  -0.011  0.00  0.00    +0.122 A 
ATOM     32  O   UNL     1       1.908  -0.333  -0.049  0.00  0.00    -0.463 OA
ENDBRANCH  26  31
ENDBRANCH   1  26
TORSDOF 6
