REMARK  Name = ZINC36555902
REMARK  11 active torsions:
REMARK  status: ('A' for Active; 'I' for Inactive)
REMARK    1  A    between atoms: C_1  and  C_2
REMARK    2  A    between atoms: C_5  and  C_7
REMARK    3  A    between atoms: C_7  and  N_8
REMARK    4  A    between atoms: N_8  and  C_9
REMARK    5  A    between atoms: C_9  and  C_11
REMARK    6  A    between atoms: C_9  and  C_19
REMARK    7  A    between atoms: N_21  and  C_22
REMARK    8  A    between atoms: C_22  and  C_23
REMARK    9  A    between atoms: C_22  and  C_24
REMARK   10  A    between atoms: C_22  and  C_25
REMARK   11  A    between atoms: C_26  and  C_28
REMARK                            x       y       z     vdW  Elec       q    Type
REMARK                         _______ _______ _______ _____ _____    ______ ____
ROOT
ATOM      1  C   UNL     1       2.967  -2.827  -2.754  0.00  0.00    +0.195 C 
ENDROOT
BRANCH   1   2
ATOM      2  C   UNL     1       3.462  -1.481  -2.292  0.00  0.00    +0.018 A 
ATOM      3  C   UNL     1       3.773  -1.279  -0.959  0.00  0.00    +0.048 A 
ATOM      4  C   UNL     1       4.227  -0.043  -0.535  0.00  0.00    +0.020 A 
ATOM      5  C   UNL     1       4.369   0.990  -1.442  0.00  0.00    +0.003 A 
ATOM      6  C   UNL     1       4.058   0.789  -2.774  0.00  0.00    +0.020 A 
ATOM      7  C   UNL     1       3.610  -0.449  -3.200  0.00  0.00    +0.048 A 
ATOM      8 CL   UNL     1       3.227  -0.704  -4.874  0.00  0.00    -0.083 Cl
ATOM      9 CL   UNL     1       3.593  -2.576   0.181  0.00  0.00    -0.083 Cl
ENDBRANCH   1   2
BRANCH   1  10
ATOM     10  C   UNL     1       4.043  -3.860  -2.538  0.00  0.00    +0.239 C 
ATOM     11  O   UNL     1       3.833  -4.811  -1.815  0.00  0.00    -0.273 OA
ATOM     12  N   UNL     1       5.238  -3.725  -3.146  0.00  0.00    -0.309 N 
ATOM     13  H   UNL     1       5.405  -2.964  -3.723  0.00  0.00    +0.149 HD
BRANCH  12  14
ATOM     14  C   UNL     1       6.284  -4.729  -2.935  0.00  0.00    +0.026 C 
ATOM     15  C   UNL     1       5.782  -6.096  -3.405  0.00  0.00    +0.031 C 
ATOM     16  C   UNL     1       7.530  -4.342  -3.734  0.00  0.00    +0.031 C 
ATOM     17  C   UNL     1       6.633  -4.798  -1.447  0.00  0.00    +0.031 C 
ENDBRANCH  12  14
ENDBRANCH   1  10
BRANCH   1  18
ATOM     18  N   UNL     1       1.773  -3.198  -1.990  0.00  0.00    -0.278 N 
ATOM     19  C   UNL     1       1.207  -4.408  -2.168  0.00  0.00    +0.220 C 
ATOM     20  O   UNL     1       1.766  -5.245  -2.846  0.00  0.00    -0.275 OA
BRANCH  19  21
ATOM     21  C   UNL     1      -0.119  -4.722  -1.526  0.00  0.00    +0.075 C 
ATOM     22  C   UNL     1       0.090  -5.016  -0.040  0.00  0.00    +0.013 C 
ATOM     23  C   UNL     1      -1.257  -5.334   0.612  0.00  0.00    +0.001 C 
ATOM     24  C   UNL     1      -1.876  -6.557  -0.068  0.00  0.00    +0.000 C 
ATOM     25  C   UNL     1      -2.086  -6.263  -1.555  0.00  0.00    +0.001 C 
ATOM     26  C   UNL     1      -0.739  -5.945  -2.206  0.00  0.00    +0.013 C 
ENDBRANCH  19  21
BRANCH  18  27
ATOM     27  C   UNL     1       1.195  -2.253  -1.031  0.00  0.00    +0.183 C 
BRANCH  27  32
ATOM     28  C   UNL     1      -1.432   1.112  -3.717  0.00  0.00    +0.086 C 
ATOM     29  C   UNL     1      -1.105  -0.069  -2.840  0.00  0.00    +0.102 A 
ATOM     30  C   UNL     1      -1.995  -0.934  -2.322  0.00  0.00    +0.045 A 
ATOM     31  C   UNL     1      -1.259  -1.877  -1.569  0.00  0.00    +0.046 A 
ATOM     32  C   UNL     1       0.037  -1.532  -1.672  0.00  0.00    +0.122 A 
ATOM     33  O   UNL     1       0.125  -0.440  -2.449  0.00  0.00    -0.463 OA
ENDBRANCH  27  32
ENDBRANCH  18  27
ENDBRANCH   1  18
TORSDOF 7
