REMARK  Name = ZINC00658570
REMARK  6 active torsions:
REMARK  status: ('A' for Active; 'I' for Inactive)
REMARK    1  A    between atoms: C_11  and  C_19
REMARK    2  A    between atoms: C_13  and  C_17
REMARK    3  A    between atoms: C_14  and  N_16
REMARK    4  A    between atoms: C_27  and  N_40
REMARK    5  A    between atoms: C_28  and  C_38
REMARK    6  A    between atoms: C_29  and  C_31
REMARK                            x       y       z     vdW  Elec       q    Type
REMARK                         _______ _______ _______ _____ _____    ______ ____
ROOT
ATOM      1  C   UNL     1      -2.182  -0.365   4.930  0.00  0.00    +0.001 A 
ATOM      2  C   UNL     1      -1.467  -0.674   3.775  0.00  0.00    +0.001 A 
ATOM      3  C   UNL     1      -1.813  -0.139   2.572  0.00  0.00    +0.009 A 
ATOM      4  C   UNL     1      -2.908   0.739   2.492  0.00  0.00    -0.010 A 
ATOM      5  C   UNL     1      -3.636   1.051   3.665  0.00  0.00    -0.010 A 
ATOM      6  C   UNL     1      -3.249   0.480   4.890  0.00  0.00    +0.009 A 
ATOM      7  C   UNL     1      -4.735   1.927   3.588  0.00  0.00    +0.019 A 
ATOM      8  C   UNL     1      -5.085   2.466   2.388  0.00  0.00    +0.177 A 
ATOM      9  C   UNL     1      -4.357   2.158   1.219  0.00  0.00    +0.177 A 
ATOM     10  C   UNL     1      -3.291   1.312   1.265  0.00  0.00    +0.019 A 
ATOM     11  C   UNL     1      -2.513   0.978   0.019  0.00  0.00    +0.099 C 
ATOM     12  C   UNL     1      -3.310   1.339  -1.203  0.00  0.00    +0.098 C 
ATOM     13  C   UNL     1      -4.369   2.182  -1.121  0.00  0.00    +0.199 C 
ATOM     14  O   UNL     1      -4.746   2.725   0.048  0.00  0.00    -0.437 OA
ATOM     15  O   UNL     1      -6.142   3.311   2.286  0.00  0.00    -0.437 OA
ATOM     16  C   UNL     1      -6.609   3.939   3.377  0.00  0.00    +0.199 C 
ATOM     17  C   UNL     1      -6.341   3.486   4.626  0.00  0.00    +0.098 C 
ATOM     18  C   UNL     1      -5.507   2.254   4.838  0.00  0.00    +0.099 C 
ENDROOT
BRANCH  11  19
ATOM     19  C   UNL     1      -1.219   1.750   0.017  0.00  0.00    -0.034 A 
ATOM     20  C   UNL     1      -0.013   1.076   0.008  0.00  0.00    +0.007 A 
ATOM     21  C   UNL     1       1.175   1.783   0.000  0.00  0.00    +0.038 A 
ATOM     22  C   UNL     1       1.156   3.167   0.008  0.00  0.00    +0.123 A 
ATOM     23  C   UNL     1      -0.053   3.842   0.023  0.00  0.00    +0.038 A 
ATOM     24  C   UNL     1      -1.240   3.133   0.031  0.00  0.00    +0.007 A 
ATOM     25  F   UNL     1       2.316   3.859   0.000  0.00  0.00    -0.205 F 
ENDBRANCH  11  19
BRANCH  18  26
ATOM     26  C   UNL     1      -6.407   1.095   5.182  0.00  0.00    -0.034 A 
ATOM     27  C   UNL     1      -7.388   0.694   4.294  0.00  0.00    +0.007 A 
ATOM     28  C   UNL     1      -8.210  -0.371   4.606  0.00  0.00    +0.038 A 
ATOM     29  C   UNL     1      -8.059  -1.031   5.814  0.00  0.00    +0.123 A 
ATOM     30  C   UNL     1      -7.080  -0.625   6.706  0.00  0.00    +0.038 A 
ATOM     31  C   UNL     1      -6.255   0.437   6.388  0.00  0.00    +0.007 A 
ATOM     32  F   UNL     1      -8.867  -2.069   6.124  0.00  0.00    -0.205 F 
ENDBRANCH  18  26
BRANCH  13  33
ATOM     33  N   UNL     1      -5.072   2.487  -2.260  0.00  0.00    -0.328 N 
ATOM     34  H   UNL     1      -4.809   2.102  -3.110  0.00  0.00    +0.145 HD
ATOM     35  H   UNL     1      -5.831   3.089  -2.214  0.00  0.00    +0.145 HD
ENDBRANCH  13  33
BRANCH  16  36
ATOM     36  N   UNL     1      -7.374   5.069   3.224  0.00  0.00    -0.328 N 
ATOM     37  H   UNL     1      -7.572   5.404   2.336  0.00  0.00    +0.145 HD
ATOM     38  H   UNL     1      -7.717   5.532   4.005  0.00  0.00    +0.145 HD
ENDBRANCH  16  36
BRANCH  12  39
ATOM     39  C   UNL     1      -2.946   0.785  -2.473  0.00  0.00    +0.101 C 
ATOM     40  N   UNL     1      -2.656   0.346  -3.479  0.00  0.00    -0.191 NA
ENDBRANCH  12  39
BRANCH  17  41
ATOM     41  C   UNL     1      -6.861   4.191   5.760  0.00  0.00    +0.101 C 
ATOM     42  N   UNL     1      -7.272   4.750   6.659  0.00  0.00    -0.191 NA
ENDBRANCH  17  41
TORSDOF 6
