REMARK  Name = ZINC11168804
REMARK  8 active torsions:
REMARK  status: ('A' for Active; 'I' for Inactive)
REMARK    1  A    between atoms: C_1  and  C_2
REMARK    2  A    between atoms: C_2  and  C_3
REMARK    3  A    between atoms: C_2  and  C_4
REMARK    4  A    between atoms: C_4  and  C_6
REMARK    5  A    between atoms: C_4  and  N_22
REMARK    6  A    between atoms: N_8  and  C_9
REMARK    7  A    between atoms: C_9  and  C_10
REMARK    8  A    between atoms: C_13  and  C_15
REMARK                            x       y       z     vdW  Elec       q    Type
REMARK                         _______ _______ _______ _____ _____    ______ ____
ROOT
ATOM      1  C   UNL     1      -2.559   0.878   0.264  0.00  0.00    +0.234 C 
ATOM      2  O   UNL     1      -2.512  -0.304   0.532  0.00  0.00    -0.274 OA
ATOM      3  N   UNL     1      -3.751   1.499   0.162  0.00  0.00    -0.307 N 
ATOM      4  H   UNL     1      -3.798   2.549  -0.162  0.00  0.00    +0.149 HD
ENDROOT
BRANCH   1   5
ATOM      5  C   UNL     1      -1.285   1.652   0.044  0.00  0.00    +0.163 C 
BRANCH   5   6
ATOM      6  N   UNL     1      -0.201   1.039   0.817  0.00  0.00    -0.288 N 
ATOM      7  C   UNL     1       0.862   1.778   1.190  0.00  0.00    +0.298 C 
ATOM      8  O   UNL     1       0.920   2.955   0.891  0.00  0.00    -0.253 OA
ATOM      9  N   UNL     1       1.861   1.212   1.896  0.00  0.00    -0.313 N 
ATOM     10  H   UNL     1      -0.256  -0.025   1.091  0.00  0.00    +0.151 HD
ATOM     11  H   UNL     1       2.729   1.815   2.201  0.00  0.00    +0.146 HD
ATOM     12  H   UNL     1       1.809   0.147   2.167  0.00  0.00    +0.146 HD
ENDBRANCH   5   6
BRANCH   5  14
ATOM     13  C   UNL     1      -2.035   2.315  -2.245  0.00  0.00    +0.009 C 
ATOM     14  C   UNL     1      -0.925   1.632  -1.443  0.00  0.00    +0.012 C 
ATOM     15  C   UNL     1       0.393   2.378  -1.659  0.00  0.00    +0.009 C 
ENDBRANCH   5  14
ENDBRANCH   1   5
BRANCH   3  16
ATOM     16  C   UNL     1      -4.983   0.775   0.482  0.00  0.00    +0.178 C 
BRANCH  16  17
ATOM     17  C   UNL     1      -6.167   1.688   0.288  0.00  0.00    +0.123 A 
ATOM     18  C   UNL     1      -6.864   1.839  -0.855  0.00  0.00    +0.047 A 
ATOM     19  C   UNL     1      -7.880   2.781  -0.597  0.00  0.00    +0.050 A 
ATOM     20  C   UNL     1      -7.745   3.157   0.702  0.00  0.00    +0.135 A 
ATOM     21  O   UNL     1      -6.705   2.482   1.228  0.00  0.00    -0.458 OA
BRANCH  20  22
ATOM     22  C   UNL     1      -8.596   4.133   1.415  0.00  0.00    +0.017 A 
ATOM     23  C   UNL     1      -9.647   4.765   0.749  0.00  0.00    +0.012 A 
ATOM     24  C   UNL     1     -10.441   5.670   1.421  0.00  0.00    +0.016 A 
ATOM     25  C   UNL     1     -10.191   5.961   2.751  0.00  0.00    +0.018 A 
ATOM     26  C   UNL     1      -9.146   5.342   3.416  0.00  0.00    +0.016 A 
ATOM     27  C   UNL     1      -8.348   4.430   2.756  0.00  0.00    +0.012 A 
ATOM     28 BR   UNL     1     -11.279   7.210   3.663  0.00  0.00    -0.050 Br
ENDBRANCH  20  22
ENDBRANCH  16  17
ENDBRANCH   3  16
TORSDOF 6
