REMARK  Name = ZINC37424988
REMARK  7 active torsions:
REMARK  status: ('A' for Active; 'I' for Inactive)
REMARK    1  A    between atoms: C_1  and  N_2
REMARK    2  A    between atoms: N_2  and  C_3
REMARK    3  A    between atoms: N_2  and  C_4
REMARK    4  A    between atoms: N_7  and  C_10
REMARK    5  A    between atoms: C_10  and  C_12
REMARK    6  A    between atoms: C_10  and  C_14
REMARK    7  A    between atoms: C_12  and  N_13
REMARK                            x       y       z     vdW  Elec       q    Type
REMARK                         _______ _______ _______ _____ _____    ______ ____
ROOT
ATOM      1  C   UNL     1      -4.732  -2.900   1.012  0.00  0.00    +0.069 C 
ENDROOT
BRANCH   1   2
ATOM      2  C   UNL     1      -5.496  -2.634   2.284  0.00  0.00    -0.029 A 
ATOM      3  C   UNL     1      -4.849  -2.695   3.504  0.00  0.00    +0.025 A 
ATOM      4  C   UNL     1      -5.550  -2.452   4.671  0.00  0.00    +0.043 A 
ATOM      5  C   UNL     1      -6.899  -2.148   4.618  0.00  0.00    +0.040 A 
ATOM      6  C   UNL     1      -7.545  -2.087   3.396  0.00  0.00    +0.043 A 
ATOM      7  C   UNL     1      -6.842  -2.325   2.229  0.00  0.00    +0.025 A 
ATOM      8 CL   UNL     1      -9.237  -1.705   3.328  0.00  0.00    -0.083 Cl
ATOM      9 CL   UNL     1      -4.738  -2.530   6.204  0.00  0.00    -0.083 Cl
ENDBRANCH   1   2
BRANCH   1  13
ATOM     10  C   UNL     1      -1.232  -0.531   0.357  0.00  0.00    +0.058 C 
ATOM     11  C   UNL     1      -2.102  -0.267   1.589  0.00  0.00    +0.034 C 
ATOM     12  C   UNL     1      -3.500  -0.844   1.354  0.00  0.00    +0.086 C 
ATOM     13  N   UNL     1      -3.400  -2.287   1.105  0.00  0.00    -0.297 NA
ATOM     14  C   UNL     1      -2.608  -2.564  -0.101  0.00  0.00    +0.086 C 
ATOM     15  C   UNL     1      -1.184  -2.038   0.090  0.00  0.00    +0.034 C 
BRANCH  10  17
ATOM     16  C   UNL     1       0.133   1.431   0.742  0.00  0.00    +0.104 C 
ATOM     17  N   UNL     1       0.127  -0.032   0.599  0.00  0.00    -0.305 NA
ATOM     18  C   UNL     1       0.724  -0.678   1.776  0.00  0.00    +0.104 C 
ENDBRANCH  10  17
ENDBRANCH   1  13
BRANCH   1  19
ATOM     19  C   UNL     1      -4.586  -4.409   0.810  0.00  0.00    -0.063 C 
BRANCH  19  20
ATOM     20  N   UNL     1      -5.916  -5.011   0.644  0.00  0.00    +0.379 N 
ATOM     21  H   UNL     1      -6.485  -4.796   1.449  0.00  0.00    -0.090 HD
ATOM     22  H   UNL     1      -6.352  -4.640  -0.186  0.00  0.00    -0.090 HD
ATOM     23  H   UNL     1      -5.823  -6.012   0.556  0.00  0.00    -0.090 HD
ENDBRANCH  19  20
ENDBRANCH   1  19
TORSDOF 5
