REMARK  Name = ZINC58913552
REMARK  14 active torsions:
REMARK  status: ('A' for Active; 'I' for Inactive)
REMARK    1  A    between atoms: C_1  and  C_2
REMARK    2  A    between atoms: C_2  and  N_3
REMARK    3  A    between atoms: N_3  and  C_4
REMARK    4  A    between atoms: N_3  and  C_20
REMARK    5  A    between atoms: C_4  and  C_5
REMARK    6  A    between atoms: N_7  and  C_8
REMARK    7  A    between atoms: C_8  and  C_9
REMARK    8  A    between atoms: C_9  and  C_10
REMARK    9  A    between atoms: C_13  and  S_16
REMARK   10  A    between atoms: S_16  and  N_19
REMARK   11  A    between atoms: C_20  and  C_22
REMARK   12  A    between atoms: C_20  and  C_23
REMARK   13  A    between atoms: C_27  and  O_29
REMARK   14  A    between atoms: O_29  and  C_30
REMARK                            x       y       z     vdW  Elec       q    Type
REMARK                         _______ _______ _______ _____ _____    ______ ____
ROOT
ATOM      1  C   UNL     1      -0.925  -2.271   1.442  0.00  0.00    +0.196 C 
ATOM      2  O   UNL     1      -0.525  -1.417   2.204  0.00  0.00    -0.278 OA
ATOM      3  N   UNL     1      -0.905  -3.567   1.812  0.00  0.00    -0.317 N 
ATOM      4  H   UNL     1      -1.225  -4.251   1.203  0.00  0.00    +0.149 HD
ENDROOT
BRANCH   1   5
ATOM      5  C   UNL     1      -1.444  -1.885   0.081  0.00  0.00    +0.019 C 
BRANCH   5   6
ATOM      6  N   UNL     1      -1.361  -0.427  -0.079  0.00  0.00    +0.390 N 
ATOM      7  H   UNL     1      -1.849   0.023   0.681  0.00  0.00    -0.080 HD
BRANCH   6   9
ATOM      8  C   UNL     1       0.774  -0.641  -1.260  0.00  0.00    -0.017 C 
ATOM      9  C   UNL     1       0.049  -0.013  -0.068  0.00  0.00    -0.081 C 
ENDBRANCH   6   9
BRANCH   6  10
ATOM     10  C   UNL     1      -1.976  -0.038  -1.355  0.00  0.00    -0.040 C 
ATOM     11  C   UNL     1      -3.474  -0.346  -1.313  0.00  0.00    -0.008 C 
BRANCH  10  12
ATOM     12  C   UNL     1      -1.773   1.438  -1.581  0.00  0.00    -0.058 A 
ATOM     13  C   UNL     1      -2.029   2.335  -0.561  0.00  0.00    +0.002 A 
ATOM     14  C   UNL     1      -1.844   3.690  -0.766  0.00  0.00    +0.004 A 
ATOM     15  C   UNL     1      -1.402   4.150  -1.991  0.00  0.00    +0.045 A 
ATOM     16  C   UNL     1      -1.143   3.252  -3.016  0.00  0.00    +0.120 A 
ATOM     17  C   UNL     1      -1.325   1.893  -2.806  0.00  0.00    +0.047 A 
BRANCH  16  18
ATOM     18  O   UNL     1      -0.708   3.702  -4.223  0.00  0.00    -0.495 OA
ATOM     19  C   UNL     1      -0.539   5.114  -4.365  0.00  0.00    +0.277 C 
ENDBRANCH  16  18
ENDBRANCH  10  12
ENDBRANCH   6  10
ENDBRANCH   5   6
ENDBRANCH   1   5
BRANCH   3  20
ATOM     20  C   UNL     1      -0.401  -3.943   3.135  0.00  0.00    +0.109 C 
BRANCH  20  21
ATOM     21  C   UNL     1      -0.487  -5.461   3.302  0.00  0.00    +0.054 C 
BRANCH  21  22
ATOM     22  C   UNL     1       0.032  -5.848   4.663  0.00  0.00    -0.046 A 
ATOM     23  C   UNL     1       1.374  -6.132   4.836  0.00  0.00    +0.005 A 
ATOM     24  C   UNL     1       1.850  -6.487   6.084  0.00  0.00    +0.029 A 
ATOM     25  C   UNL     1       0.984  -6.557   7.160  0.00  0.00    +0.105 A 
ATOM     26  C   UNL     1      -0.357  -6.272   6.987  0.00  0.00    +0.029 A 
ATOM     27  C   UNL     1      -0.833  -5.913   5.739  0.00  0.00    +0.005 A 
BRANCH  25  28
ATOM     28  S   UNL     1       1.591  -7.010   8.751  0.00  0.00    +0.056 S 
ATOM     29  O   UNL     1       0.485  -7.532   9.473  0.00  0.00    -0.153 OA
ATOM     30  O   UNL     1       2.780  -7.757   8.534  0.00  0.00    -0.153 OA
BRANCH  28  31
ATOM     31  N   UNL     1       2.042  -5.614   9.519  0.00  0.00    -0.204 NA
ATOM     32  H   UNL     1       1.987  -5.553  10.485  0.00  0.00    +0.144 HD
ATOM     33  H   UNL     1       2.360  -4.857   9.002  0.00  0.00    +0.144 HD
ENDBRANCH  28  31
ENDBRANCH  25  28
ENDBRANCH  21  22
ENDBRANCH  20  21
ENDBRANCH   3  20
TORSDOF 11
