REMARK  Name = ZINC63694846
REMARK  10 active torsions:
REMARK  status: ('A' for Active; 'I' for Inactive)
REMARK    1  A    between atoms: C_1  and  C_2
REMARK    2  A    between atoms: C_2  and  C_3
REMARK    3  A    between atoms: C_2  and  N_4
REMARK    4  A    between atoms: N_7  and  C_8
REMARK    5  A    between atoms: C_13  and  C_14
REMARK    6  A    between atoms: N_16  and  C_17
REMARK    7  A    between atoms: C_17  and  C_18
REMARK    8  A    between atoms: N_22  and  C_24
REMARK    9  A    between atoms: C_24  and  C_25
REMARK   10  A    between atoms: C_24  and  C_26
REMARK                            x       y       z     vdW  Elec       q    Type
REMARK                         _______ _______ _______ _____ _____    ______ ____
ROOT
ATOM      1  C   UNL     1      -4.086  -1.186  -2.292  0.00  0.00    +0.047 A 
ATOM      2  C   UNL     1      -3.530  -0.867  -3.524  0.00  0.00    +0.024 A 
ATOM      3  C   UNL     1      -4.300  -0.930  -4.668  0.00  0.00    +0.002 A 
ATOM      4  C   UNL     1      -5.630  -1.311  -4.598  0.00  0.00    +0.001 A 
ATOM      5  C   UNL     1      -6.199  -1.631  -3.384  0.00  0.00    +0.015 A 
ATOM      6  C   UNL     1      -5.431  -1.577  -2.219  0.00  0.00    +0.058 A 
ENDROOT
BRANCH   1  10
ATOM      7  N   UNL     1      -1.678  -0.052   0.142  0.00  0.00    -0.297 N 
ATOM      8  C   UNL     1      -2.366  -0.171  -1.011  0.00  0.00    +0.304 C 
ATOM      9  O   UNL     1      -2.133   0.581  -1.938  0.00  0.00    -0.253 OA
ATOM     10  N   UNL     1      -3.311  -1.123  -1.137  0.00  0.00    -0.269 N 
ATOM     11  H   UNL     1      -1.864  -0.652   0.881  0.00  0.00    +0.151 HD
ATOM     12  H   UNL     1      -3.452  -1.764  -0.423  0.00  0.00    +0.156 HD
BRANCH   7  14
ATOM     13  C   UNL     1      -1.305   2.298   0.705  0.00  0.00    +0.027 C 
ATOM     14  C   UNL     1      -0.650   0.983   0.279  0.00  0.00    +0.068 C 
ATOM     15  C   UNL     1       0.368   0.553   1.338  0.00  0.00    +0.027 C 
ENDBRANCH   7  14
ENDBRANCH   1  10
BRANCH   6  16
ATOM     16  C   UNL     1      -6.033  -1.924  -0.917  0.00  0.00    +0.246 C 
ATOM     17  O   UNL     1      -5.393  -1.779   0.106  0.00  0.00    -0.270 OA
ATOM     18  N   UNL     1      -7.292  -2.403  -0.862  0.00  0.00    -0.311 N 
ATOM     19  H   UNL     1      -7.802  -2.519  -1.679  0.00  0.00    +0.149 HD
BRANCH  18  20
ATOM     20  C   UNL     1      -7.889  -2.747   0.430  0.00  0.00    +0.106 C 
BRANCH  20  21
ATOM     21  C   UNL     1      -9.313  -3.262   0.213  0.00  0.00    -0.011 C 
ATOM     22  C   UNL     1      -9.267  -4.578  -0.570  0.00  0.00    +0.001 C 
ATOM     23  C   UNL     1     -10.690  -5.124  -0.714  0.00  0.00    -0.018 C 
ATOM     24  C   UNL     1     -11.307  -5.298   0.675  0.00  0.00    -0.078 C 
ATOM     25  N   UNL     1     -11.347  -4.001   1.362  0.00  0.00    +0.381 N 
ATOM     26  C   UNL     1      -9.981  -3.505   1.568  0.00  0.00    -0.074 C 
ATOM     27  H   UNL     1     -11.863  -3.340   0.801  0.00  0.00    -0.081 HD
BRANCH  25  28
ATOM     28  C   UNL     1     -12.011  -4.158   2.663  0.00  0.00    -0.075 C 
ATOM     29  C   UNL     1     -12.052  -2.807   3.381  0.00  0.00    -0.014 C 
ATOM     30  C   UNL     1     -13.438  -4.667   2.450  0.00  0.00    -0.014 C 
ENDBRANCH  25  28
ENDBRANCH  20  21
ENDBRANCH  18  20
ENDBRANCH   6  16
TORSDOF 6
