REMARK  Name = ZINC02927495
REMARK  9 active torsions:
REMARK  status: ('A' for Active; 'I' for Inactive)
REMARK    1  A    between atoms: C_1  and  C_2
REMARK    2  A    between atoms: C_2  and  O_3
REMARK    3  A    between atoms: O_3  and  C_4
REMARK    4  A    between atoms: C_9  and  N_10
REMARK    5  A    between atoms: C_11  and  C_13
REMARK    6  A    between atoms: C_13  and  S_14
REMARK    7  A    between atoms: S_14  and  C_15
REMARK    8  A    between atoms: C_19  and  C_23
REMARK    9  A    between atoms: N_26  and  C_27
REMARK                            x       y       z     vdW  Elec       q    Type
REMARK                         _______ _______ _______ _____ _____    ______ ____
ROOT
ATOM      1  C   UNL     1      -4.595   2.536   2.230  0.00  0.00    +0.178 A 
ATOM      2  N   UNL     1      -3.569   2.632   3.040  0.00  0.00    -0.201 NA
ATOM      3  C   UNL     1      -2.321   2.325   2.658  0.00  0.00    +0.187 A 
ATOM      4  C   UNL     1      -2.086   1.879   1.350  0.00  0.00    +0.082 A 
ATOM      5  C   UNL     1      -0.708   1.626   1.234  0.00  0.00    +0.046 A 
ATOM      6  N   UNL     1      -0.140   1.908   2.374  0.00  0.00    -0.279 N 
ATOM      7  N   UNL     1      -1.113   2.340   3.285  0.00  0.00    -0.153 NA
ATOM      8  H   UNL     1       0.947   1.789   2.492  0.00  0.00    +0.189 HD
ATOM      9  C   UNL     1      -0.002   1.143  -0.007  0.00  0.00    +0.066 C 
ATOM     10  C   UNL     1      -3.230   1.773   0.435  0.00  0.00    +0.124 A 
ATOM     11  N   UNL     1      -3.077   1.375  -0.805  0.00  0.00    -0.384 N 
ATOM     12  N   UNL     1      -4.479   2.107   0.936  0.00  0.00    -0.273 N 
ATOM     13  H   UNL     1      -3.949   1.304  -1.471  0.00  0.00    +0.157 HD
ATOM     14  H   UNL     1      -2.076   1.113  -1.178  0.00  0.00    +0.157 HD
ENDROOT
BRANCH  12  15
ATOM     15  C   UNL     1      -5.612   2.021   0.118  0.00  0.00    +0.069 A 
ATOM     16  C   UNL     1      -6.005   3.113  -0.644  0.00  0.00    +0.028 A 
ATOM     17  C   UNL     1      -7.120   3.023  -1.455  0.00  0.00    +0.002 A 
ATOM     18  C   UNL     1      -7.852   1.851  -1.499  0.00  0.00    +0.002 A 
ATOM     19  C   UNL     1      -7.468   0.763  -0.738  0.00  0.00    +0.022 A 
ATOM     20  C   UNL     1      -6.350   0.844   0.071  0.00  0.00    +0.065 A 
ATOM     21 CL   UNL     1      -5.868  -0.522   1.028  0.00  0.00    -0.081 Cl
ENDBRANCH  12  15
BRANCH   1  22
ATOM     22  S   UNL     1      -6.192   2.973   2.834  0.00  0.00    -0.078 S 
BRANCH  22  23
ATOM     23  C   UNL     1      -5.768   3.447   4.529  0.00  0.00    +0.173 C 
BRANCH  23  25
ATOM     24  N   UNL     1      -6.942   4.269   6.545  0.00  0.00    -0.282 N 
ATOM     25  C   UNL     1      -7.016   3.871   5.259  0.00  0.00    +0.228 C 
ATOM     26  O   UNL     1      -8.087   3.854   4.690  0.00  0.00    -0.275 OA
ATOM     27  H   UNL     1      -5.989   4.198   7.088  0.00  0.00    +0.155 HD
BRANCH  24  33
ATOM     28  C   UNL     1      -8.184   4.707   8.576  0.00  0.00    +0.142 A 
ATOM     29  C   UNL     1      -9.312   5.206   9.207  0.00  0.00    +0.047 A 
ATOM     30  C   UNL     1     -10.331   5.768   8.461  0.00  0.00    +0.004 A 
ATOM     31  C   UNL     1     -10.229   5.833   7.083  0.00  0.00    +0.002 A 
ATOM     32  C   UNL     1      -9.105   5.342   6.446  0.00  0.00    +0.027 A 
ATOM     33  C   UNL     1      -8.081   4.772   7.189  0.00  0.00    +0.076 A 
BRANCH  28  34
ATOM     34  O   UNL     1      -7.181   4.155   9.309  0.00  0.00    -0.490 OA
BRANCH  34  36
ATOM     35  C   UNL     1      -6.133   3.471  11.377  0.00  0.00    +0.048 C 
ATOM     36  C   UNL     1      -7.356   4.122  10.727  0.00  0.00    +0.226 C 
ENDBRANCH  34  36
ENDBRANCH  28  34
ENDBRANCH  24  33
ENDBRANCH  23  25
ENDBRANCH  22  23
ENDBRANCH   1  22
TORSDOF 7
