REMARK  Name = ZINC22756491
REMARK  12 active torsions:
REMARK  status: ('A' for Active; 'I' for Inactive)
REMARK    1  A    between atoms: C_1  and  O_2
REMARK    2  A    between atoms: O_2  and  C_3
REMARK    3  A    between atoms: C_6  and  C_9
REMARK    4  A    between atoms: C_9  and  C_11
REMARK    5  A    between atoms: C_9  and  N_30
REMARK    6  A    between atoms: C_11  and  N_12
REMARK    7  A    between atoms: N_12  and  C_13
REMARK    8  A    between atoms: C_13  and  C_14
REMARK    9  A    between atoms: C_14  and  C_16
REMARK   10  A    between atoms: C_14  and  O_29
REMARK   11  A    between atoms: C_16  and  O_17
REMARK   12  A    between atoms: O_17  and  C_18
REMARK                            x       y       z     vdW  Elec       q    Type
REMARK                         _______ _______ _______ _____ _____    ______ ____
ROOT
ATOM      1  N   UNL     1      -4.728  -3.953   0.538  0.00  0.00    +0.382 N 
ATOM      2  H   UNL     1      -4.692  -3.949  -0.562  0.00  0.00    -0.086 HD
ATOM      3  H   UNL     1      -5.544  -3.300   0.881  0.00  0.00    -0.086 HD
ENDROOT
BRANCH   1   4
ATOM      4  C   UNL     1      -4.964  -5.323   1.014  0.00  0.00    -0.059 C 
BRANCH   4   5
ATOM      5  C   UNL     1      -6.249  -5.867   0.387  0.00  0.00    +0.070 C 
BRANCH   5   9
ATOM      6  C   UNL     1      -9.572  -3.509   1.674  0.00  0.00    +0.120 A 
ATOM      7  C   UNL     1      -9.011  -3.294   0.423  0.00  0.00    +0.046 A 
ATOM      8  C   UNL     1      -7.937  -4.058   0.010  0.00  0.00    +0.009 A 
ATOM      9  C   UNL     1      -7.421  -5.035   0.841  0.00  0.00    -0.032 A 
ATOM     10  C   UNL     1      -7.982  -5.255   2.085  0.00  0.00    +0.009 A 
ATOM     11  C   UNL     1      -9.053  -4.490   2.506  0.00  0.00    +0.046 A 
BRANCH   6  13
ATOM     12  C   UNL     1     -11.156  -3.034   3.382  0.00  0.00    +0.277 C 
ATOM     13  O   UNL     1     -10.629  -2.758   2.083  0.00  0.00    -0.495 OA
ENDBRANCH   6  13
ENDBRANCH   5   9
BRANCH   5  14
ATOM     14  N   UNL     1      -6.446  -7.261   0.806  0.00  0.00    -0.293 NA
ATOM     15  C   UNL     1      -5.298  -8.095   0.421  0.00  0.00    +0.113 C 
ATOM     16  C   UNL     1      -5.518  -9.522   0.928  0.00  0.00    +0.175 C 
ATOM     17  O   UNL     1      -6.750 -10.024   0.405  0.00  0.00    -0.377 OA
ATOM     18  C   UNL     1      -7.890  -9.237   0.761  0.00  0.00    +0.175 C 
ATOM     19  C   UNL     1      -7.694  -7.806   0.252  0.00  0.00    +0.113 C 
ENDBRANCH   5  14
ENDBRANCH   4   5
ENDBRANCH   1   4
BRANCH   1  20
ATOM     20  C   UNL     1      -3.457  -3.428   1.053  0.00  0.00    -0.049 C 
BRANCH  20  21
ATOM     21  C   UNL     1      -3.247  -2.003   0.536  0.00  0.00    +0.123 C 
BRANCH  21  22
ATOM     22  O   UNL     1      -3.214  -2.015  -0.892  0.00  0.00    -0.391 OA
ATOM     23  H   UNL     1      -3.070  -1.075  -1.446  0.00  0.00    +0.210 HD
ENDBRANCH  21  22
BRANCH  21  24
ATOM     24  C   UNL     1      -1.922  -1.456   1.073  0.00  0.00    +0.190 C 
BRANCH  24  25
ATOM     25  O   UNL     1      -1.781  -0.088   0.687  0.00  0.00    -0.369 OA
BRANCH  25  26
ATOM     26  C   UNL     1      -0.527   0.492   1.051  0.00  0.00    +0.149 C 
ATOM     27  C   UNL     1      -0.645   1.118   2.439  0.00  0.00    +0.037 C 
ATOM     28  C   UNL     1       0.633   1.917   2.719  0.00  0.00    +0.007 C 
ATOM     29  C   UNL     1       0.642   3.146   1.812  0.00  0.00    +0.035 C 
ATOM     30  C   UNL     1       0.397   2.749   0.380  0.00  0.00    -0.042 A 
ATOM     31  C   UNL     1      -0.146   1.533   0.030  0.00  0.00    -0.016 A 
ATOM     32  C   UNL     1      -0.359   1.234  -1.309  0.00  0.00    +0.006 A 
ATOM     33  C   UNL     1      -0.028   2.144  -2.292  0.00  0.00    +0.000 A 
ATOM     34  C   UNL     1       0.522   3.363  -1.941  0.00  0.00    +0.000 A 
ATOM     35  C   UNL     1       0.733   3.662  -0.611  0.00  0.00    +0.004 A 
ENDBRANCH  25  26
ENDBRANCH  24  25
ENDBRANCH  21  24
ENDBRANCH  20  21
ENDBRANCH   1  20
TORSDOF 11
