REMARK  Name = ZINC49415324
REMARK  2 active torsions:
REMARK  status: ('A' for Active; 'I' for Inactive)
REMARK    1  A    between atoms: C_13  and  N_16
REMARK    2  A    between atoms: C_17  and  C_19
REMARK                            x       y       z     vdW  Elec       q    Type
REMARK                         _______ _______ _______ _____ _____    ______ ____
ROOT
ATOM      1  C   UNL     1       0.438   0.921   2.772  0.00  0.00    +0.019 A 
ATOM      2  C   UNL     1       1.728   1.409   2.478  0.00  0.00    +0.019 A 
ATOM      3  C   UNL     1       2.429   0.397   1.930  0.00  0.00    +0.092 A 
ATOM      4  N   UNL     1       1.618  -0.702   1.874  0.00  0.00    -0.308 N 
ATOM      5  C   UNL     1       0.398  -0.372   2.393  0.00  0.00    +0.092 A 
ATOM      6  C   UNL     1       1.977  -1.954   1.371  0.00  0.00    +0.138 A 
ATOM      7  C   UNL     1       1.033  -2.989   1.374  0.00  0.00    +0.047 A 
ATOM      8  C   UNL     1       1.369  -4.216   0.885  0.00  0.00    +0.013 A 
ATOM      9  C   UNL     1       2.674  -4.402   0.387  0.00  0.00    +0.002 A 
ATOM     10  C   UNL     1       3.086  -5.640  -0.132  0.00  0.00    +0.010 A 
ATOM     11  C   UNL     1       4.353  -5.791  -0.607  0.00  0.00    +0.003 A 
ATOM     12  C   UNL     1       5.255  -4.731  -0.588  0.00  0.00    +0.025 A 
ATOM     13  C   UNL     1       4.889  -3.501  -0.087  0.00  0.00    +0.060 A 
ATOM     14  C   UNL     1       3.581  -3.315   0.412  0.00  0.00    +0.094 A 
ATOM     15  N   UNL     1       3.192  -2.133   0.899  0.00  0.00    -0.227 NA
ENDROOT
BRANCH  13  16
ATOM     16  N   UNL     1       5.804  -2.446  -0.072  0.00  0.00    -0.280 N 
ATOM     17  C   UNL     1       7.122  -2.699   0.045  0.00  0.00    +0.254 C 
ATOM     18  O   UNL     1       7.523  -3.848   0.055  0.00  0.00    -0.270 OA
ATOM     19  H   UNL     1       5.490  -1.531  -0.147  0.00  0.00    +0.155 HD
BRANCH  17  20
ATOM     20  C   UNL     1       8.077  -1.587   0.160  0.00  0.00    +0.101 A 
ATOM     21  C   UNL     1       9.450  -1.827   0.153  0.00  0.00    +0.020 A 
ATOM     22  C   UNL     1      10.325  -0.747   0.264  0.00  0.00    +0.018 A 
ATOM     23  C   UNL     1       9.839   0.515   0.377  0.00  0.00    +0.086 A 
ATOM     24  N   UNL     1       8.506   0.756   0.385  0.00  0.00    -0.328 N 
ATOM     25  H   UNL     1       8.186   1.668   0.468  0.00  0.00    +0.168 HD
ATOM     26  C   UNL     1       7.617  -0.249   0.275  0.00  0.00    +0.261 A 
ATOM     27  O   UNL     1       6.422  -0.012   0.278  0.00  0.00    -0.267 OA
ENDBRANCH  17  20
ENDBRANCH  13  16
TORSDOF 2
