REMARK  Name = ZINC37063389
REMARK  6 active torsions:
REMARK  status: ('A' for Active; 'I' for Inactive)
REMARK    1  A    between atoms: C_3  and  S_9
REMARK    2  A    between atoms: C_4  and  N_8
REMARK    3  A    between atoms: S_9  and  N_12
REMARK    4  A    between atoms: C_17  and  C_19
REMARK    5  A    between atoms: C_19  and  C_20
REMARK    6  A    between atoms: C_20  and  O_21
REMARK                            x       y       z     vdW  Elec       q    Type
REMARK                         _______ _______ _______ _____ _____    ______ ____
ROOT
ATOM      1  S   UNL     1       4.128   2.342   0.041  0.00  0.00    +0.063 S 
ATOM      2  O   UNL     1       3.100   3.224   0.469  0.00  0.00    -0.153 OA
ATOM      3  O   UNL     1       3.876   1.232  -0.810  0.00  0.00    -0.153 OA
ENDROOT
BRANCH   1   6
ATOM      4  C   UNL     1       6.766   3.739  -2.650  0.00  0.00    +0.017 A 
ATOM      5  C   UNL     1       5.818   2.960  -2.011  0.00  0.00    +0.031 A 
ATOM      6  C   UNL     1       5.336   3.335  -0.772  0.00  0.00    +0.126 A 
ATOM      7  C   UNL     1       5.804   4.495  -0.167  0.00  0.00    +0.052 A 
ATOM      8  C   UNL     1       6.756   5.274  -0.811  0.00  0.00    +0.040 A 
ATOM      9  C   UNL     1       7.234   4.895  -2.051  0.00  0.00    +0.020 A 
ATOM     10 BR   UNL     1       8.530   5.955  -2.929  0.00  0.00    -0.050 Br
BRANCH   7  11
ATOM     11  N   UNL     1       5.319   4.876   1.086  0.00  0.00    -0.356 N 
ATOM     12  H   UNL     1       4.656   4.329   1.536  0.00  0.00    +0.142 HD
ATOM     13  H   UNL     1       5.643   5.688   1.505  0.00  0.00    +0.142 HD
ENDBRANCH   7  11
ENDBRANCH   1   6
BRANCH   1  14
ATOM     14  N   UNL     1       4.834   1.737   1.412  0.00  0.00    -0.173 NA
ATOM     15  C   UNL     1       4.461   2.253   2.736  0.00  0.00    +0.110 C 
ATOM     16  C   UNL     1       5.733   2.687   3.472  0.00  0.00    +0.017 C 
ATOM     17  C   UNL     1       6.720   1.518   3.508  0.00  0.00    +0.003 C 
ATOM     18  C   UNL     1       7.100   1.125   2.078  0.00  0.00    +0.021 C 
ATOM     19  C   UNL     1       5.840   0.669   1.327  0.00  0.00    +0.082 C 
BRANCH  19  20
ATOM     20  C   UNL     1       6.183   0.403  -0.140  0.00  0.00    +0.048 C 
BRANCH  20  21
ATOM     21  C   UNL     1       7.255  -0.685  -0.224  0.00  0.00    +0.157 C 
BRANCH  21  22
ATOM     22  O   UNL     1       7.488  -1.020  -1.593  0.00  0.00    -0.395 OA
ATOM     23  H   UNL     1       8.158  -1.705  -1.722  0.00  0.00    +0.209 HD
ENDBRANCH  21  22
ENDBRANCH  20  21
ENDBRANCH  19  20
ENDBRANCH   1  14
TORSDOF 6
