REMARK  Name = ZINC63314109
REMARK  7 active torsions:
REMARK  status: ('A' for Active; 'I' for Inactive)
REMARK    1  A    between atoms: C_1  and  C_2
REMARK    2  A    between atoms: C_8  and  C_11
REMARK    3  A    between atoms: C_11  and  C_12
REMARK    4  A    between atoms: C_12  and  N_13
REMARK    5  A    between atoms: C_14  and  C_30
REMARK    6  A    between atoms: C_16  and  O_17
REMARK    7  A    between atoms: N_18  and  C_24
REMARK                            x       y       z     vdW  Elec       q    Type
REMARK                         _______ _______ _______ _____ _____    ______ ____
ROOT
ATOM      1  N   UNL     1      -1.174  -2.603   5.629  0.00  0.00    -0.311 N 
ATOM      2  C   UNL     1      -1.355  -3.630   6.425  0.00  0.00    +0.033 A 
ATOM      3  C   UNL     1      -1.569  -3.423   7.797  0.00  0.00    +0.083 A 
ATOM      4  C   UNL     1      -1.790  -4.236   8.903  0.00  0.00    +0.225 A 
ATOM      5  N   UNL     1      -1.926  -3.437   9.976  0.00  0.00    -0.199 N 
ATOM      6  N   UNL     1      -1.797  -2.097   9.594  0.00  0.00    -0.163 NA
ATOM      7  C   UNL     1      -1.582  -2.035   8.296  0.00  0.00    +0.104 A 
ATOM      8  C   UNL     1      -1.377  -1.002   7.354  0.00  0.00    +0.100 A 
ATOM      9  C   UNL     1      -1.175  -1.340   6.050  0.00  0.00    +0.254 A 
ATOM     10  O   UNL     1      -0.973  -0.350   5.143  0.00  0.00    -0.268 OA
ATOM     11  C   UNL     1      -1.333  -5.030   5.868  0.00  0.00    +0.064 C 
ENDROOT
BRANCH   5  12
ATOM     12  C   UNL     1      -2.162  -3.881  11.283  0.00  0.00    +0.069 A 
ATOM     13  C   UNL     1      -2.949  -5.004  11.505  0.00  0.00    +0.028 A 
ATOM     14  C   UNL     1      -3.180  -5.439  12.795  0.00  0.00    +0.002 A 
ATOM     15  C   UNL     1      -2.629  -4.758  13.865  0.00  0.00    +0.000 A 
ATOM     16  C   UNL     1      -1.845  -3.640  13.648  0.00  0.00    +0.002 A 
ATOM     17  C   UNL     1      -1.605  -3.203  12.359  0.00  0.00    +0.028 A 
ENDBRANCH   5  12
BRANCH   4  18
ATOM     18  O   UNL     1      -1.856  -5.589   8.899  0.00  0.00    -0.492 OA
ATOM     19  H   UNL     1      -1.004  -6.025   9.041  0.00  0.00    +0.294 HD
ENDBRANCH   4  18
BRANCH   1  20
ATOM     20  C   UNL     1      -0.954  -2.861   4.204  0.00  0.00    +0.129 C 
BRANCH  20  21
ATOM     21  C   UNL     1      -2.296  -2.839   3.469  0.00  0.00    +0.055 C 
BRANCH  21  29
ATOM     22  C   UNL     1      -2.790  -8.061   1.424  0.00  0.00    +0.044 C 
ATOM     23  C   UNL     1      -2.469  -6.668   0.946  0.00  0.00    -0.050 A 
ATOM     24  C   UNL     1      -2.183  -6.461  -0.410  0.00  0.00    +0.005 A 
ATOM     25  C   UNL     1      -1.887  -5.245  -0.916  0.00  0.00    +0.026 A 
ATOM     26  C   UNL     1      -1.853  -4.103  -0.068  0.00  0.00    +0.043 A 
ATOM     27  N   UNL     1      -1.597  -2.841  -0.314  0.00  0.00    -0.380 N 
ATOM     28  C   UNL     1      -1.703  -2.089   0.941  0.00  0.00    +0.144 C 
ATOM     29  C   UNL     1      -2.069  -3.103   2.002  0.00  0.00    -0.040 C 
ATOM     30  C   UNL     1      -2.152  -4.295   1.369  0.00  0.00    -0.001 A 
ATOM     31  C   UNL     1      -2.470  -5.650   1.836  0.00  0.00    +0.013 A 
ATOM     32  H   UNL     1      -1.373  -2.467  -1.181  0.00  0.00    +0.160 HD
ENDBRANCH  21  29
ENDBRANCH  20  21
ENDBRANCH   1  20
TORSDOF 5
