REMARK  Name = ZINC46373067
REMARK  6 active torsions:
REMARK  status: ('A' for Active; 'I' for Inactive)
REMARK    1  A    between atoms: C_1  and  C_2
REMARK    2  A    between atoms: N_8  and  C_9
REMARK    3  A    between atoms: C_9  and  C_10
REMARK    4  A    between atoms: C_10  and  N_11
REMARK    5  A    between atoms: N_14  and  C_15
REMARK    6  A    between atoms: C_15  and  C_16
REMARK                            x       y       z     vdW  Elec       q    Type
REMARK                         _______ _______ _______ _____ _____    ______ ____
ROOT
ATOM      1  N   UNL     1       4.113   0.250   2.546  0.00  0.00    -0.301 N 
ATOM      2  C   UNL     1       4.919   0.025   3.602  0.00  0.00    +0.300 C 
ATOM      3  O   UNL     1       4.527  -0.653   4.532  0.00  0.00    -0.253 OA
ATOM      4  N   UNL     1       6.160   0.550   3.627  0.00  0.00    -0.295 N 
ATOM      5  H   UNL     1       4.426   0.791   1.803  0.00  0.00    +0.150 HD
ATOM      6  H   UNL     1       6.473   1.091   2.885  0.00  0.00    +0.151 HD
ENDROOT
BRANCH   1   7
ATOM      7  C   UNL     1       2.764  -0.321   2.518  0.00  0.00    +0.087 C 
BRANCH   7   8
ATOM      8  C   UNL     1       2.066   0.083   1.218  0.00  0.00    -0.059 C 
BRANCH   8  15
ATOM      9  C   UNL     1      -0.019   1.526   0.010  0.00  0.00    -0.013 C 
ATOM     10  C   UNL     1       0.002  -0.004   0.002  0.00  0.00    -0.072 C 
ATOM     11  C   UNL     1      -1.434  -0.533   0.011  0.00  0.00    -0.016 C 
ATOM     12  C   UNL     1      -1.408  -2.064   0.003  0.00  0.00    -0.003 C 
ATOM     13  C   UNL     1      -0.600  -2.558   1.206  0.00  0.00    -0.019 C 
ATOM     14  C   UNL     1       0.805  -1.954   1.152  0.00  0.00    -0.078 C 
ATOM     15  N   UNL     1       0.713  -0.490   1.191  0.00  0.00    +0.382 N 
ATOM     16  H   UNL     1       0.213  -0.206   2.020  0.00  0.00    -0.081 HD
ENDBRANCH   8  15
ENDBRANCH   7   8
ENDBRANCH   1   7
BRANCH   4  17
ATOM     17  C   UNL     1       7.036   0.305   4.776  0.00  0.00    +0.148 C 
BRANCH  17  18
ATOM     18  C   UNL     1       8.356   0.999   4.558  0.00  0.00    +0.008 A 
ATOM     19  C   UNL     1       8.730   2.253   4.910  0.00  0.00    +0.028 A 
ATOM     20  C   UNL     1      10.008   2.682   4.604  0.00  0.00    +0.025 A 
ATOM     21  C   UNL     1      10.850   1.835   3.960  0.00  0.00    +0.060 A 
ATOM     22  S   UNL     1       9.836   0.378   3.775  0.00  0.00    -0.099 S 
ATOM     23 BR   UNL     1      10.574   4.424   5.074  0.00  0.00    -0.050 Br
ENDBRANCH  17  18
ENDBRANCH   4  17
TORSDOF 5
