REMARK  Name = ZINC63486103
REMARK  5 active torsions:
REMARK  status: ('A' for Active; 'I' for Inactive)
REMARK    1  A    between atoms: C_6  and  N_7
REMARK    2  A    between atoms: N_7  and  C_8
REMARK    3  A    between atoms: C_8  and  N_10
REMARK    4  A    between atoms: N_10  and  C_11
REMARK    5  A    between atoms: C_11  and  C_12
REMARK                            x       y       z     vdW  Elec       q    Type
REMARK                         _______ _______ _______ _____ _____    ______ ____
ROOT
ATOM      1  C   UNL     1      -2.325  -4.207  -0.311  0.00  0.00    +0.138 C 
ENDROOT
BRANCH   1   2
ATOM      2  C   UNL     1      -3.739  -4.721  -0.400  0.00  0.00    -0.030 A 
ATOM      3  C   UNL     1      -4.421  -5.048   0.780  0.00  0.00    +0.007 A 
ATOM      4  C   UNL     1      -5.687  -5.516   0.783  0.00  0.00    +0.026 A 
ATOM      5  C   UNL     1      -6.390  -5.700  -0.438  0.00  0.00    +0.043 A 
ATOM      6  N   UNL     1      -7.612  -6.113  -0.688  0.00  0.00    -0.378 N 
ATOM      7  C   UNL     1      -7.788  -6.188  -2.136  0.00  0.00    +0.106 C 
ATOM      8  C   UNL     1      -8.973  -5.349  -2.621  0.00  0.00    +0.029 C 
ATOM      9  C   UNL     1      -8.909  -5.253  -4.149  0.00  0.00    +0.003 C 
ATOM     10  C   UNL     1      -7.671  -4.481  -4.601  0.00  0.00    +0.004 C 
ATOM     11  C   UNL     1      -6.398  -5.244  -4.194  0.00  0.00    +0.033 C 
ATOM     12  C   UNL     1      -6.526  -5.585  -2.727  0.00  0.00    -0.038 C 
ATOM     13  C   UNL     1      -5.694  -5.354  -1.702  0.00  0.00    -0.001 A 
ATOM     14  C   UNL     1      -4.318  -4.849  -1.614  0.00  0.00    +0.015 A 
ATOM     15  H   UNL     1      -8.284  -6.331  -0.024  0.00  0.00    +0.160 HD
ENDBRANCH   1   2
BRANCH   1  16
ATOM     16  N   UNL     1      -2.343  -2.747  -0.193  0.00  0.00    -0.322 N 
ATOM     17  H   UNL     1      -3.188  -2.272  -0.182  0.00  0.00    +0.148 HD
BRANCH  16  18
ATOM     18  C   UNL     1      -1.184  -2.065  -0.099  0.00  0.00    +0.135 C 
ATOM     19  S   UNL     1       0.308  -2.904  -0.119  0.00  0.00    -0.019 S 
BRANCH  18  20
ATOM     20  N   UNL     1      -1.200  -0.722   0.010  0.00  0.00    -0.297 N 
ATOM     21  H   UNL     1      -2.044  -0.252   0.102  0.00  0.00    +0.154 HD
BRANCH  20  27
ATOM     22  C   UNL     1       1.003  -0.348  -0.907  0.00  0.00    +0.026 A 
ATOM     23  C   UNL     1       2.188   0.362  -0.925  0.00  0.00    +0.040 A 
ATOM     24  C   UNL     1       2.377   1.417  -0.048  0.00  0.00    +0.124 A 
ATOM     25  C   UNL     1       1.379   1.762   0.849  0.00  0.00    +0.040 A 
ATOM     26  C   UNL     1       0.193   1.055   0.869  0.00  0.00    +0.026 A 
ATOM     27  C   UNL     1       0.001  -0.003  -0.009  0.00  0.00    +0.033 A 
ATOM     28  F   UNL     1       3.536   2.110  -0.067  0.00  0.00    -0.205 F 
ENDBRANCH  20  27
ENDBRANCH  18  20
ENDBRANCH  16  18
ENDBRANCH   1  16
TORSDOF 5
