REMARK  Name = ZINC01866166
REMARK  5 active torsions:
REMARK  status: ('A' for Active; 'I' for Inactive)
REMARK    1  A    between atoms: C_1  and  C_2
REMARK    2  A    between atoms: C_2  and  C_4
REMARK    3  A    between atoms: C_2  and  O_19
REMARK    4  A    between atoms: C_5  and  C_12
REMARK    5  A    between atoms: C_6  and  N_11
REMARK                            x       y       z     vdW  Elec       q    Type
REMARK                         _______ _______ _______ _____ _____    ______ ____
ROOT
ATOM      1  C   UNL     1      -2.494   3.679   0.034  0.00  0.00    +0.084 A 
ATOM      2  C   UNL     1      -1.251   3.048   0.030  0.00  0.00    +0.046 A 
ATOM      3  C   UNL     1      -1.218   1.641   0.017  0.00  0.00    +0.129 A 
ATOM      4  N   UNL     1      -2.366   0.973   0.019  0.00  0.00    -0.199 NA
ATOM      5  C   UNL     1      -3.524   1.616   0.028  0.00  0.00    +0.215 A 
ATOM      6  N   UNL     1      -3.591   2.939   0.035  0.00  0.00    -0.216 NA
ATOM      7  N   UNL     1      -4.698   0.884   0.030  0.00  0.00    -0.327 N 
ATOM      8  H   UNL     1      -4.666  -0.085   0.024  0.00  0.00    +0.145 HD
ATOM      9  H   UNL     1      -5.554   1.341   0.036  0.00  0.00    +0.145 HD
ENDROOT
BRANCH   2  10
ATOM     10  C   UNL     1       0.003   3.838   0.035  0.00  0.00    -0.013 A 
ATOM     11  C   UNL     1       0.324   4.636   1.132  0.00  0.00    +0.010 A 
ATOM     12  C   UNL     1       1.495   5.365   1.134  0.00  0.00    +0.020 A 
ATOM     13  C   UNL     1       2.346   5.314   0.043  0.00  0.00    +0.041 A 
ATOM     14  C   UNL     1       2.030   4.528  -1.052  0.00  0.00    +0.020 A 
ATOM     15  C   UNL     1       0.864   3.791  -1.061  0.00  0.00    +0.010 A 
ATOM     16 CL   UNL     1       3.815   6.240   0.048  0.00  0.00    -0.084 Cl
ENDBRANCH   2  10
BRANCH   3  17
ATOM     17  N   UNL     1      -0.011   0.966   0.007  0.00  0.00    -0.343 N 
ATOM     18  H   UNL     1       0.002  -0.004   0.002  0.00  0.00    +0.144 HD
ATOM     19  H   UNL     1       0.822   1.462   0.002  0.00  0.00    +0.144 HD
ENDBRANCH   3  17
BRANCH   1  21
ATOM     20  C   UNL     1      -2.984   5.661   1.441  0.00  0.00    +0.044 C 
ATOM     21  C   UNL     1      -2.586   5.183   0.043  0.00  0.00    +0.161 C 
BRANCH  21  22
ATOM     22  O   UNL     1      -3.571   5.605  -0.903  0.00  0.00    -0.386 OA
ATOM     23  H   UNL     1      -4.458   5.263  -0.726  0.00  0.00    +0.210 HD
ENDBRANCH  21  22
ENDBRANCH   1  21
TORSDOF 4
