REMARK  Name = ZINC20832605
REMARK  10 active torsions:
REMARK  status: ('A' for Active; 'I' for Inactive)
REMARK    1  A    between atoms: C_1  and  O_2
REMARK    2  A    between atoms: O_2  and  C_3
REMARK    3  A    between atoms: C_6  and  O_33
REMARK    4  A    between atoms: C_7  and  C_9
REMARK    5  A    between atoms: N_10  and  N_11
REMARK    6  A    between atoms: C_14  and  S_17
REMARK    7  A    between atoms: S_17  and  C_18
REMARK    8  A    between atoms: C_18  and  C_19
REMARK    9  A    between atoms: C_27  and  O_31
REMARK   10  A    between atoms: O_31  and  C_32
REMARK                            x       y       z     vdW  Elec       q    Type
REMARK                         _______ _______ _______ _____ _____    ______ ____
ROOT
ATOM      1  N   UNL     1      -1.109  -0.835   0.008  0.00  0.00    -0.205 N 
ATOM      2  C   UNL     1       0.002  -0.004   0.002  0.00  0.00    +0.232 A 
ATOM      3  N   UNL     1      -0.017   1.363   0.009  0.00  0.00    -0.186 NA
ATOM      4  C   UNL     1       1.277   1.803  -0.000  0.00  0.00    +0.211 A 
ATOM      5  N   UNL     1       2.062   0.752  -0.014  0.00  0.00    -0.144 NA
ATOM      6  N   UNL     1       1.254  -0.392  -0.012  0.00  0.00    -0.245 N 
ATOM      7  H   UNL     1      -2.120  -0.401   0.020  0.00  0.00    +0.177 HD
ATOM      8  H   UNL     1       1.498  -1.465  -0.020  0.00  0.00    +0.192 HD
ENDROOT
BRANCH   1  10
ATOM      9  C   UNL     1      -1.984  -3.003   0.005  0.00  0.00    +0.142 C 
ATOM     10  N   UNL     1      -0.944  -2.226  -0.001  0.00  0.00    -0.187 NA
BRANCH   9  15
ATOM     11  C   UNL     1      -2.755  -6.679  -0.008  0.00  0.00    +0.121 A 
ATOM     12  C   UNL     1      -1.478  -7.223  -0.024  0.00  0.00    +0.049 A 
ATOM     13  C   UNL     1      -0.368  -6.399  -0.030  0.00  0.00    +0.049 A 
ATOM     14  C   UNL     1      -0.524  -5.023  -0.026  0.00  0.00    +0.126 A 
ATOM     15  C   UNL     1      -1.810  -4.467  -0.005  0.00  0.00    +0.039 A 
ATOM     16  C   UNL     1      -2.926  -5.306   0.002  0.00  0.00    +0.058 A 
BRANCH  11  18
ATOM     17  C   UNL     1      -3.592  -8.905  -0.013  0.00  0.00    +0.277 C 
ATOM     18  O   UNL     1      -3.841  -7.498  -0.002  0.00  0.00    -0.495 OA
ENDBRANCH  11  18
BRANCH  14  19
ATOM     19  O   UNL     1       0.568  -4.214  -0.037  0.00  0.00    -0.506 OA
ATOM     20  H   UNL     1       0.443  -3.121  -0.034  0.00  0.00    +0.292 HD
ENDBRANCH  14  19
ENDBRANCH   9  15
ENDBRANCH   1  10
BRANCH   4  21
ATOM     21  S   UNL     1       1.798   3.486   0.003  0.00  0.00    -0.075 S 
BRANCH  21  22
ATOM     22  C   UNL     1       3.609   3.384  -0.015  0.00  0.00    +0.173 C 
BRANCH  22  23
ATOM     23  C   UNL     1       4.191   4.775  -0.014  0.00  0.00    +0.229 C 
ATOM     24  O   UNL     1       3.455   5.739  -0.003  0.00  0.00    -0.275 OA
ATOM     25  N   UNL     1       5.527   4.946  -0.025  0.00  0.00    -0.264 N 
ATOM     26  C   UNL     1       6.062   6.225  -0.025  0.00  0.00    +0.165 A 
ATOM     27  N   UNL     1       5.436   7.378  -0.013  0.00  0.00    -0.225 NA
ATOM     28  C   UNL     1       6.092   8.560  -0.013  0.00  0.00    +0.081 A 
ATOM     29  C   UNL     1       5.542   9.863  -0.001  0.00  0.00    +0.032 A 
ATOM     30  C   UNL     1       6.352  10.967  -0.002  0.00  0.00    +0.048 A 
ATOM     31  C   UNL     1       7.739  10.850  -0.015  0.00  0.00    +0.121 A 
ATOM     32  C   UNL     1       8.311   9.587  -0.028  0.00  0.00    +0.063 A 
ATOM     33  C   UNL     1       7.503   8.477  -0.026  0.00  0.00    +0.044 A 
ATOM     34  S   UNL     1       7.779   6.722  -0.031  0.00  0.00    -0.052 S 
ATOM     35  H   UNL     1       6.194   4.072  -0.036  0.00  0.00    +0.157 HD
BRANCH  31  36
ATOM     36  O   UNL     1       8.523  11.961  -0.016  0.00  0.00    -0.495 OA
ATOM     37  C   UNL     1       7.857  13.225  -0.003  0.00  0.00    +0.277 C 
ENDBRANCH  31  36
ENDBRANCH  22  23
ENDBRANCH  21  22
ENDBRANCH   4  21
TORSDOF 8
