REMARK  Name = ZINC66992293
REMARK  5 active torsions:
REMARK  status: ('A' for Active; 'I' for Inactive)
REMARK    1  A    between atoms: C_3  and  C_10
REMARK    2  A    between atoms: C_5  and  C_7
REMARK    3  A    between atoms: C_10  and  N_11
REMARK    4  A    between atoms: N_11  and  C_12
REMARK    5  A    between atoms: C_12  and  C_17
REMARK                            x       y       z     vdW  Elec       q    Type
REMARK                         _______ _______ _______ _____ _____    ______ ____
ROOT
ATOM      1  N   UNL     1       4.064   2.502   1.273  0.00  0.00    +0.388 N 
ATOM      2  H   UNL     1       4.221   1.605   1.707  0.00  0.00    -0.084 HD
ATOM      3  H   UNL     1       3.735   2.366   0.329  0.00  0.00    -0.084 HD
ENDROOT
BRANCH   1   4
ATOM      4  C   UNL     1       5.322   3.261   1.248  0.00  0.00    -0.042 C 
ATOM      5  C   UNL     1       5.071   4.682   0.703  0.00  0.00    -0.008 C 
ATOM      6  C   UNL     1       4.887   5.550   1.972  0.00  0.00    -0.001 C 
ATOM      7  C   UNL     1       5.923   4.946   2.952  0.00  0.00    -0.001 C 
ATOM      8  C   UNL     1       5.864   3.429   2.679  0.00  0.00    -0.008 C 
BRANCH   4   9
ATOM      9  C   UNL     1       6.337   2.550   0.392  0.00  0.00    -0.055 A 
ATOM     10  C   UNL     1       7.604   3.081   0.238  0.00  0.00    +0.006 A 
ATOM     11  C   UNL     1       8.538   2.432  -0.547  0.00  0.00    +0.049 A 
ATOM     12  C   UNL     1       8.206   1.246  -1.185  0.00  0.00    +0.162 A 
ATOM     13  C   UNL     1       6.933   0.711  -1.029  0.00  0.00    +0.162 A 
ATOM     14  C   UNL     1       6.002   1.365  -0.235  0.00  0.00    +0.051 A 
ATOM     15  O   UNL     1       6.588  -0.457  -1.639  0.00  0.00    -0.485 OA
ATOM     16  C   UNL     1       7.424  -0.890  -2.717  0.00  0.00    +0.270 C 
ATOM     17  C   UNL     1       8.888  -0.754  -2.275  0.00  0.00    +0.270 C 
ATOM     18  O   UNL     1       9.134   0.621  -1.959  0.00  0.00    -0.485 OA
ENDBRANCH   4   9
ENDBRANCH   1   4
BRANCH   1  19
ATOM     19  C   UNL     1       3.057   3.247   2.040  0.00  0.00    -0.046 C 
BRANCH  19  22
ATOM     20  C   UNL     1       0.513   0.791   3.373  0.00  0.00    +0.001 A 
ATOM     21  C   UNL     1       1.658   1.558   3.246  0.00  0.00    +0.002 A 
ATOM     22  C   UNL     1       1.808   2.415   2.170  0.00  0.00    -0.064 A 
ATOM     23  C   UNL     1       0.815   2.510   1.216  0.00  0.00    +0.014 A 
ATOM     24  C   UNL     1      -0.341   1.738   1.338  0.00  0.00    +0.037 A 
ATOM     25  C   UNL     1      -0.486   0.875   2.425  0.00  0.00    +0.013 A 
BRANCH  24  26
ATOM     26  C   UNL     1      -1.409   1.835   0.320  0.00  0.00    +0.242 C 
ATOM     27  O   UNL     1      -1.280   2.587  -0.626  0.00  0.00    -0.270 OA
ATOM     28  N   UNL     1      -2.525   1.089   0.440  0.00  0.00    -0.325 N 
ATOM     29  H   UNL     1      -2.627   0.488   1.195  0.00  0.00    +0.145 HD
ATOM     30  H   UNL     1      -3.225   1.152  -0.228  0.00  0.00    +0.145 HD
ENDBRANCH  24  26
ENDBRANCH  19  22
ENDBRANCH   1  19
TORSDOF 5
