REMARK  Name = ZINC43222789
REMARK  13 active torsions:
REMARK  status: ('A' for Active; 'I' for Inactive)
REMARK    1  A    between atoms: C_1  and  C_2
REMARK    2  A    between atoms: C_2  and  C_4
REMARK    3  A    between atoms: C_2  and  N_12
REMARK    4  A    between atoms: C_4  and  C_5
REMARK    5  A    between atoms: C_5  and  C_6
REMARK    6  A    between atoms: C_13  and  C_15
REMARK    7  A    between atoms: C_20  and  C_22
REMARK    8  A    between atoms: N_24  and  C_25
REMARK    9  A    between atoms: C_25  and  C_27
REMARK   10  A    between atoms: C_25  and  C_28
REMARK   11  A    between atoms: C_28  and  C_29
REMARK   12  A    between atoms: C_29  and  C_30
REMARK   13  A    between atoms: C_29  and  C_31
REMARK                            x       y       z     vdW  Elec       q    Type
REMARK                         _______ _______ _______ _____ _____    ______ ____
ROOT
ATOM      1  C   UNL     1      -3.327  -1.409  -0.969  0.00  0.00    +0.068 C 
ATOM      2  C   UNL     1      -4.214  -0.487  -0.105  0.00  0.00    -0.069 C 
ATOM      3  N   UNL     1      -4.815   0.468  -1.071  0.00  0.00    +0.380 N 
ATOM      4  C   UNL     1      -5.127  -0.364  -2.261  0.00  0.00    -0.069 C 
ATOM      5  C   UNL     1      -3.927  -1.330  -2.388  0.00  0.00    +0.068 C 
ATOM      6  H   UNL     1      -5.658   0.871  -0.691  0.00  0.00    -0.086 HD
ATOM      7  H   UNL     1      -4.153   1.191  -1.310  0.00  0.00    -0.086 HD
ENDROOT
BRANCH   1   9
ATOM      8  N   UNL     1      -1.202  -0.867   0.175  0.00  0.00    -0.313 N 
ATOM      9  C   UNL     1      -1.904  -0.911  -0.974  0.00  0.00    +0.215 C 
ATOM     10  O   UNL     1      -1.392  -0.550  -2.013  0.00  0.00    -0.276 OA
ATOM     11  H   UNL     1      -1.611  -1.156   1.005  0.00  0.00    +0.149 HD
BRANCH   8  13
ATOM     12  C   UNL     1       0.188   1.142   0.279  0.00  0.00    +0.028 C 
ATOM     13  C   UNL     1       0.181  -0.384   0.170  0.00  0.00    +0.070 C 
BRANCH  13  14
ATOM     14  C   UNL     1       0.935  -0.984   1.358  0.00  0.00    +0.026 C 
BRANCH  14  15
ATOM     15  C   UNL     1       1.036  -2.501   1.185  0.00  0.00    +0.037 C 
BRANCH  15  16
ATOM     16  C   UNL     1       1.779  -3.091   2.356  0.00  0.00    -0.047 A 
ATOM     17  C   UNL     1       3.155  -3.221   2.307  0.00  0.00    +0.003 A 
ATOM     18  C   UNL     1       3.836  -3.763   3.381  0.00  0.00    +0.000 A 
ATOM     19  C   UNL     1       3.142  -4.175   4.504  0.00  0.00    +0.000 A 
ATOM     20  C   UNL     1       1.767  -4.044   4.553  0.00  0.00    +0.000 A 
ATOM     21  C   UNL     1       1.086  -3.498   3.481  0.00  0.00    +0.003 A 
ENDBRANCH  15  16
ENDBRANCH  14  15
ENDBRANCH  13  14
ENDBRANCH   8  13
ENDBRANCH   1   9
BRANCH   5  22
ATOM     22  C   UNL     1      -4.393  -2.692  -2.835  0.00  0.00    +0.215 C 
ATOM     23  O   UNL     1      -4.266  -3.648  -2.100  0.00  0.00    -0.276 OA
ATOM     24  N   UNL     1      -4.952  -2.847  -4.051  0.00  0.00    -0.313 N 
ATOM     25  H   UNL     1      -5.054  -2.082  -4.639  0.00  0.00    +0.149 HD
BRANCH  24  26
ATOM     26  C   UNL     1      -5.406  -4.171  -4.486  0.00  0.00    +0.070 C 
ATOM     27  C   UNL     1      -6.822  -4.421  -3.965  0.00  0.00    +0.028 C 
BRANCH  26  28
ATOM     28  C   UNL     1      -5.406  -4.233  -6.014  0.00  0.00    +0.025 C 
BRANCH  28  29
ATOM     29  C   UNL     1      -3.971  -4.110  -6.530  0.00  0.00    -0.015 C 
ATOM     30  C   UNL     1      -3.165  -5.335  -6.094  0.00  0.00    +0.007 C 
ATOM     31  C   UNL     1      -3.983  -4.025  -8.058  0.00  0.00    +0.007 C 
ENDBRANCH  28  29
ENDBRANCH  26  28
ENDBRANCH  24  26
ENDBRANCH   5  22
TORSDOF 9
