REMARK  Name = ZINC45727551
REMARK  7 active torsions:
REMARK  status: ('A' for Active; 'I' for Inactive)
REMARK    1  A    between atoms: C_4  and  N_10
REMARK    2  A    between atoms: C_5  and  C_7
REMARK    3  A    between atoms: C_11  and  C_13
REMARK    4  A    between atoms: C_13  and  N_14
REMARK    5  A    between atoms: N_17  and  C_20
REMARK    6  A    between atoms: C_20  and  C_21
REMARK    7  A    between atoms: N_23  and  C_24
REMARK                            x       y       z     vdW  Elec       q    Type
REMARK                         _______ _______ _______ _____ _____    ______ ____
ROOT
ATOM      1  N   UNL     1       7.251   0.338  -0.434  0.00  0.00    +0.387 N 
ATOM      2  C   UNL     1       7.112   1.103  -1.681  0.00  0.00    -0.063 C 
ATOM      3  C   UNL     1       8.238   2.135  -1.774  0.00  0.00    +0.066 C 
ATOM      4  N   UNL     1       9.535   1.445  -1.745  0.00  0.00    -0.298 NA
ATOM      5  C   UNL     1       9.678   0.655  -0.513  0.00  0.00    +0.066 C 
ATOM      6  C   UNL     1       8.541  -0.365  -0.430  0.00  0.00    -0.063 C 
ATOM      7  H   UNL     1       7.209   0.968   0.353  0.00  0.00    -0.081 HD
ENDROOT
BRANCH   1   8
ATOM      8  C   UNL     1       6.160  -0.641  -0.336  0.00  0.00    +0.019 C 
BRANCH   8  10
ATOM      9  N   UNL     1       3.696  -0.614  -0.113  0.00  0.00    -0.286 N 
ATOM     10  C   UNL     1       4.844   0.085  -0.217  0.00  0.00    +0.201 C 
ATOM     11  O   UNL     1       4.818   1.297  -0.213  0.00  0.00    -0.278 OA
ATOM     12  H   UNL     1       3.722  -1.582  -0.050  0.00  0.00    +0.155 HD
BRANCH   9  16
ATOM     13  C   UNL     1       0.037   1.385  -0.064  0.00  0.00    +0.001 A 
ATOM     14  C   UNL     1       1.150   1.950   0.538  0.00  0.00    +0.002 A 
ATOM     15  C   UNL     1       2.362   1.290   0.523  0.00  0.00    +0.024 A 
ATOM     16  C   UNL     1       2.474   0.053  -0.097  0.00  0.00    +0.045 A 
ATOM     17  C   UNL     1       1.349  -0.522  -0.707  0.00  0.00    +0.058 A 
ATOM     18  C   UNL     1       0.129   0.158  -0.685  0.00  0.00    +0.015 A 
BRANCH  17  19
ATOM     19  C   UNL     1       1.454  -1.835  -1.370  0.00  0.00    +0.243 C 
ATOM     20  O   UNL     1       2.493  -2.465  -1.311  0.00  0.00    -0.270 OA
ATOM     21  N   UNL     1       0.399  -2.338  -2.041  0.00  0.00    -0.325 N 
ATOM     22  H   UNL     1      -0.429  -1.836  -2.088  0.00  0.00    +0.145 HD
ATOM     23  H   UNL     1       0.469  -3.202  -2.477  0.00  0.00    +0.145 HD
ENDBRANCH  17  19
ENDBRANCH   9  16
ENDBRANCH   8  10
ENDBRANCH   1   8
BRANCH   4  24
ATOM     24  C   UNL     1      10.643   2.399  -1.889  0.00  0.00    +0.180 C 
BRANCH  24  25
ATOM     25  C   UNL     1      11.931   1.645  -2.101  0.00  0.00    +0.231 C 
ATOM     26  O   UNL     1      11.927   0.433  -2.128  0.00  0.00    -0.274 OA
ATOM     27  N   UNL     1      13.087   2.319  -2.260  0.00  0.00    -0.283 N 
ATOM     28  H   UNL     1      13.082   3.288  -2.303  0.00  0.00    +0.155 HD
BRANCH  27  29
ATOM     29  C   UNL     1      14.296   1.620  -2.362  0.00  0.00    +0.052 A 
ATOM     30  C   UNL     1      14.335   0.387  -2.999  0.00  0.00    +0.025 A 
ATOM     31  C   UNL     1      15.529  -0.300  -3.099  0.00  0.00    +0.002 A 
ATOM     32  C   UNL     1      16.685   0.239  -2.564  0.00  0.00    +0.002 A 
ATOM     33  C   UNL     1      16.651   1.466  -1.929  0.00  0.00    +0.022 A 
ATOM     34  C   UNL     1      15.460   2.162  -1.831  0.00  0.00    +0.062 A 
ATOM     35 CL   UNL     1      15.418   3.706  -1.040  0.00  0.00    -0.082 Cl
ENDBRANCH  27  29
ENDBRANCH  24  25
ENDBRANCH   4  24
TORSDOF 7
