REMARK  Name = ZINC39978416
REMARK  11 active torsions:
REMARK  status: ('A' for Active; 'I' for Inactive)
REMARK    1  A    between atoms: C_3  and  O_10
REMARK    2  A    between atoms: C_6  and  C_7
REMARK    3  A    between atoms: C_7  and  C_8
REMARK    4  A    between atoms: O_10  and  C_11
REMARK    5  A    between atoms: C_11  and  C_12
REMARK    6  A    between atoms: C_12  and  C_14
REMARK    7  A    between atoms: C_12  and  O_29
REMARK    8  A    between atoms: C_14  and  N_15
REMARK    9  A    between atoms: N_15  and  C_16
REMARK   10  A    between atoms: C_16  and  C_17
REMARK   11  A    between atoms: C_17  and  N_23
REMARK                            x       y       z     vdW  Elec       q    Type
REMARK                         _______ _______ _______ _____ _____    ______ ____
ROOT
ATOM      1  N   UNL     1       9.886   0.636   0.831  0.00  0.00    +0.380 N 
ATOM      2  H   UNL     1       9.888   1.161   1.692  0.00  0.00    -0.086 HD
ATOM      3  H   UNL     1      10.768   0.157   0.727  0.00  0.00    -0.086 HD
ENDROOT
BRANCH   1   4
ATOM      4  C   UNL     1       8.796  -0.348   0.861  0.00  0.00    -0.048 C 
BRANCH   4   5
ATOM      5  C   UNL     1       9.001  -1.302   2.039  0.00  0.00    +0.135 C 
BRANCH   5   6
ATOM      6  O   UNL     1      10.251  -1.979   1.892  0.00  0.00    -0.390 OA
ATOM      7  H   UNL     1      10.320  -2.506   1.084  0.00  0.00    +0.210 HD
ENDBRANCH   5   6
BRANCH   5   8
ATOM      8  C   UNL     1       7.866  -2.327   2.070  0.00  0.00    +0.258 C 
BRANCH   8   9
ATOM      9  O   UNL     1       7.993  -3.144   3.236  0.00  0.00    -0.489 OA
BRANCH   9  12
ATOM     10  C   UNL     1       6.165  -5.925   4.707  0.00  0.00    +0.008 A 
ATOM     11  C   UNL     1       7.119  -4.941   4.526  0.00  0.00    +0.046 A 
ATOM     12  C   UNL     1       7.056  -4.112   3.416  0.00  0.00    +0.121 A 
ATOM     13  C   UNL     1       6.036  -4.273   2.489  0.00  0.00    +0.046 A 
ATOM     14  C   UNL     1       5.085  -5.257   2.675  0.00  0.00    +0.008 A 
ATOM     15  C   UNL     1       5.150  -6.083   3.782  0.00  0.00    -0.033 A 
BRANCH  15  16
ATOM     16  C   UNL     1       4.111  -7.157   3.982  0.00  0.00    +0.153 C 
BRANCH  16  17
ATOM     17  C   UNL     1       2.986  -6.612   4.759  0.00  0.00    +0.067 C 
ATOM     18  N   UNL     1       2.117  -6.193   5.359  0.00  0.00    -0.196 NA
ENDBRANCH  16  17
ENDBRANCH  15  16
ENDBRANCH   9  12
ENDBRANCH   8   9
ENDBRANCH   5   8
ENDBRANCH   4   5
ENDBRANCH   1   4
BRANCH   1  19
ATOM     19  C   UNL     1       9.689   1.551  -0.301  0.00  0.00    -0.095 C 
BRANCH  19  20
ATOM     20  C   UNL     1      10.768   2.635  -0.274  0.00  0.00    -0.081 C 
ATOM     21  C   UNL     1      10.487   3.663  -1.372  0.00  0.00    -0.014 C 
ATOM     22  C   UNL     1      10.497   2.967  -2.735  0.00  0.00    -0.001 C 
ATOM     23  C   UNL     1      11.867   2.329  -2.972  0.00  0.00    -0.000 C 
ATOM     24  C   UNL     1      12.149   1.302  -1.873  0.00  0.00    -0.001 C 
ATOM     25  C   UNL     1      12.138   1.998  -0.510  0.00  0.00    -0.014 C 
BRANCH  20  26
ATOM     26  N   UNL     1      10.758   3.303   1.035  0.00  0.00    +0.382 N 
ATOM     27  C   UNL     1       9.427   3.869   1.284  0.00  0.00    -0.078 C 
ATOM     28  C   UNL     1       9.388   4.495   2.679  0.00  0.00    -0.019 C 
ATOM     29  C   UNL     1      10.440   5.605   2.765  0.00  0.00    -0.004 C 
ATOM     30  C   UNL     1      11.815   5.018   2.431  0.00  0.00    -0.019 C 
ATOM     31  C   UNL     1      11.764   4.372   1.045  0.00  0.00    -0.078 C 
ATOM     32  H   UNL     1      10.976   2.631   1.756  0.00  0.00    -0.081 HD
ENDBRANCH  20  26
ENDBRANCH  19  20
ENDBRANCH   1  19
TORSDOF 11
