REMARK  Name = ZINC67142737
REMARK  7 active torsions:
REMARK  status: ('A' for Active; 'I' for Inactive)
REMARK    1  A    between atoms: C_2  and  C_3
REMARK    2  A    between atoms: C_7  and  N_9
REMARK    3  A    between atoms: C_10  and  C_12
REMARK    4  A    between atoms: C_12  and  C_13
REMARK    5  A    between atoms: C_13  and  C_14
REMARK    6  A    between atoms: C_14  and  C_15
REMARK    7  A    between atoms: C_15  and  C_16
REMARK                            x       y       z     vdW  Elec       q    Type
REMARK                         _______ _______ _______ _____ _____    ______ ____
ROOT
ATOM      1  C   UNL     1       3.307   7.864  -0.321  0.00  0.00    +0.009 C 
ENDROOT
BRANCH   1   2
ATOM      2  C   UNL     1       3.614   6.367  -0.232  0.00  0.00    +0.096 C 
BRANCH   2   4
ATOM      3  N   UNL     1       2.350   4.253  -0.009  0.00  0.00    -0.285 N 
ATOM      4  C   UNL     1       2.325   5.597  -0.104  0.00  0.00    +0.217 C 
ATOM      5  O   UNL     1       1.266   6.186  -0.085  0.00  0.00    -0.275 OA
ATOM      6  H   UNL     1       3.199   3.787   0.053  0.00  0.00    +0.155 HD
BRANCH   3  11
ATOM      7  C   UNL     1      -1.127   3.258  -0.721  0.00  0.00    +0.026 A 
ATOM      8  C   UNL     1      -1.216   2.082   0.025  0.00  0.00    +0.017 A 
ATOM      9  C   UNL     1      -0.128   1.639   0.749  0.00  0.00    +0.003 A 
ATOM     10  C   UNL     1       1.054   2.357   0.738  0.00  0.00    +0.023 A 
ATOM     11  C   UNL     1       1.153   3.529  -0.002  0.00  0.00    +0.035 A 
ATOM     12  C   UNL     1       0.066   3.979  -0.736  0.00  0.00    +0.040 A 
BRANCH   7  14
ATOM     13  C   UNL     1      -3.180   4.098  -2.089  0.00  0.00    +0.009 C 
ATOM     14  C   UNL     1      -2.255   3.720  -1.472  0.00  0.00    -0.070 C 
ENDBRANCH   7  14
ENDBRANCH   3  11
ENDBRANCH   2   4
ENDBRANCH   1   2
BRANCH   1  15
ATOM     15  C   UNL     1       4.616   8.646  -0.451  0.00  0.00    +0.002 C 
BRANCH  15  16
ATOM     16  C   UNL     1       4.309  10.142  -0.540  0.00  0.00    +0.016 C 
BRANCH  16  17
ATOM     17  C   UNL     1       5.617  10.924  -0.670  0.00  0.00    +0.069 C 
ATOM     18  C   UNL     1       5.346  12.438  -0.806  0.00  0.00    +0.108 C 
ATOM     19  C   UNL     1       6.344  13.313  -0.041  0.00  0.00    +0.105 C 
ATOM     20  C   UNL     1       7.428  12.507   0.707  0.00  0.00    +0.093 C 
ATOM     21  S   UNL     1       6.583  10.865   0.901  0.00  0.00    -0.154 S 
ATOM     22  N   UNL     1       6.992  14.117  -1.089  0.00  0.00    -0.294 N 
ATOM     23  C   UNL     1       6.472  13.784  -2.278  0.00  0.00    +0.300 C 
ATOM     24  O   UNL     1       6.826  14.295  -3.323  0.00  0.00    -0.253 OA
ATOM     25  N   UNL     1       5.538  12.837  -2.209  0.00  0.00    -0.294 N 
ATOM     26  H   UNL     1       7.683  14.782  -0.943  0.00  0.00    +0.151 HD
ATOM     27  H   UNL     1       5.059  12.471  -2.969  0.00  0.00    +0.151 HD
ENDBRANCH  16  17
ENDBRANCH  15  16
ENDBRANCH   1  15
TORSDOF 7
