REMARK  Name = ZINC09265142
REMARK  4 active torsions:
REMARK  status: ('A' for Active; 'I' for Inactive)
REMARK    1  A    between atoms: C_7  and  N_23
REMARK    2  A    between atoms: C_8  and  C_10
REMARK    3  A    between atoms: N_15  and  C_18
REMARK    4  A    between atoms: C_24  and  C_26
REMARK                            x       y       z     vdW  Elec       q    Type
REMARK                         _______ _______ _______ _____ _____    ______ ____
ROOT
ATOM      1  C   UNL     1      -0.062   1.229   0.862  0.00  0.00    +0.001 A 
ATOM      2  C   UNL     1      -1.269   1.898   0.713  0.00  0.00    +0.004 A 
ATOM      3  C   UNL     1      -1.297   3.229   0.357  0.00  0.00    +0.047 A 
ATOM      4  C   UNL     1      -0.106   3.911   0.132  0.00  0.00    +0.138 A 
ATOM      5  C   UNL     1       1.113   3.226   0.279  0.00  0.00    +0.042 A 
ATOM      6  C   UNL     1       1.120   1.879   0.646  0.00  0.00    +0.013 A 
ATOM      7  C   UNL     1       2.162   4.207  -0.023  0.00  0.00    +0.092 A 
ATOM      8  C   UNL     1       1.510   5.372  -0.319  0.00  0.00    +0.212 A 
ATOM      9  O   UNL     1       0.175   5.180  -0.223  0.00  0.00    -0.448 OA
ENDROOT
BRANCH   8  10
ATOM     10  C   UNL     1       2.156   6.632  -0.684  0.00  0.00    +0.284 C 
ATOM     11  O   UNL     1       2.544   7.391   0.185  0.00  0.00    -0.267 OA
ATOM     12  N   UNL     1       2.324   6.952  -1.982  0.00  0.00    -0.292 N 
ATOM     13  C   UNL     1       1.980   5.996  -3.046  0.00  0.00    +0.127 C 
ATOM     14  C   UNL     1       1.069   6.708  -4.058  0.00  0.00    +0.125 C 
ATOM     15  N   UNL     1       1.725   7.939  -4.519  0.00  0.00    -0.314 N 
ATOM     16  C   UNL     1       1.919   8.885  -3.412  0.00  0.00    +0.125 C 
ATOM     17  C   UNL     1       2.860   8.265  -2.373  0.00  0.00    +0.127 C 
BRANCH  15  18
ATOM     18  C   UNL     1       1.010   8.526  -5.556  0.00  0.00    +0.099 A 
ATOM     19  C   UNL     1       0.723   7.788  -6.700  0.00  0.00    +0.042 A 
ATOM     20  C   UNL     1       0.011   8.384  -7.724  0.00  0.00    +0.005 A 
ATOM     21  C   UNL     1      -0.391   9.705  -7.571  0.00  0.00    +0.018 A 
ATOM     22  C   UNL     1      -0.071  10.378  -6.409  0.00  0.00    +0.084 A 
ATOM     23  N   UNL     1       0.621   9.822  -5.379  0.00  0.00    -0.350 N 
ATOM     24  H   UNL     1       0.837  10.344  -4.522  0.00  0.00    +0.166 HD
ENDBRANCH  15  18
ENDBRANCH   8  10
BRANCH   7  25
ATOM     25  N   UNL     1       3.536   3.996  -0.011  0.00  0.00    -0.282 N 
ATOM     26  C   UNL     1       4.029   2.760  -0.225  0.00  0.00    +0.220 C 
ATOM     27  O   UNL     1       3.279   1.846  -0.496  0.00  0.00    -0.275 OA
ATOM     28  H   UNL     1       4.139   4.738   0.152  0.00  0.00    +0.155 HD
BRANCH  26  29
ATOM     29  C   UNL     1       5.513   2.514  -0.129  0.00  0.00    +0.075 C 
ATOM     30  C   UNL     1       6.255   3.334  -1.204  0.00  0.00    +0.013 C 
ATOM     31  C   UNL     1       7.406   2.405  -1.664  0.00  0.00    +0.001 C 
ATOM     32  C   UNL     1       6.740   1.006  -1.653  0.00  0.00    +0.001 C 
ATOM     33  C   UNL     1       5.821   1.034  -0.415  0.00  0.00    +0.013 C 
ENDBRANCH  26  29
ENDBRANCH   7  25
TORSDOF 4
