REMARK  Name = ZINC39689564
REMARK  9 active torsions:
REMARK  status: ('A' for Active; 'I' for Inactive)
REMARK    1  A    between atoms: C_1  and  C_2
REMARK    2  A    between atoms: C_2  and  C_3
REMARK    3  A    between atoms: C_3  and  C_4
REMARK    4  A    between atoms: C_4  and  C_6
REMARK    5  A    between atoms: C_4  and  C_7
REMARK    6  A    between atoms: C_11  and  C_20
REMARK    7  A    between atoms: N_22  and  C_23
REMARK    8  A    between atoms: C_23  and  C_24
REMARK    9  A    between atoms: N_28  and  C_30
REMARK                            x       y       z     vdW  Elec       q    Type
REMARK                         _______ _______ _______ _____ _____    ______ ____
ROOT
ATOM      1  C   UNL     1      -2.990  -2.822  -0.284  0.00  0.00    +0.218 C 
ATOM      2  O   UNL     1      -3.965  -2.133  -0.499  0.00  0.00    -0.275 OA
ATOM      3  N   UNL     1      -3.131  -4.150  -0.101  0.00  0.00    -0.300 N 
ATOM      4  C   UNL     1      -2.086  -5.130   0.278  0.00  0.00    +0.121 C 
ATOM      5  C   UNL     1      -2.791  -6.091   1.262  0.00  0.00    +0.100 C 
ATOM      6  C   UNL     1      -4.286  -5.976   0.920  0.00  0.00    -0.004 C 
ATOM      7  C   UNL     1      -4.367  -4.959  -0.227  0.00  0.00    +0.115 C 
ATOM      8  C   UNL     1      -5.066  -5.463   2.127  0.00  0.00    -0.010 C 
ATOM      9  C   UNL     1      -6.556  -5.412   1.781  0.00  0.00    -0.082 C 
ATOM     10  N   UNL     1      -7.021  -6.753   1.407  0.00  0.00    +0.379 N 
ATOM     11  C   UNL     1      -6.331  -7.200   0.191  0.00  0.00    -0.082 C 
ATOM     12  C   UNL     1      -4.831  -7.327   0.469  0.00  0.00    -0.010 C 
ATOM     13  H   UNL     1      -6.825  -7.397   2.159  0.00  0.00    -0.086 HD
ATOM     14  H   UNL     1      -8.015  -6.729   1.238  0.00  0.00    -0.086 HD
ENDROOT
BRANCH   5  15
ATOM     15  C   UNL     1      -2.309  -7.503   1.052  0.00  0.00    +0.218 C 
ATOM     16  O   UNL     1      -1.933  -7.859  -0.044  0.00  0.00    -0.275 OA
ATOM     17  N   UNL     1      -2.296  -8.371   2.083  0.00  0.00    -0.315 N 
ATOM     18  H   UNL     1      -2.597  -8.087   2.961  0.00  0.00    +0.149 HD
BRANCH  17  19
ATOM     19  C   UNL     1      -1.829  -9.744   1.879  0.00  0.00    +0.105 C 
BRANCH  19  20
ATOM     20  C   UNL     1      -1.916 -10.514   3.199  0.00  0.00    -0.012 C 
ATOM     21  C   UNL     1      -0.865  -9.996   4.215  0.00  0.00    -0.016 C 
ATOM     22  C   UNL     1      -0.622 -11.222   5.120  0.00  0.00    -0.079 C 
ATOM     23  N   UNL     1      -1.019 -12.417   4.353  0.00  0.00    +0.378 N 
ATOM     24  C   UNL     1      -1.472 -11.987   3.012  0.00  0.00    -0.074 C 
ATOM     25  C   UNL     1       0.130 -13.323   4.220  0.00  0.00    -0.096 C 
ATOM     26  H   UNL     1      -1.771 -12.892   4.829  0.00  0.00    -0.082 HD
ENDBRANCH  19  20
ENDBRANCH  17  19
ENDBRANCH   5  15
BRANCH   1  27
ATOM     27  C   UNL     1      -1.622  -2.194  -0.221  0.00  0.00    +0.072 C 
ATOM     28  C   UNL     1      -1.330  -1.750   1.214  0.00  0.00    +0.017 C 
BRANCH  27  29
ATOM     29  C   UNL     1      -1.575  -0.979  -1.149  0.00  0.00    +0.012 C 
BRANCH  29  31
ATOM     30  C   UNL     1      -0.107   0.800  -2.110  0.00  0.00    +0.004 C 
ATOM     31  C   UNL     1      -0.153  -0.415  -1.181  0.00  0.00    -0.003 C 
ENDBRANCH  29  31
ENDBRANCH  27  29
ENDBRANCH   1  27
TORSDOF 6
