REMARK  Name = ZINC40458956
REMARK  9 active torsions:
REMARK  status: ('A' for Active; 'I' for Inactive)
REMARK    1  A    between atoms: C_1  and  C_2
REMARK    2  A    between atoms: C_6  and  C_18
REMARK    3  A    between atoms: C_7  and  N_8
REMARK    4  A    between atoms: C_9  and  C_11
REMARK    5  A    between atoms: C_11  and  C_13
REMARK    6  A    between atoms: C_11  and  N_17
REMARK    7  A    between atoms: C_13  and  C_14
REMARK    8  A    between atoms: C_13  and  C_15
REMARK    9  A    between atoms: C_13  and  C_16
REMARK                            x       y       z     vdW  Elec       q    Type
REMARK                         _______ _______ _______ _____ _____    ______ ____
ROOT
ATOM      1  N   UNL     1       0.065   0.015   2.414  0.00  0.00    -0.286 N 
ATOM      2  C   UNL     1      -0.095  -0.651   3.575  0.00  0.00    +0.203 C 
ATOM      3  O   UNL     1      -0.165  -1.861   3.575  0.00  0.00    -0.277 OA
ATOM      4  H   UNL     1       0.191   0.977   2.419  0.00  0.00    +0.155 HD
ENDROOT
BRANCH   1  11
ATOM      5  C   UNL     1       2.531  -0.344   1.040  0.00  0.00    +0.046 C 
ATOM      6  C   UNL     1       1.232  -0.879   0.497  0.00  0.00    -0.028 A 
ATOM      7  C   UNL     1       1.215  -1.572  -0.698  0.00  0.00    +0.020 A 
ATOM      8  C   UNL     1       0.022  -2.065  -1.197  0.00  0.00    +0.018 A 
ATOM      9  C   UNL     1      -1.157  -1.865  -0.501  0.00  0.00    +0.020 A 
ATOM     10  C   UNL     1      -1.146  -1.172   0.694  0.00  0.00    -0.028 A 
ATOM     11  C   UNL     1       0.051  -0.682   1.200  0.00  0.00    +0.039 A 
ATOM     12  C   UNL     1      -2.431  -0.954   1.450  0.00  0.00    +0.046 C 
ATOM     13 BR   UNL     1       0.004  -3.013  -2.833  0.00  0.00    -0.050 Br
ENDBRANCH   1  11
BRANCH   2  14
ATOM     14  C   UNL     1      -0.186   0.110   4.873  0.00  0.00    +0.019 C 
BRANCH  14  15
ATOM     15  C   UNL     1       1.219   0.500   5.335  0.00  0.00    -0.042 C 
ATOM     16  C   UNL     1       1.879   1.382   4.272  0.00  0.00    +0.009 C 
ATOM     17  C   UNL     1       1.127   1.272   6.652  0.00  0.00    +0.009 C 
ATOM     18  C   UNL     1       2.058  -0.762   5.541  0.00  0.00    +0.009 C 
ENDBRANCH  14  15
BRANCH  14  19
ATOM     19  N   UNL     1      -0.819  -0.737   5.893  0.00  0.00    +0.386 N 
ATOM     20  H   UNL     1      -0.266  -1.570   6.029  0.00  0.00    -0.089 HD
ATOM     21  H   UNL     1      -0.880  -0.228   6.762  0.00  0.00    -0.089 HD
ATOM     22  H   UNL     1      -1.746  -0.995   5.588  0.00  0.00    -0.089 HD
ENDBRANCH  14  19
ENDBRANCH   2  14
TORSDOF 4
