REMARK  Name = ZINC63180891
REMARK  5 active torsions:
REMARK  status: ('A' for Active; 'I' for Inactive)
REMARK    1  A    between atoms: C_1  and  C_2
REMARK    2  A    between atoms: C_9  and  C_11
REMARK    3  A    between atoms: C_11  and  C_12
REMARK    4  A    between atoms: C_12  and  C_13
REMARK    5  A    between atoms: C_21  and  C_23
REMARK                            x       y       z     vdW  Elec       q    Type
REMARK                         _______ _______ _______ _____ _____    ______ ____
ROOT
ATOM      1  C   UNL     1      -3.708  -5.081   6.211  0.00  0.00    -0.034 C 
ATOM      2  C   UNL     1      -2.758  -5.296   7.149  0.00  0.00    +0.002 A 
ATOM      3  C   UNL     1      -1.363  -4.856   7.270  0.00  0.00    +0.048 A 
ATOM      4  C   UNL     1      -0.644  -5.242   8.351  0.00  0.00    +0.124 A 
ATOM      5  C   UNL     1      -1.200  -6.050   9.356  0.00  0.00    +0.040 A 
ATOM      6  C   UNL     1      -2.474  -6.493   9.313  0.00  0.00    +0.029 A 
ATOM      7  C   UNL     1      -3.320  -6.147   8.222  0.00  0.00    +0.043 A 
ATOM      8  N   UNL     1      -4.568  -6.447   7.957  0.00  0.00    -0.374 N 
ATOM      9  C   UNL     1      -4.942  -5.814   6.688  0.00  0.00    +0.137 C 
ATOM     10  F   UNL     1       0.640  -4.839   8.466  0.00  0.00    -0.205 F 
ATOM     11  H   UNL     1      -5.148  -6.994   8.510  0.00  0.00    +0.161 HD
ENDROOT
BRANCH   9  12
ATOM     12  C   UNL     1      -5.342  -6.864   5.685  0.00  0.00    -0.021 A 
ATOM     13  C   UNL     1      -4.688  -8.082   5.660  0.00  0.00    +0.006 A 
ATOM     14  C   UNL     1      -5.056  -9.046   4.740  0.00  0.00    +0.000 A 
ATOM     15  C   UNL     1      -6.078  -8.792   3.844  0.00  0.00    +0.000 A 
ATOM     16  C   UNL     1      -6.732  -7.575   3.869  0.00  0.00    +0.000 A 
ATOM     17  C   UNL     1      -6.368  -6.613   4.793  0.00  0.00    +0.006 A 
ENDBRANCH   9  12
BRANCH   1  18
ATOM     18  C   UNL     1      -3.567  -4.270   4.948  0.00  0.00    +0.043 C 
BRANCH  18  19
ATOM     19  C   UNL     1      -2.148  -3.705   4.861  0.00  0.00    +0.100 C 
BRANCH  19  27
ATOM     20  C   UNL     1      -0.019   1.526   0.010  0.00  0.00    +0.041 C 
ATOM     21  C   UNL     1       0.002  -0.004   0.002  0.00  0.00    +0.151 C 
ATOM     22  N   UNL     1      -1.365  -0.562   0.110  0.00  0.00    -0.254 N 
ATOM     23  N   UNL     1      -1.601  -1.323   1.233  0.00  0.00    -0.163 NA
ATOM     24  C   UNL     1      -0.704  -1.548   2.143  0.00  0.00    +0.179 C 
ATOM     25  S   UNL     1       0.737  -0.673   1.551  0.00  0.00    -0.065 S 
ATOM     26  N   UNL     1      -0.834  -2.296   3.309  0.00  0.00    -0.264 N 
ATOM     27  C   UNL     1      -2.007  -2.894   3.598  0.00  0.00    +0.219 C 
ATOM     28  O   UNL     1      -2.949  -2.780   2.843  0.00  0.00    -0.275 OA
ATOM     29  H   UNL     1      -2.046  -0.403  -0.562  0.00  0.00    +0.169 HD
ATOM     30  H   UNL     1      -0.081  -2.388   3.913  0.00  0.00    +0.157 HD
ENDBRANCH  19  27
ENDBRANCH  18  19
ENDBRANCH   1  18
TORSDOF 4
