REMARK  Name = ZINC63383685
REMARK  7 active torsions:
REMARK  status: ('A' for Active; 'I' for Inactive)
REMARK    1  A    between atoms: C_1  and  C_2
REMARK    2  A    between atoms: C_2  and  C_4
REMARK    3  A    between atoms: C_2  and  N_15
REMARK    4  A    between atoms: N_6  and  C_7
REMARK    5  A    between atoms: C_7  and  C_8
REMARK    6  A    between atoms: C_8  and  C_9
REMARK    7  A    between atoms: C_16  and  C_18
REMARK                            x       y       z     vdW  Elec       q    Type
REMARK                         _______ _______ _______ _____ _____    ______ ____
ROOT
ATOM      1  C   UNL     1      -3.465  -1.164  -1.134  0.00  0.00    +0.167 C 
ATOM      2  C   UNL     1      -3.490  -2.587  -0.543  0.00  0.00    +0.065 C 
ATOM      3  C   UNL     1      -3.974  -3.510  -1.634  0.00  0.00    -0.034 C 
ATOM      4  C   UNL     1      -4.945  -4.418  -1.628  0.00  0.00    -0.001 A 
ATOM      5  C   UNL     1      -5.817  -4.910  -0.549  0.00  0.00    +0.010 A 
ATOM      6  C   UNL     1      -6.732  -5.851  -0.901  0.00  0.00    +0.001 A 
ATOM      7  C   UNL     1      -6.866  -6.346  -2.201  0.00  0.00    +0.002 A 
ATOM      8  C   UNL     1      -6.102  -5.957  -3.253  0.00  0.00    +0.026 A 
ATOM      9  C   UNL     1      -5.099  -4.974  -3.006  0.00  0.00    +0.043 A 
ATOM     10  N   UNL     1      -4.228  -4.441  -3.811  0.00  0.00    -0.375 N 
ATOM     11  C   UNL     1      -3.384  -3.529  -3.038  0.00  0.00    +0.131 C 
ATOM     12  C   UNL     1      -3.441  -2.100  -3.574  0.00  0.00    +0.134 C 
ATOM     13  N   UNL     1      -3.979  -1.230  -2.508  0.00  0.00    -0.276 N 
ATOM     14  C   UNL     1      -5.019  -0.533  -3.006  0.00  0.00    +0.248 C 
ATOM     15  O   UNL     1      -5.603   0.359  -2.423  0.00  0.00    -0.270 OA
ATOM     16  C   UNL     1      -5.341  -1.008  -4.353  0.00  0.00    +0.042 A 
ATOM     17  C   UNL     1      -4.369  -1.985  -4.738  0.00  0.00    -0.013 A 
ATOM     18  C   UNL     1      -4.397  -2.622  -5.959  0.00  0.00    +0.006 A 
ATOM     19  C   UNL     1      -5.418  -2.265  -6.835  0.00  0.00    +0.000 A 
ATOM     20  C   UNL     1      -6.362  -1.315  -6.503  0.00  0.00    +0.001 A 
ATOM     21  C   UNL     1      -6.370  -0.646  -5.226  0.00  0.00    +0.013 A 
ATOM     22  H   UNL     1      -4.151  -4.617  -4.762  0.00  0.00    +0.160 HD
ENDROOT
BRANCH   1  24
ATOM     23  N   UNL     1      -1.372  -0.511   0.012  0.00  0.00    -0.303 N 
ATOM     24  C   UNL     1      -2.051  -0.643  -1.145  0.00  0.00    +0.234 C 
ATOM     25  O   UNL     1      -1.524  -0.341  -2.194  0.00  0.00    -0.274 OA
ATOM     26  H   UNL     1      -1.794  -0.752   0.852  0.00  0.00    +0.149 HD
BRANCH  23  28
ATOM     27  C   UNL     1      -0.019   1.526   0.010  0.00  0.00    +0.038 C 
ATOM     28  C   UNL     1       0.002  -0.004   0.002  0.00  0.00    +0.156 C 
BRANCH  28  29
ATOM     29  C   UNL     1       0.731  -0.503   1.223  0.00  0.00    +0.233 C 
ATOM     30  O   UNL     1       0.159  -1.213   2.023  0.00  0.00    -0.274 OA
ATOM     31  N   UNL     1       2.019  -0.161   1.426  0.00  0.00    -0.313 N 
ATOM     32  H   UNL     1       2.476   0.406   0.786  0.00  0.00    +0.149 HD
BRANCH  31  33
ATOM     33  C   UNL     1       2.727  -0.647   2.613  0.00  0.00    +0.108 C 
BRANCH  33  34
ATOM     34  C   UNL     1       4.163  -0.117   2.602  0.00  0.00    +0.049 C 
BRANCH  34  35
ATOM     35  C   UNL     1       4.891  -0.616   3.823  0.00  0.00    -0.072 C 
ATOM     36  C   UNL     1       5.607  -1.688   3.706  0.00  0.00    -0.028 C 
ATOM     37  C   UNL     1       6.380  -2.311   4.832  0.00  0.00    +0.027 C 
ATOM     38  C   UNL     1       6.549  -1.305   5.973  0.00  0.00    +0.004 C 
ATOM     39  C   UNL     1       5.178  -0.694   6.290  0.00  0.00    +0.005 C 
ATOM     40  C   UNL     1       4.747   0.164   5.096  0.00  0.00    +0.030 C 
ENDBRANCH  34  35
ENDBRANCH  33  34
ENDBRANCH  31  33
ENDBRANCH  28  29
ENDBRANCH  23  28
ENDBRANCH   1  24
TORSDOF 6
