REMARK  Name = ZINC09172262
REMARK  5 active torsions:
REMARK  status: ('A' for Active; 'I' for Inactive)
REMARK    1  A    between atoms: C_8  and  C_11
REMARK    2  A    between atoms: N_13  and  C_14
REMARK    3  A    between atoms: C_14  and  C_15
REMARK    4  A    between atoms: C_18  and  C_21
REMARK    5  A    between atoms: N_23  and  C_24
REMARK                            x       y       z     vdW  Elec       q    Type
REMARK                         _______ _______ _______ _____ _____    ______ ____
ROOT
ATOM      1  C   UNL     1      -3.220   3.958  -1.193  0.00  0.00    +0.006 C 
ATOM      2  C   UNL     1      -2.408   4.334   0.048  0.00  0.00    +0.006 C 
ATOM      3  C   UNL     1      -1.073   3.587   0.029  0.00  0.00    +0.013 C 
ATOM      4  C   UNL     1      -1.332   2.079   0.026  0.00  0.00    +0.075 C 
ATOM      5  C   UNL     1      -2.144   1.703  -1.215  0.00  0.00    +0.013 C 
ATOM      6  C   UNL     1      -3.479   2.450  -1.196  0.00  0.00    +0.006 C 
ENDROOT
BRANCH   4   7
ATOM      7  C   UNL     1      -0.016   1.344   0.007  0.00  0.00    +0.220 C 
ATOM      8  O   UNL     1       1.026   1.964  -0.008  0.00  0.00    -0.275 OA
ATOM      9  N   UNL     1       0.002  -0.004   0.002  0.00  0.00    -0.285 N 
ATOM     10  H   UNL     1      -0.827  -0.501   0.082  0.00  0.00    +0.155 HD
BRANCH   9  11
ATOM     11  C   UNL     1       1.219  -0.688  -0.119  0.00  0.00    +0.037 A 
ATOM     12  C   UNL     1       2.367  -0.169   0.465  0.00  0.00    +0.027 A 
ATOM     13  C   UNL     1       3.568  -0.842   0.346  0.00  0.00    +0.051 A 
ATOM     14  C   UNL     1       3.631  -2.035  -0.356  0.00  0.00    +0.166 A 
ATOM     15  C   UNL     1       2.480  -2.558  -0.942  0.00  0.00    +0.168 A 
ATOM     16  C   UNL     1       1.276  -1.886  -0.818  0.00  0.00    +0.072 A 
ATOM     17  O   UNL     1       2.802  -3.728  -1.567  0.00  0.00    -0.453 OA
ATOM     18  C   UNL     1       4.071  -4.124  -1.014  0.00  0.00    +0.466 C 
ATOM     19  O   UNL     1       4.673  -2.879  -0.614  0.00  0.00    -0.453 OA
ENDBRANCH   9  11
ENDBRANCH   4   7
BRANCH   1  20
ATOM     20  C   UNL     1      -4.555   4.705  -1.174  0.00  0.00    +0.107 C 
BRANCH  20  23
ATOM     21  C   UNL     1      -6.492   4.995  -2.625  0.00  0.00    +0.199 C 
ATOM     22  O   UNL     1      -6.979   5.716  -1.780  0.00  0.00    -0.278 OA
ATOM     23  N   UNL     1      -5.282   4.438  -2.418  0.00  0.00    -0.316 N 
ATOM     24  H   UNL     1      -4.891   3.861  -3.093  0.00  0.00    +0.149 HD
BRANCH  21  32
ATOM     25  C   UNL     1     -10.180   1.696  -6.335  0.00  0.00    +0.000 A 
ATOM     26  C   UNL     1     -10.604   2.769  -7.097  0.00  0.00    +0.000 A 
ATOM     27  C   UNL     1     -10.158   4.041  -6.800  0.00  0.00    +0.002 A 
ATOM     28  C   UNL     1      -9.287   4.250  -5.741  0.00  0.00    -0.061 A 
ATOM     29  C   UNL     1      -8.867   3.180  -4.980  0.00  0.00    -0.047 A 
ATOM     30  C   UNL     1      -9.314   1.903  -5.280  0.00  0.00    +0.004 A 
ATOM     31  C   UNL     1      -7.925   3.358  -3.817  0.00  0.00    +0.028 C 
ATOM     32  C   UNL     1      -7.238   4.721  -3.905  0.00  0.00    +0.021 C 
ATOM     33  C   UNL     1      -8.825   5.656  -5.459  0.00  0.00    -0.045 C 
ATOM     34  N   UNL     1      -8.271   5.756  -4.102  0.00  0.00    +0.389 N 
ATOM     35  H   UNL     1      -7.852   6.684  -3.973  0.00  0.00    -0.084 HD
ATOM     36  H   UNL     1      -9.023   5.621  -3.416  0.00  0.00    -0.084 HD
ENDBRANCH  21  32
ENDBRANCH  20  23
ENDBRANCH   1  20
TORSDOF 5
