REMARK  Name = ZINC13145764
REMARK  9 active torsions:
REMARK  status: ('A' for Active; 'I' for Inactive)
REMARK    1  A    between atoms: C_1  and  N_56
REMARK    2  A    between atoms: C_4  and  N_7
REMARK    3  A    between atoms: N_7  and  C_8
REMARK    4  A    between atoms: N_7  and  S_9
REMARK    5  A    between atoms: S_9  and  C_12
REMARK    6  A    between atoms: C_15  and  N_18
REMARK    7  A    between atoms: C_19  and  C_21
REMARK    8  A    between atoms: C_26  and  O_27
REMARK    9  A    between atoms: O_27  and  C_28
REMARK                            x       y       z     vdW  Elec       q    Type
REMARK                         _______ _______ _______ _____ _____    ______ ____
ROOT
ATOM      1  C   UNL     1       2.402   0.042  -0.038  0.00  0.00    +0.106 A 
ATOM      2  C   UNL     1       1.216  -0.669  -0.023  0.00  0.00    +0.030 A 
ATOM      3  C   UNL     1       0.008  -0.000  -0.002  0.00  0.00    +0.025 A 
ATOM      4  C   UNL     1      -0.015   1.389   0.004  0.00  0.00    +0.034 A 
ATOM      5  C   UNL     1       1.178   2.100  -0.012  0.00  0.00    +0.025 A 
ATOM      6  C   UNL     1       2.383   1.425  -0.033  0.00  0.00    +0.030 A 
ENDROOT
BRANCH   4   7
ATOM      7  N   UNL     1      -1.236   2.069   0.019  0.00  0.00    -0.281 N 
ATOM      8  C   UNL     1      -1.353   3.229   0.696  0.00  0.00    +0.252 C 
ATOM      9  O   UNL     1      -0.376   3.727   1.221  0.00  0.00    -0.270 OA
ATOM     10  H   UNL     1      -2.000   1.706  -0.457  0.00  0.00    +0.155 HD
BRANCH   8  11
ATOM     11  C   UNL     1      -2.666   3.894   0.798  0.00  0.00    +0.082 A 
ATOM     12  C   UNL     1      -3.791   3.325   0.195  0.00  0.00    +0.036 A 
ATOM     13  C   UNL     1      -5.015   3.951   0.295  0.00  0.00    +0.043 A 
ATOM     14  C   UNL     1      -5.136   5.144   0.991  0.00  0.00    +0.043 A 
ATOM     15  C   UNL     1      -4.031   5.717   1.591  0.00  0.00    +0.085 A 
ATOM     16  C   UNL     1      -2.792   5.097   1.505  0.00  0.00    +0.157 A 
ATOM     17 CL   UNL     1      -4.195   7.210   2.462  0.00  0.00    -0.080 Cl
ATOM     18 CL   UNL     1      -6.412   3.243  -0.455  0.00  0.00    -0.083 Cl
BRANCH  16  19
ATOM     19  O   UNL     1      -1.708   5.656   2.099  0.00  0.00    -0.432 OA
BRANCH  19  20
ATOM     20  C   UNL     1      -0.942   6.575   1.317  0.00  0.00    +0.541 C 
ATOM     21  F   UNL     1      -0.455   5.926   0.178  0.00  0.00    -0.166 F 
ATOM     22  F   UNL     1      -1.754   7.647   0.931  0.00  0.00    -0.166 F 
ENDBRANCH  19  20
ENDBRANCH  16  19
ENDBRANCH   8  11
ENDBRANCH   4   7
BRANCH   1  23
ATOM     23  S   UNL     1       3.941  -0.815  -0.065  0.00  0.00    +0.061 S 
ATOM     24  O   UNL     1       4.910   0.073   0.474  0.00  0.00    -0.153 OA
ATOM     25  O   UNL     1       3.699  -2.103   0.484  0.00  0.00    -0.153 OA
BRANCH  23  26
ATOM     26  N   UNL     1       4.345  -1.047  -1.655  0.00  0.00    -0.177 NA
ATOM     27  C   UNL     1       3.906  -2.258  -2.353  0.00  0.00    +0.132 C 
BRANCH  26  31
ATOM     28  C   UNL     1       7.229   1.728  -5.647  0.00  0.00    -0.096 C 
ATOM     29  C   UNL     1       7.242   0.363  -3.648  0.00  0.00    -0.078 C 
ATOM     30  C   UNL     1       6.444  -0.675  -2.857  0.00  0.00    +0.002 C 
ATOM     31  C   UNL     1       5.141  -0.041  -2.363  0.00  0.00    +0.076 C 
ATOM     32  C   UNL     1       4.350   0.484  -3.564  0.00  0.00    +0.002 C 
ATOM     33  C   UNL     1       5.209   1.489  -4.335  0.00  0.00    -0.078 C 
ATOM     34  N   UNL     1       6.436   0.810  -4.804  0.00  0.00    +0.378 N 
ATOM     35  H   UNL     1       6.170  -0.009  -5.362  0.00  0.00    -0.082 HD
ENDBRANCH  26  31
ENDBRANCH  23  26
ENDBRANCH   1  23
TORSDOF 7
