REMARK  Name = ZINC12641137
REMARK  6 active torsions:
REMARK  status: ('A' for Active; 'I' for Inactive)
REMARK    1  A    between atoms: C_6  and  C_7
REMARK    2  A    between atoms: C_7  and  C_8
REMARK    3  A    between atoms: C_8  and  N_9
REMARK    4  A    between atoms: C_10  and  C_12
REMARK    5  A    between atoms: C_15  and  N_21
REMARK    6  A    between atoms: C_16  and  N_18
REMARK                            x       y       z     vdW  Elec       q    Type
REMARK                         _______ _______ _______ _____ _____    ______ ____
ROOT
ATOM      1  N   UNL     1       5.145  -2.326  -1.469  0.00  0.00    -0.311 N 
ATOM      2  C   UNL     1       5.778  -2.453  -2.652  0.00  0.00    +0.244 C 
ATOM      3  O   UNL     1       5.203  -2.163  -3.683  0.00  0.00    -0.270 OA
ATOM      4  H   UNL     1       5.604  -2.558  -0.646  0.00  0.00    +0.149 HD
ENDROOT
BRANCH   2   5
ATOM      5  C   UNL     1       7.168  -2.946  -2.696  0.00  0.00    +0.039 A 
ATOM      6  C   UNL     1       7.832  -3.275  -1.511  0.00  0.00    +0.015 A 
ATOM      7  C   UNL     1       9.127  -3.740  -1.555  0.00  0.00    +0.026 A 
ATOM      8  C   UNL     1       9.779  -3.871  -2.778  0.00  0.00    +0.055 A 
ATOM      9  C   UNL     1       9.122  -3.538  -3.960  0.00  0.00    +0.147 A 
ATOM     10  C   UNL     1       7.825  -3.079  -3.922  0.00  0.00    +0.047 A 
BRANCH   9  11
ATOM     11  N   UNL     1       9.819  -3.679  -5.258  0.00  0.00    +0.058 N 
ATOM     12  O   UNL     1       9.289  -3.284  -6.280  0.00  0.00    -0.126 OA
ATOM     13  O   UNL     1      10.924  -4.191  -5.304  0.00  0.00    -0.126 OA
ENDBRANCH   9  11
BRANCH   8  14
ATOM     14  N   UNL     1      11.089  -4.335  -2.820  0.00  0.00    -0.356 N 
ATOM     15  H   UNL     1      11.663  -4.100  -3.565  0.00  0.00    +0.142 HD
ATOM     16  H   UNL     1      11.429  -4.893  -2.103  0.00  0.00    +0.142 HD
ENDBRANCH   8  14
ENDBRANCH   2   5
BRANCH   1  17
ATOM     17  C   UNL     1       3.765  -1.837  -1.425  0.00  0.00    +0.109 C 
BRANCH  17  18
ATOM     18  C   UNL     1       3.287  -1.787   0.027  0.00  0.00    +0.054 C 
BRANCH  18  24
ATOM     19  C   UNL     1       0.816  -2.178  -0.001  0.00  0.00    +0.007 A 
ATOM     20  C   UNL     1      -0.488  -1.720   0.038  0.00  0.00    +0.050 A 
ATOM     21  C   UNL     1      -0.744  -0.361   0.151  0.00  0.00    +0.162 A 
ATOM     22  C   UNL     1       0.314   0.537   0.227  0.00  0.00    +0.162 A 
ATOM     23  C   UNL     1       1.619   0.072   0.186  0.00  0.00    +0.053 A 
ATOM     24  C   UNL     1       1.868  -1.283   0.072  0.00  0.00    -0.042 A 
ATOM     25  O   UNL     1       0.085   1.874   0.346  0.00  0.00    -0.485 OA
ATOM     26  C   UNL     1      -1.228   2.334   0.008  0.00  0.00    +0.270 C 
ATOM     27  C   UNL     1      -2.251   1.402   0.672  0.00  0.00    +0.270 C 
ATOM     28  O   UNL     1      -2.033   0.075   0.179  0.00  0.00    -0.485 OA
ENDBRANCH  18  24
ENDBRANCH  17  18
ENDBRANCH   1  17
TORSDOF 6
