REMARK  Name = ZINC09540147
REMARK  10 active torsions:
REMARK  status: ('A' for Active; 'I' for Inactive)
REMARK    1  A    between atoms: C_3  and  N_14
REMARK    2  A    between atoms: C_4  and  N_11
REMARK    3  A    between atoms: C_6  and  S_7
REMARK    4  A    between atoms: S_7  and  N_10
REMARK    5  A    between atoms: N_14  and  N_15
REMARK    6  A    between atoms: N_15  and  C_16
REMARK    7  A    between atoms: C_16  and  N_18
REMARK    8  A    between atoms: N_18  and  C_19
REMARK    9  A    between atoms: C_19  and  C_20
REMARK   10  A    between atoms: C_20  and  N_46
REMARK                            x       y       z     vdW  Elec       q    Type
REMARK                         _______ _______ _______ _____ _____    ______ ____
ROOT
ATOM      1  N   UNL     1      -1.313   1.691  -0.483  0.00  0.00    -0.263 N 
ATOM      2  H   UNL     1      -1.344   2.661  -0.483  0.00  0.00    +0.170 HD
ENDROOT
BRANCH   1   5
ATOM      3  C   UNL     1      -3.607  -1.153  -0.091  0.00  0.00    +0.030 A 
ATOM      4  C   UNL     1      -2.458  -0.428  -0.342  0.00  0.00    +0.028 A 
ATOM      5  C   UNL     1      -2.473   0.956  -0.230  0.00  0.00    +0.075 A 
ATOM      6  C   UNL     1      -3.644   1.607   0.139  0.00  0.00    +0.150 A 
ATOM      7  C   UNL     1      -4.791   0.877   0.382  0.00  0.00    +0.063 A 
ATOM      8  C   UNL     1      -4.772  -0.502   0.270  0.00  0.00    +0.107 A 
BRANCH   8   9
ATOM      9  S   UNL     1      -6.235  -1.429   0.588  0.00  0.00    +0.056 S 
ATOM     10  O   UNL     1      -7.329  -0.548   0.377  0.00  0.00    -0.153 OA
ATOM     11  O   UNL     1      -6.099  -2.656  -0.116  0.00  0.00    -0.153 OA
BRANCH   9  12
ATOM     12  N   UNL     1      -6.236  -1.806   2.200  0.00  0.00    -0.204 NA
ATOM     13  H   UNL     1      -5.505  -1.513   2.767  0.00  0.00    +0.144 HD
ATOM     14  H   UNL     1      -6.966  -2.321   2.578  0.00  0.00    +0.144 HD
ENDBRANCH   9  12
ENDBRANCH   8   9
BRANCH   6  15
ATOM     15  N   UNL     1      -3.664   3.081   0.265  0.00  0.00    +0.058 N 
ATOM     16  O   UNL     1      -2.696   3.667   0.717  0.00  0.00    -0.126 OA
ATOM     17  O   UNL     1      -4.647   3.709  -0.084  0.00  0.00    -0.126 OA
ENDBRANCH   6  15
ENDBRANCH   1   5
BRANCH   1  18
ATOM     18  N   UNL     1      -0.105   1.029  -0.736  0.00  0.00    -0.248 N 
ATOM     19  H   UNL     1      -0.074   0.059  -0.737  0.00  0.00    +0.172 HD
BRANCH  18  20
ATOM     20  C   UNL     1       1.013   1.739  -0.986  0.00  0.00    +0.147 C 
ATOM     21  S   UNL     1       2.488   0.929  -1.302  0.00  0.00    -0.017 S 
BRANCH  20  22
ATOM     22  N   UNL     1       0.970   3.086  -0.986  0.00  0.00    -0.327 N 
ATOM     23  H   UNL     1       0.135   3.545  -0.806  0.00  0.00    +0.148 HD
BRANCH  22  24
ATOM     24  C   UNL     1       2.186   3.857  -1.256  0.00  0.00    +0.085 C 
BRANCH  24  25
ATOM     25  C   UNL     1       1.865   5.352  -1.196  0.00  0.00    -0.060 C 
BRANCH  25  31
ATOM     26  C   UNL     1       4.073   5.944  -0.396  0.00  0.00    -0.050 C 
ATOM     27  C   UNL     1       5.347   6.718  -0.747  0.00  0.00    +0.141 C 
ATOM     28  O   UNL     1       5.020   8.095  -0.955  0.00  0.00    -0.383 OA
ATOM     29  C   UNL     1       4.060   8.308  -1.993  0.00  0.00    +0.141 C 
ATOM     30  C   UNL     1       2.773   7.551  -1.654  0.00  0.00    -0.050 C 
ATOM     31  N   UNL     1       3.096   6.118  -1.491  0.00  0.00    +0.384 N 
ATOM     32  H   UNL     1       3.506   5.767  -2.364  0.00  0.00    -0.082 HD
ENDBRANCH  25  31
ENDBRANCH  24  25
ENDBRANCH  22  24
ENDBRANCH  20  22
ENDBRANCH  18  20
ENDBRANCH   1  18
TORSDOF 10
