REMARK  Name = ZINC61146049
REMARK  5 active torsions:
REMARK  status: ('A' for Active; 'I' for Inactive)
REMARK    1  A    between atoms: N_3  and  C_6
REMARK    2  A    between atoms: C_6  and  C_7
REMARK    3  A    between atoms: C_7  and  N_8
REMARK    4  A    between atoms: N_15  and  C_18
REMARK    5  A    between atoms: C_18  and  C_19
REMARK                            x       y       z     vdW  Elec       q    Type
REMARK                         _______ _______ _______ _____ _____    ______ ____
ROOT
ATOM      1  N   UNL     1       5.642   0.449   4.059  0.00  0.00    -0.298 N 
ATOM      2  C   UNL     1       6.168   0.505   2.820  0.00  0.00    +0.302 C 
ATOM      3  O   UNL     1       5.443   0.432   1.847  0.00  0.00    -0.253 OA
ATOM      4  N   UNL     1       7.499   0.643   2.659  0.00  0.00    -0.287 N 
ATOM      5  C   UNL     1       8.036   0.825   1.295  0.00  0.00    +0.107 C 
ATOM      6  C   UNL     1       9.149   1.889   1.275  0.00  0.00    +0.000 C 
ATOM      7  C   UNL     1       8.768   3.033   2.189  0.00  0.00    -0.076 C 
ATOM      8  N   UNL     1       9.341   2.804   3.513  0.00  0.00    +0.388 N 
ATOM      9  C   UNL     1       8.536   2.040   4.386  0.00  0.00    -0.059 C 
ATOM     10  C   UNL     1       8.351   0.614   3.830  0.00  0.00    +0.091 C 
ATOM     11  H   UNL     1       6.225   0.435   4.834  0.00  0.00    +0.150 HD
ATOM     12  H   UNL     1      10.225   2.332   3.400  0.00  0.00    -0.081 HD
ENDROOT
BRANCH   1  13
ATOM     13  C   UNL     1       4.188   0.409   4.236  0.00  0.00    +0.127 C 
BRANCH  13  14
ATOM     14  C   UNL     1       3.857   0.348   5.729  0.00  0.00    +0.141 C 
BRANCH  14  17
ATOM     15  C   UNL     1       0.354  -0.400   6.134  0.00  0.00    +0.101 A 
ATOM     16  C   UNL     1       1.624  -0.816   5.965  0.00  0.00    +0.104 A 
ATOM     17  N   UNL     1       2.404   0.307   5.906  0.00  0.00    -0.337 N 
ATOM     18  C   UNL     1       1.583   1.371   6.041  0.00  0.00    +0.173 A 
ATOM     19  N   UNL     1       0.359   0.941   6.178  0.00  0.00    -0.352 N 
ATOM     20  H   UNL     1      -0.424   1.502   6.292  0.00  0.00    +0.166 HD
ENDBRANCH  14  17
ENDBRANCH  13  14
ENDBRANCH   1  13
BRANCH   8  21
ATOM     21  C   UNL     1       9.595   4.108   4.139  0.00  0.00    +0.048 C 
BRANCH  21  22
ATOM     22  C   UNL     1      10.679   4.828   3.379  0.00  0.00    +0.340 C 
ATOM     23  O   UNL     1      11.270   4.261   2.476  0.00  0.00    -0.249 OA
ATOM     24  O   UNL     1      10.965   5.978   3.667  0.00  0.00    -0.249 OA
ENDBRANCH  21  22
ENDBRANCH   8  21
TORSDOF 5
