REMARK  Name = ZINC63547255
REMARK  6 active torsions:
REMARK  status: ('A' for Active; 'I' for Inactive)
REMARK    1  A    between atoms: C_4  and  C_7
REMARK    2  A    between atoms: C_11  and  C_21
REMARK    3  A    between atoms: C_16  and  C_18
REMARK    4  A    between atoms: N_23  and  C_24
REMARK    5  A    between atoms: C_24  and  C_25
REMARK    6  A    between atoms: C_25  and  C_26
REMARK                            x       y       z     vdW  Elec       q    Type
REMARK                         _______ _______ _______ _____ _____    ______ ____
ROOT
ATOM      1  C   UNL     1       3.698  -0.688  -0.037  0.00  0.00    +0.070 C 
ATOM      2  N   UNL     1       4.810   0.004  -0.039  0.00  0.00    -0.254 NA
ATOM      3  C   UNL     1       6.103  -0.684  -0.059  0.00  0.00    +0.246 C 
ATOM      4  C   UNL     1       7.084   0.027  -0.962  0.00  0.00    +0.073 C 
ATOM      5  H   UNL     1       7.160  -2.910  -2.140  0.00  0.00    +0.170 HD
ATOM      6  C   UNL     1       7.506  -0.877  -1.870  0.00  0.00    +0.100 C 
ATOM      7  N   UNL     1       6.911  -2.091  -1.683  0.00  0.00    -0.269 N 
ATOM      8  N   UNL     1       5.891  -1.990  -0.721  0.00  0.00    -0.223 N 
ATOM      9  C   UNL     1       4.830  -2.807  -0.420  0.00  0.00    +0.095 C 
ATOM     10  C   UNL     1       3.695  -2.154  -0.045  0.00  0.00    +0.054 C 
ENDROOT
BRANCH   1  14
ATOM     11  C   UNL     1      -0.017   1.379   0.010  0.00  0.00    +0.000 A 
ATOM     12  C   UNL     1       1.169   2.092   0.002  0.00  0.00    +0.001 A 
ATOM     13  C   UNL     1       2.377   1.427  -0.013  0.00  0.00    +0.010 A 
ATOM     14  C   UNL     1       2.402   0.033  -0.021  0.00  0.00    +0.000 A 
ATOM     15  C   UNL     1       1.205  -0.680  -0.013  0.00  0.00    +0.010 A 
ATOM     16  C   UNL     1       0.002  -0.004   0.002  0.00  0.00    +0.001 A 
ENDBRANCH   1  14
BRANCH   4  17
ATOM     17  C   UNL     1       7.483   1.381  -0.873  0.00  0.00    +0.245 C 
ATOM     18  O   UNL     1       8.287   1.833  -1.668  0.00  0.00    -0.270 OA
ATOM     19  N   UNL     1       6.974   2.172   0.093  0.00  0.00    -0.311 N 
ATOM     20  H   UNL     1       6.334   1.812   0.727  0.00  0.00    +0.149 HD
BRANCH  19  21
ATOM     21  C   UNL     1       7.387   3.574   0.186  0.00  0.00    +0.109 C 
BRANCH  21  22
ATOM     22  C   UNL     1       6.667   4.242   1.359  0.00  0.00    +0.052 C 
BRANCH  22  23
ATOM     23  C   UNL     1       7.092   5.684   1.454  0.00  0.00    -0.040 C 
ATOM     24  C   UNL     1       6.455   6.756   0.929  0.00  0.00    +0.000 A 
ATOM     25  C   UNL     1       5.224   6.894   0.141  0.00  0.00    +0.030 A 
ATOM     26  C   UNL     1       4.831   8.128  -0.252  0.00  0.00    +0.042 A 
ATOM     27  C   UNL     1       5.569   9.275   0.074  0.00  0.00    +0.022 A 
ATOM     28  C   UNL     1       6.710   9.228   0.794  0.00  0.00    +0.027 A 
ATOM     29  C   UNL     1       7.216   7.983   1.259  0.00  0.00    +0.043 A 
ATOM     30  N   UNL     1       8.281   7.681   1.961  0.00  0.00    -0.380 N 
ATOM     31  C   UNL     1       8.313   6.228   2.161  0.00  0.00    +0.144 C 
ATOM     32 CL   UNL     1       3.376   8.295  -1.183  0.00  0.00    -0.084 Cl
ATOM     33  H   UNL     1       8.936   8.313   2.296  0.00  0.00    +0.160 HD
ENDBRANCH  22  23
ENDBRANCH  21  22
ENDBRANCH  19  21
ENDBRANCH   4  17
BRANCH   9  34
ATOM     34  C   UNL     1       4.915  -4.309  -0.492  0.00  0.00    +0.387 C 
ATOM     35  F   UNL     1       3.684  -4.864  -0.130  0.00  0.00    -0.202 F 
ATOM     36  F   UNL     1       5.235  -4.696  -1.798  0.00  0.00    -0.202 F 
ENDBRANCH   9  34
TORSDOF 6
