REMARK  Name = ZINC45697293
REMARK  7 active torsions:
REMARK  status: ('A' for Active; 'I' for Inactive)
REMARK    1  A    between atoms: C_4  and  O_7
REMARK    2  A    between atoms: O_7  and  C_8
REMARK    3  A    between atoms: C_13  and  N_14
REMARK    4  A    between atoms: C_15  and  C_17
REMARK    5  A    between atoms: C_17  and  C_18
REMARK    6  A    between atoms: C_18  and  N_19
REMARK    7  A    between atoms: C_29  and  C_32
REMARK                            x       y       z     vdW  Elec       q    Type
REMARK                         _______ _______ _______ _____ _____    ______ ____
ROOT
ATOM      1  C   UNL     1       9.529  -2.897  -0.002  0.00  0.00    -0.070 C 
ENDROOT
BRANCH   1   2
ATOM      2  N   UNL     1      10.817  -2.202  -0.127  0.00  0.00    +0.381 N 
ATOM      3  C   UNL     1      11.859  -3.200  -0.361  0.00  0.00    -0.077 C 
ATOM      4  C   UNL     1      12.972  -2.578  -1.175  0.00  0.00    +0.000 C 
ATOM      5  C   UNL     1      14.058  -2.036  -0.229  0.00  0.00    +0.104 C 
ATOM      6  N   UNL     1      13.456  -1.400   0.961  0.00  0.00    -0.317 N 
ATOM      7  C   UNL     1      12.287  -0.549   0.877  0.00  0.00    +0.088 C 
ATOM      8  C   UNL     1      11.006  -1.403   1.023  0.00  0.00    -0.060 C 
ATOM      9  C   UNL     1      14.033  -1.625   2.205  0.00  0.00    +0.121 A 
ATOM     10  C   UNL     1      15.273  -2.252   2.287  0.00  0.00    +0.044 A 
ATOM     11  C   UNL     1      15.835  -2.470   3.532  0.00  0.00    +0.017 A 
ATOM     12  C   UNL     1      15.136  -2.052   4.657  0.00  0.00    +0.073 A 
ATOM     13  C   UNL     1      13.911  -1.436   4.502  0.00  0.00    +0.125 A 
ATOM     14  N   UNL     1      13.401  -1.236   3.301  0.00  0.00    -0.240 NA
ATOM     15  H   UNL     1      10.774  -1.596  -0.932  0.00  0.00    -0.082 HD
BRANCH  12  16
ATOM     16  C   UNL     1      15.711  -2.269   6.033  0.00  0.00    +0.419 C 
ATOM     17  F   UNL     1      16.486  -1.162   6.395  0.00  0.00    -0.166 F 
ATOM     18  F   UNL     1      14.669  -2.429   6.953  0.00  0.00    -0.166 F 
ATOM     19  F   UNL     1      16.510  -3.417   6.030  0.00  0.00    -0.166 F 
ENDBRANCH  12  16
ENDBRANCH   1   2
BRANCH   1  20
ATOM     20  C   UNL     1       8.393  -1.872  -0.015  0.00  0.00    +0.077 C 
BRANCH  20  22
ATOM     21  N   UNL     1       5.924  -1.879   0.125  0.00  0.00    -0.283 N 
ATOM     22  C   UNL     1       7.072  -2.585   0.113  0.00  0.00    +0.215 C 
ATOM     23  O   UNL     1       7.042  -3.794   0.205  0.00  0.00    -0.276 OA
ATOM     24  H   UNL     1       5.950  -0.910   0.109  0.00  0.00    +0.155 HD
BRANCH  21  30
ATOM     25  C   UNL     1       3.589  -2.011  -0.500  0.00  0.00    +0.150 A 
ATOM     26  C   UNL     1       2.374  -2.678  -0.466  0.00  0.00    +0.048 A 
ATOM     27  C   UNL     1       2.259  -3.868   0.227  0.00  0.00    +0.004 A 
ATOM     28  C   UNL     1       3.352  -4.397   0.888  0.00  0.00    +0.002 A 
ATOM     29  C   UNL     1       4.566  -3.738   0.859  0.00  0.00    +0.027 A 
ATOM     30  C   UNL     1       4.692  -2.546   0.161  0.00  0.00    +0.076 A 
BRANCH  25  31
ATOM     31  O   UNL     1       3.704  -0.841  -1.182  0.00  0.00    -0.454 OA
BRANCH  31  35
ATOM     32  C   UNL     1       0.284   0.811  -2.792  0.00  0.00    +0.000 A 
ATOM     33  C   UNL     1       0.435   0.738  -1.419  0.00  0.00    +0.004 A 
ATOM     34  C   UNL     1       1.579   0.186  -0.877  0.00  0.00    +0.046 A 
ATOM     35  C   UNL     1       2.577  -0.297  -1.712  0.00  0.00    +0.129 A 
ATOM     36  C   UNL     1       2.423  -0.224  -3.089  0.00  0.00    +0.046 A 
ATOM     37  C   UNL     1       1.276   0.330  -3.626  0.00  0.00    +0.004 A 
ENDBRANCH  31  35
ENDBRANCH  25  31
ENDBRANCH  21  30
ENDBRANCH  20  22
ENDBRANCH   1  20
TORSDOF 7
