REMARK  Name = ZINC16315660
REMARK  9 active torsions:
REMARK  status: ('A' for Active; 'I' for Inactive)
REMARK    1  A    between atoms: C_1  and  O_2
REMARK    2  A    between atoms: O_2  and  C_3
REMARK    3  A    between atoms: C_6  and  C_9
REMARK    4  A    between atoms: C_9  and  C_11
REMARK    5  A    between atoms: C_9  and  N_23
REMARK    6  A    between atoms: C_11  and  N_12
REMARK    7  A    between atoms: N_12  and  C_13
REMARK    8  A    between atoms: C_13  and  N_15
REMARK    9  A    between atoms: N_15  and  C_16
REMARK                            x       y       z     vdW  Elec       q    Type
REMARK                         _______ _______ _______ _____ _____    ______ ____
ROOT
ATOM      1  C   UNL     1       1.761  -2.665  -3.926  0.00  0.00    -0.020 C 
ENDROOT
BRANCH   1   5
ATOM      2  C   UNL     1       0.058  -0.093  -0.969  0.00  0.00    +0.120 A 
ATOM      3  C   UNL     1       0.801   0.442  -2.011  0.00  0.00    +0.046 A 
ATOM      4  C   UNL     1       1.351  -0.391  -2.965  0.00  0.00    +0.005 A 
ATOM      5  C   UNL     1       1.160  -1.758  -2.883  0.00  0.00    -0.059 A 
ATOM      6  C   UNL     1       0.420  -2.295  -1.846  0.00  0.00    +0.005 A 
ATOM      7  C   UNL     1      -0.127  -1.466  -0.886  0.00  0.00    +0.046 A 
BRANCH   2   9
ATOM      8  C   UNL     1      -0.253   2.127  -0.177  0.00  0.00    +0.277 C 
ATOM      9  O   UNL     1      -0.483   0.725  -0.028  0.00  0.00    -0.495 OA
ENDBRANCH   2   9
ENDBRANCH   1   5
BRANCH   1  10
ATOM     10  N   UNL     1       2.283  -3.876  -3.280  0.00  0.00    +0.385 N 
ATOM     11  C   UNL     1       2.997  -4.720  -4.273  0.00  0.00    -0.078 C 
ATOM     12  C   UNL     1       3.928  -5.592  -3.393  0.00  0.00    -0.020 C 
ATOM     13  C   UNL     1       4.370  -4.613  -2.282  0.00  0.00    -0.020 C 
ATOM     14  C   UNL     1       3.291  -3.515  -2.259  0.00  0.00    -0.078 C 
ATOM     15  H   UNL     1       1.530  -4.398  -2.856  0.00  0.00    -0.081 HD
ENDBRANCH   1  10
BRANCH   1  16
ATOM     16  C   UNL     1       0.686  -3.054  -4.944  0.00  0.00    +0.092 C 
BRANCH  16  17
ATOM     17  N   UNL     1       0.282  -1.868  -5.704  0.00  0.00    -0.328 N 
ATOM     18  H   UNL     1       0.745  -1.026  -5.571  0.00  0.00    +0.148 HD
BRANCH  17  19
ATOM     19  C   UNL     1      -0.731  -1.948  -6.589  0.00  0.00    +0.134 C 
ATOM     20  S   UNL     1      -1.547  -3.435  -6.824  0.00  0.00    -0.019 S 
BRANCH  19  21
ATOM     21  N   UNL     1      -1.103  -0.858  -7.289  0.00  0.00    -0.297 N 
ATOM     22  H   UNL     1      -0.680  -0.002  -7.113  0.00  0.00    +0.154 HD
BRANCH  21  23
ATOM     23  C   UNL     1      -2.097  -0.960  -8.267  0.00  0.00    +0.034 A 
ATOM     24  C   UNL     1      -3.262  -1.670  -8.005  0.00  0.00    +0.023 A 
ATOM     25  C   UNL     1      -4.242  -1.769  -8.973  0.00  0.00    +0.003 A 
ATOM     26  C   UNL     1      -4.065  -1.163 -10.203  0.00  0.00    +0.020 A 
ATOM     27  C   UNL     1      -2.906  -0.455 -10.468  0.00  0.00    +0.043 A 
ATOM     28  C   UNL     1      -1.924  -0.347  -9.501  0.00  0.00    +0.043 A 
ATOM     29 CL   UNL     1      -2.688   0.304 -12.014  0.00  0.00    -0.083 Cl
ENDBRANCH  21  23
ENDBRANCH  19  21
ENDBRANCH  17  19
ENDBRANCH  16  17
ENDBRANCH   1  16
TORSDOF 8
