REMARK  Name = ZINC58159202
REMARK  13 active torsions:
REMARK  status: ('A' for Active; 'I' for Inactive)
REMARK    1  A    between atoms: C_1  and  C_2
REMARK    2  A    between atoms: C_2  and  C_4
REMARK    3  A    between atoms: C_2  and  N_26
REMARK    4  A    between atoms: N_10  and  C_11
REMARK    5  A    between atoms: C_11  and  C_12
REMARK    6  A    between atoms: N_17  and  C_18
REMARK    7  A    between atoms: C_21  and  O_24
REMARK    8  A    between atoms: O_24  and  C_25
REMARK    9  A    between atoms: C_27  and  O_29
REMARK   10  A    between atoms: O_29  and  C_30
REMARK   11  A    between atoms: C_30  and  C_31
REMARK   12  A    between atoms: C_30  and  C_32
REMARK   13  A    between atoms: C_30  and  C_33
REMARK                            x       y       z     vdW  Elec       q    Type
REMARK                         _______ _______ _______ _____ _____    ______ ____
ROOT
ATOM      1  C   UNL     1      -1.442  -0.548   0.015  0.00  0.00    -0.047 C 
ATOM      2  C   UNL     1      -2.140  -0.144  -1.285  0.00  0.00    -0.014 C 
ATOM      3  C   UNL     1      -3.580  -0.666  -1.269  0.00  0.00    -0.003 C 
ATOM      4  C   UNL     1      -4.296  -0.119  -0.031  0.00  0.00    -0.019 C 
ATOM      5  C   UNL     1      -3.519  -0.524   1.223  0.00  0.00    -0.078 C 
ATOM      6  N   UNL     1      -2.160   0.027   1.159  0.00  0.00    +0.388 N 
ATOM      7  H   UNL     1      -2.209   1.030   1.054  0.00  0.00    -0.081 HD
ENDROOT
BRANCH   1   9
ATOM      8  C   UNL     1      -0.012   1.501   0.009  0.00  0.00    +0.026 C 
ATOM      9  C   UNL     1      -0.003  -0.029   0.003  0.00  0.00    +0.060 C 
BRANCH   9  10
ATOM     10  N   UNL     1       0.679  -0.509  -1.201  0.00  0.00    -0.280 N 
ATOM     11  C   UNL     1       2.022  -0.629  -1.212  0.00  0.00    +0.401 C 
ATOM     12  O   UNL     1       2.666  -0.340  -0.224  0.00  0.00    -0.226 OA
ATOM     13  H   UNL     1       0.165  -0.740  -1.990  0.00  0.00    +0.152 HD
BRANCH  11  14
ATOM     14  O   UNL     1       2.649  -1.070  -2.319  0.00  0.00    -0.445 OA
BRANCH  14  15
ATOM     15  C   UNL     1       4.073  -1.173  -2.261  0.00  0.00    +0.107 C 
ATOM     16  C   UNL     1       4.468  -2.147  -1.149  0.00  0.00    +0.055 C 
ATOM     17  C   UNL     1       4.603  -1.687  -3.601  0.00  0.00    +0.055 C 
ATOM     18  C   UNL     1       4.672   0.204  -1.970  0.00  0.00    +0.055 C 
ENDBRANCH  14  15
ENDBRANCH  11  14
ENDBRANCH   9  10
ENDBRANCH   1   9
BRANCH   6  19
ATOM     19  C   UNL     1      -1.443  -0.298   2.399  0.00  0.00    +0.019 C 
BRANCH  19  20
ATOM     20  C   UNL     1      -2.109   0.394   3.560  0.00  0.00    +0.204 C 
ATOM     21  O   UNL     1      -3.084   1.089   3.373  0.00  0.00    -0.277 OA
ATOM     22  N   UNL     1      -1.620   0.240   4.807  0.00  0.00    -0.241 N 
ATOM     23  C   UNL     1      -2.216   0.859   5.845  0.00  0.00    +0.310 C 
ATOM     24  O   UNL     1      -3.194   1.556   5.658  0.00  0.00    -0.252 OA
ATOM     25  N   UNL     1      -1.727   0.705   7.092  0.00  0.00    -0.269 N 
ATOM     26  H   UNL     1      -0.840  -0.316   4.956  0.00  0.00    +0.159 HD
ATOM     27  H   UNL     1      -0.988   0.097   7.252  0.00  0.00    +0.156 HD
BRANCH  25  28
ATOM     28  C   UNL     1      -2.285   1.424   8.157  0.00  0.00    +0.035 A 
ATOM     29  C   UNL     1      -1.475   1.879   9.189  0.00  0.00    +0.027 A 
ATOM     30  C   UNL     1      -2.026   2.587  10.239  0.00  0.00    +0.047 A 
ATOM     31  C   UNL     1      -3.389   2.844  10.262  0.00  0.00    +0.120 A 
ATOM     32  C   UNL     1      -4.199   2.390   9.232  0.00  0.00    +0.047 A 
ATOM     33  C   UNL     1      -3.649   1.687   8.179  0.00  0.00    +0.027 A 
BRANCH  31  34
ATOM     34  O   UNL     1      -3.931   3.542  11.296  0.00  0.00    -0.495 OA
ATOM     35  C   UNL     1      -5.341   3.771  11.256  0.00  0.00    +0.277 C 
ENDBRANCH  31  34
ENDBRANCH  25  28
ENDBRANCH  19  20
ENDBRANCH   6  19
TORSDOF 8
