REMARK  Name = ZINC40366806
REMARK  9 active torsions:
REMARK  status: ('A' for Active; 'I' for Inactive)
REMARK    1  A    between atoms: C_1  and  C_2
REMARK    2  A    between atoms: C_2  and  C_3
REMARK    3  A    between atoms: C_3  and  C_4
REMARK    4  A    between atoms: C_3  and  C_6
REMARK    5  A    between atoms: C_3  and  N_8
REMARK    6  A    between atoms: C_4  and  C_5
REMARK    7  A    between atoms: C_6  and  N_7
REMARK    8  A    between atoms: N_8  and  S_9
REMARK    9  A    between atoms: S_9  and  C_12
REMARK                            x       y       z     vdW  Elec       q    Type
REMARK                         _______ _______ _______ _____ _____    ______ ____
ROOT
ATOM      1  N   UNL     1      -2.524   0.106  -1.344  0.00  0.00    -0.186 NA
ATOM      2  H   UNL     1      -3.055   0.878  -1.597  0.00  0.00    +0.149 HD
ENDROOT
BRANCH   1   3
ATOM      3  S   UNL     1      -1.816  -0.832  -2.510  0.00  0.00    +0.064 S 
ATOM      4  O   UNL     1      -2.243  -0.314  -3.763  0.00  0.00    -0.153 OA
ATOM      5  O   UNL     1      -0.443  -0.947  -2.162  0.00  0.00    -0.153 OA
BRANCH   3   6
ATOM      6  C   UNL     1      -2.508  -2.446  -2.371  0.00  0.00    +0.175 A 
ATOM      7  C   UNL     1      -1.775  -3.465  -1.786  0.00  0.00    +0.155 A 
ATOM      8  C   UNL     1      -2.318  -4.734  -1.677  0.00  0.00    +0.078 A 
ATOM      9  C   UNL     1      -3.594  -4.984  -2.152  0.00  0.00    +0.129 A 
ATOM     10  C   UNL     1      -4.327  -3.965  -2.736  0.00  0.00    +0.078 A 
ATOM     11  C   UNL     1      -3.786  -2.695  -2.842  0.00  0.00    +0.155 A 
ATOM     12  F   UNL     1      -4.503  -1.700  -3.408  0.00  0.00    -0.203 F 
ATOM     13  F   UNL     1      -4.124  -6.222  -2.047  0.00  0.00    -0.205 F 
ATOM     14  F   UNL     1      -0.530  -3.221  -1.323  0.00  0.00    -0.203 F 
ENDBRANCH   3   6
ENDBRANCH   1   3
BRANCH   1  15
ATOM     15  C   UNL     1      -2.350  -0.229   0.072  0.00  0.00    +0.024 C 
BRANCH  15  17
ATOM     16  C   UNL     1      -0.145   0.946   0.078  0.00  0.00    +0.005 C 
ATOM     17  C   UNL     1      -0.858  -0.373   0.381  0.00  0.00    +0.018 C 
ENDBRANCH  15  17
BRANCH  15  18
ATOM     18  C   UNL     1      -3.063  -1.548   0.375  0.00  0.00    +0.018 C 
ATOM     19  C   UNL     1      -3.007  -1.824   1.879  0.00  0.00    +0.005 C 
ENDBRANCH  15  18
BRANCH  15  20
ATOM     20  C   UNL     1      -2.945   0.883   0.937  0.00  0.00    -0.062 C 
BRANCH  20  21
ATOM     21  N   UNL     1      -4.384   1.000   0.662  0.00  0.00    +0.379 N 
ATOM     22  H   UNL     1      -4.528   1.126  -0.328  0.00  0.00    -0.090 HD
ATOM     23  H   UNL     1      -4.853   0.160   0.966  0.00  0.00    -0.090 HD
ATOM     24  H   UNL     1      -4.758   1.793   1.161  0.00  0.00    -0.090 HD
ENDBRANCH  20  21
ENDBRANCH  15  20
ENDBRANCH   1  15
TORSDOF 7
