REMARK  Name = ZINC43090708
REMARK  9 active torsions:
REMARK  status: ('A' for Active; 'I' for Inactive)
REMARK    1  A    between atoms: C_1  and  C_2
REMARK    2  A    between atoms: C_2  and  C_3
REMARK    3  A    between atoms: C_3  and  N_4
REMARK    4  A    between atoms: N_7  and  C_10
REMARK    5  A    between atoms: C_10  and  C_12
REMARK    6  A    between atoms: C_10  and  C_19
REMARK    7  A    between atoms: C_19  and  C_21
REMARK    8  A    between atoms: C_19  and  N_23
REMARK    9  A    between atoms: C_21  and  C_22
REMARK                            x       y       z     vdW  Elec       q    Type
REMARK                         _______ _______ _______ _____ _____    ______ ____
ROOT
ATOM      1  C   UNL     1      -2.185  -5.965   1.358  0.00  0.00    +0.073 C 
ENDROOT
BRANCH   1   5
ATOM      2  N   UNL     1      -1.405  -2.176  -0.346  0.00  0.00    +0.381 N 
ATOM      3  C   UNL     1      -0.831  -2.471   0.974  0.00  0.00    -0.063 C 
ATOM      4  C   UNL     1      -0.800  -3.986   1.190  0.00  0.00    +0.066 C 
ATOM      5  N   UNL     1      -2.166  -4.519   1.100  0.00  0.00    -0.300 NA
ATOM      6  C   UNL     1      -2.763  -4.210  -0.207  0.00  0.00    +0.066 C 
ATOM      7  C   UNL     1      -2.778  -2.693  -0.411  0.00  0.00    -0.063 C 
ATOM      8  H   UNL     1      -0.846  -2.616  -1.061  0.00  0.00    -0.082 HD
BRANCH   2   9
ATOM      9  C   UNL     1      -1.418  -0.723  -0.560  0.00  0.00    -0.079 C 
BRANCH   9  11
ATOM     10  C   UNL     1       0.005   1.311  -0.839  0.00  0.00    +0.002 C 
ATOM     11  C   UNL     1       0.019  -0.203  -0.616  0.00  0.00    -0.022 C 
ENDBRANCH   9  11
ENDBRANCH   2   9
ENDBRANCH   1   5
BRANCH   1  12
ATOM     12  C   UNL     1      -1.785  -6.226   2.788  0.00  0.00    -0.018 A 
ATOM     13  C   UNL     1      -1.975  -5.249   3.748  0.00  0.00    +0.006 A 
ATOM     14  C   UNL     1      -1.609  -5.488   5.059  0.00  0.00    +0.000 A 
ATOM     15  C   UNL     1      -1.052  -6.703   5.411  0.00  0.00    +0.001 A 
ATOM     16  C   UNL     1      -0.862  -7.680   4.452  0.00  0.00    +0.015 A 
ATOM     17  C   UNL     1      -1.233  -7.444   3.140  0.00  0.00    +0.022 A 
ATOM     18 BR   UNL     1      -0.980  -8.782   1.829  0.00  0.00    -0.050 Br
ENDBRANCH   1  12
BRANCH   1  19
ATOM     19  C   UNL     1      -3.595  -6.508   1.116  0.00  0.00    -0.053 C 
BRANCH  19  20
ATOM     20  N   UNL     1      -3.619  -7.951   1.393  0.00  0.00    +0.381 N 
ATOM     21  H   UNL     1      -3.291  -8.118   2.333  0.00  0.00    -0.090 HD
ATOM     22  H   UNL     1      -4.562  -8.296   1.300  0.00  0.00    -0.090 HD
ATOM     23  H   UNL     1      -3.019  -8.429   0.738  0.00  0.00    -0.090 HD
ENDBRANCH  19  20
BRANCH  19  24
ATOM     24  C   UNL     1      -4.582  -5.795   2.042  0.00  0.00    -0.018 C 
ATOM     25  C   UNL     1      -6.007  -6.247   1.715  0.00  0.00    +0.002 C 
ENDBRANCH  19  24
ENDBRANCH   1  19
TORSDOF 7
