REMARK  Name = ZINC50510160
REMARK  11 active torsions:
REMARK  status: ('A' for Active; 'I' for Inactive)
REMARK    1  A    between atoms: C_1  and  C_2
REMARK    2  A    between atoms: C_2  and  C_4
REMARK    3  A    between atoms: C_2  and  N_13
REMARK    4  A    between atoms: C_7  and  O_11
REMARK    5  A    between atoms: O_11  and  C_12
REMARK    6  A    between atoms: N_13  and  C_14
REMARK    7  A    between atoms: C_14  and  C_16
REMARK    8  A    between atoms: C_14  and  C_17
REMARK    9  A    between atoms: N_19  and  C_20
REMARK   10  A    between atoms: C_23  and  S_26
REMARK   11  A    between atoms: S_26  and  N_29
REMARK                            x       y       z     vdW  Elec       q    Type
REMARK                         _______ _______ _______ _____ _____    ______ ____
ROOT
ATOM      1  C   UNL     1       0.541  -0.424  -3.631  0.00  0.00    +0.234 C 
ATOM      2  O   UNL     1       1.745  -0.284  -3.601  0.00  0.00    -0.274 OA
ATOM      3  N   UNL     1      -0.104  -0.463  -4.814  0.00  0.00    -0.284 N 
ATOM      4  H   UNL     1      -1.057  -0.641  -4.842  0.00  0.00    +0.155 HD
ENDROOT
BRANCH   3   5
ATOM      5  C   UNL     1       0.602  -0.245  -6.003  0.00  0.00    +0.034 A 
ATOM      6  C   UNL     1      -0.003   0.424  -7.059  0.00  0.00    +0.025 A 
ATOM      7  C   UNL     1       0.696   0.637  -8.231  0.00  0.00    +0.030 A 
ATOM      8  C   UNL     1       1.996   0.184  -8.354  0.00  0.00    +0.105 A 
ATOM      9  C   UNL     1       2.602  -0.483  -7.304  0.00  0.00    +0.030 A 
ATOM     10  C   UNL     1       1.910  -0.694  -6.127  0.00  0.00    +0.025 A 
BRANCH   8  11
ATOM     11  S   UNL     1       2.885   0.458  -9.851  0.00  0.00    +0.056 S 
ATOM     12  O   UNL     1       3.894  -0.540  -9.912  0.00  0.00    -0.153 OA
ATOM     13  O   UNL     1       1.914   0.623 -10.875  0.00  0.00    -0.153 OA
BRANCH  11  14
ATOM     14  N   UNL     1       3.664   1.911  -9.699  0.00  0.00    -0.204 NA
ATOM     15  H   UNL     1       4.505   2.061 -10.159  0.00  0.00    +0.144 HD
ATOM     16  H   UNL     1       3.281   2.612  -9.149  0.00  0.00    +0.144 HD
ENDBRANCH  11  14
ENDBRANCH   8  11
ENDBRANCH   3   5
BRANCH   1  17
ATOM     17  C   UNL     1      -0.235  -0.554  -2.346  0.00  0.00    +0.138 C 
ATOM     18  C   UNL     1      -0.965  -1.898  -2.325  0.00  0.00    +0.034 C 
BRANCH  17  19
ATOM     19  N   UNL     1       0.690  -0.481  -1.207  0.00  0.00    -0.299 NA
ATOM     20  H   UNL     1       1.481   0.107  -1.420  0.00  0.00    +0.123 HD
BRANCH  19  22
ATOM     21  C   UNL     1      -0.033   1.514   0.015  0.00  0.00    +0.029 C 
ATOM     22  C   UNL     1      -0.001  -0.015   0.003  0.00  0.00    +0.082 C 
BRANCH  22  23
ATOM     23  C   UNL     1       0.731  -0.512   1.223  0.00  0.00    -0.028 A 
ATOM     24  C   UNL     1       2.113  -0.512   1.245  0.00  0.00    +0.009 A 
ATOM     25  C   UNL     1       2.788  -0.968   2.362  0.00  0.00    +0.049 A 
ATOM     26  C   UNL     1       2.079  -1.425   3.462  0.00  0.00    +0.155 A 
ATOM     27  C   UNL     1       0.690  -1.424   3.438  0.00  0.00    +0.165 A 
ATOM     28  C   UNL     1       0.019  -0.962   2.320  0.00  0.00    +0.047 A 
ATOM     29  F   UNL     1      -0.005  -1.869   4.508  0.00  0.00    -0.202 F 
BRANCH  26  30
ATOM     30  O   UNL     1       2.741  -1.874   4.561  0.00  0.00    -0.492 OA
ATOM     31  C   UNL     1       4.169  -1.846   4.514  0.00  0.00    +0.277 C 
ENDBRANCH  26  30
ENDBRANCH  22  23
ENDBRANCH  19  22
ENDBRANCH  17  19
ENDBRANCH   1  17
TORSDOF 8
