REMARK  Name = ZINC49751848
REMARK  8 active torsions:
REMARK  status: ('A' for Active; 'I' for Inactive)
REMARK    1  A    between atoms: C_1  and  C_2
REMARK    2  A    between atoms: C_2  and  O_3
REMARK    3  A    between atoms: O_3  and  C_4
REMARK    4  A    between atoms: C_4  and  C_6
REMARK    5  A    between atoms: C_7  and  C_13
REMARK    6  A    between atoms: C_13  and  N_14
REMARK    7  A    between atoms: C_19  and  C_21
REMARK    8  A    between atoms: C_21  and  O_22
REMARK                            x       y       z     vdW  Elec       q    Type
REMARK                         _______ _______ _______ _____ _____    ______ ____
ROOT
ATOM      1  C   UNL     1       1.539  -2.641  -3.073  0.00  0.00    +0.069 C 
ATOM      2  C   UNL     1       1.727  -3.975  -2.985  0.00  0.00    +0.007 C 
ATOM      3  N   UNL     1       2.382  -4.661  -3.967  0.00  0.00    -0.274 N 
ATOM      4  C   UNL     1       2.880  -4.086  -5.069  0.00  0.00    +0.304 C 
ATOM      5  O   UNL     1       3.448  -4.780  -5.890  0.00  0.00    -0.253 OA
ATOM      6  N   UNL     1       2.771  -2.762  -5.299  0.00  0.00    -0.295 N 
ATOM      7  C   UNL     1       2.075  -1.933  -4.301  0.00  0.00    +0.149 C 
ATOM      8  H   UNL     1       2.494  -5.619  -3.861  0.00  0.00    +0.156 HD
ATOM      9  H   UNL     1       3.139  -2.366  -6.104  0.00  0.00    +0.151 HD
ENDROOT
BRANCH   1  10
ATOM     10  C   UNL     1       0.861  -1.929  -2.056  0.00  0.00    +0.338 C 
ATOM     11  O   UNL     1      -0.286  -1.561  -2.233  0.00  0.00    -0.245 OA
BRANCH  10  12
ATOM     12  O   UNL     1       1.484  -1.659  -0.890  0.00  0.00    -0.462 OA
BRANCH  12  14
ATOM     13  C   UNL     1       1.604  -0.726   1.336  0.00  0.00    +0.048 C 
ATOM     14  C   UNL     1       0.739  -0.937   0.092  0.00  0.00    +0.229 C 
ENDBRANCH  12  14
ENDBRANCH  10  12
ENDBRANCH   1  10
BRANCH   2  15
ATOM     15  C   UNL     1       1.206  -4.720  -1.783  0.00  0.00    -0.026 C 
BRANCH  15  16
ATOM     16  N   UNL     1       0.163  -5.663  -2.206  0.00  0.00    +0.387 N 
ATOM     17  C   UNL     1      -0.973  -4.918  -2.763  0.00  0.00    -0.078 C 
ATOM     18  C   UNL     1      -2.028  -5.899  -3.279  0.00  0.00    -0.019 C 
ATOM     19  C   UNL     1      -2.510  -6.777  -2.121  0.00  0.00    -0.003 C 
ATOM     20  C   UNL     1      -1.308  -7.492  -1.500  0.00  0.00    -0.013 C 
ATOM     21  C   UNL     1      -0.279  -6.453  -1.050  0.00  0.00    -0.042 C 
ATOM     22  H   UNL     1       0.535  -6.281  -2.911  0.00  0.00    -0.081 HD
BRANCH  21  23
ATOM     23  C   UNL     1       0.925  -7.163  -0.428  0.00  0.00    +0.140 C 
BRANCH  23  24
ATOM     24  O   UNL     1       1.474  -8.084  -1.372  0.00  0.00    -0.397 OA
ATOM     25  H   UNL     1       2.243  -8.572  -1.045  0.00  0.00    +0.209 HD
ENDBRANCH  23  24
ENDBRANCH  21  23
ENDBRANCH  15  16
ENDBRANCH   2  15
TORSDOF 7
