REMARK  Name = ZINC67408012
REMARK  9 active torsions:
REMARK  status: ('A' for Active; 'I' for Inactive)
REMARK    1  A    between atoms: C_1  and  C_2
REMARK    2  A    between atoms: C_6  and  C_7
REMARK    3  A    between atoms: N_9  and  N_10
REMARK    4  A    between atoms: N_13  and  C_14
REMARK    5  A    between atoms: C_14  and  C_15
REMARK    6  A    between atoms: C_15  and  N_23
REMARK    7  A    between atoms: C_19  and  C_22
REMARK    8  A    between atoms: N_23  and  C_24
REMARK    9  A    between atoms: N_23  and  C_25
REMARK                            x       y       z     vdW  Elec       q    Type
REMARK                         _______ _______ _______ _____ _____    ______ ____
ROOT
ATOM      1  N   UNL     1       2.910  -2.499   8.918  0.00  0.00    -0.218 N 
ATOM      2  C   UNL     1       1.744  -2.670   8.265  0.00  0.00    +0.316 C 
ATOM      3  O   UNL     1       0.918  -1.778   8.252  0.00  0.00    -0.251 OA
ATOM      4  N   UNL     1       1.493  -3.830   7.626  0.00  0.00    -0.300 N 
ATOM      5  H   UNL     1       3.091  -1.664   9.378  0.00  0.00    +0.174 HD
ATOM      6  H   UNL     1       2.152  -4.542   7.637  0.00  0.00    +0.150 HD
ENDROOT
BRANCH   1   9
ATOM      7  C   UNL     1       5.028  -3.356   9.586  0.00  0.00    +0.267 C 
ATOM      8  O   UNL     1       5.255  -2.309  10.163  0.00  0.00    -0.268 OA
ATOM      9  N   UNL     1       3.862  -3.527   8.933  0.00  0.00    -0.229 N 
ATOM     10  H   UNL     1       3.681  -4.362   8.473  0.00  0.00    +0.173 HD
BRANCH   7  16
ATOM     11  C   UNL     1       7.808  -3.290  10.992  0.00  0.00    +0.045 C 
ATOM     12  C   UNL     1       7.271  -4.459  10.207  0.00  0.00    -0.031 A 
ATOM     13  C   UNL     1       7.985  -5.623  10.051  0.00  0.00    +0.011 A 
ATOM     14  C   UNL     1       7.443  -6.638   9.333  0.00  0.00    +0.046 A 
ATOM     15  S   UNL     1       5.948  -6.045   8.847  0.00  0.00    -0.092 S 
ATOM     16  C   UNL     1       6.024  -4.432   9.602  0.00  0.00    +0.078 A 
ENDBRANCH   7  16
ENDBRANCH   1   9
BRANCH   4  17
ATOM     17  C   UNL     1       0.225  -4.016   6.916  0.00  0.00    +0.094 C 
BRANCH  17  18
ATOM     18  C   UNL     1       0.252  -5.349   6.165  0.00  0.00    -0.050 C 
ATOM     19  C   UNL     1      -1.017  -5.484   5.321  0.00  0.00    -0.010 C 
ATOM     20  C   UNL     1      -2.244  -5.437   6.234  0.00  0.00    -0.001 C 
ATOM     21  C   UNL     1      -2.176  -6.588   7.239  0.00  0.00    +0.003 C 
ATOM     22  C   UNL     1      -0.907  -6.453   8.084  0.00  0.00    -0.015 C 
ATOM     23  C   UNL     1       0.320  -6.500   7.171  0.00  0.00    -0.007 C 
ATOM     24  C   UNL     1      -0.839  -7.604   9.089  0.00  0.00    +0.007 C 
BRANCH  18  25
ATOM     25  N   UNL     1       1.430  -5.394   5.289  0.00  0.00    +0.381 N 
ATOM     26  C   UNL     1       1.436  -6.658   4.541  0.00  0.00    -0.096 C 
ATOM     27  C   UNL     1       1.382  -4.268   4.346  0.00  0.00    -0.096 C 
ATOM     28  H   UNL     1       2.267  -5.329   5.848  0.00  0.00    -0.082 HD
ENDBRANCH  18  25
ENDBRANCH  17  18
ENDBRANCH   4  17
TORSDOF 5
