REMARK  Name = ZINC39227959
REMARK  6 active torsions:
REMARK  status: ('A' for Active; 'I' for Inactive)
REMARK    1  A    between atoms: C_4  and  O_7
REMARK    2  A    between atoms: O_7  and  C_8
REMARK    3  A    between atoms: C_8  and  C_9
REMARK    4  A    between atoms: C_9  and  N_10
REMARK    5  A    between atoms: C_11  and  C_13
REMARK    6  A    between atoms: C_15  and  O_40
REMARK                            x       y       z     vdW  Elec       q    Type
REMARK                         _______ _______ _______ _____ _____    ______ ____
ROOT
ATOM      1  C   UNL     1       7.609  -2.295   2.676  0.00  0.00    +0.107 C 
ATOM      2  C   UNL     1       6.845  -2.885   3.864  0.00  0.00    +0.127 C 
ATOM      3  C   UNL     1       7.558  -2.525   5.168  0.00  0.00    +0.032 C 
ATOM      4  C   UNL     1       8.986  -3.078   5.146  0.00  0.00    +0.004 C 
ATOM      5  C   UNL     1       9.740  -2.474   3.961  0.00  0.00    -0.024 C 
ATOM      6  C   UNL     1       9.030  -2.861   2.661  0.00  0.00    +0.004 C 
ATOM      7  C   UNL     1       9.810  -2.298   1.471  0.00  0.00    -0.005 C 
ATOM      8  C   UNL     1      11.244  -2.830   1.531  0.00  0.00    -0.020 C 
ATOM      9  C   UNL     1      12.043  -2.293   0.370  0.00  0.00    +0.006 A 
ATOM     10  H   UNL     1      10.767  -2.406  -1.272  0.00  0.00    +0.166 HD
ATOM     11  C   UNL     1      13.319  -1.859   0.501  0.00  0.00    -0.022 A 
ATOM     12  C   UNL     1      13.757  -1.422  -0.805  0.00  0.00    +0.003 A 
ATOM     13  C   UNL     1      14.960  -0.885  -1.275  0.00  0.00    +0.010 A 
ATOM     14  C   UNL     1      15.023  -0.579  -2.612  0.00  0.00    +0.001 A 
ATOM     15  C   UNL     1      13.953  -0.785  -3.466  0.00  0.00    +0.002 A 
ATOM     16  C   UNL     1      12.751  -1.314  -3.029  0.00  0.00    +0.026 A 
ATOM     17  C   UNL     1      12.657  -1.635  -1.677  0.00  0.00    +0.047 A 
ATOM     18  N   UNL     1      11.641  -2.162  -0.931  0.00  0.00    -0.359 N 
ATOM     19  C   UNL     1      14.067  -1.868   1.810  0.00  0.00    +0.019 C 
ATOM     20  C   UNL     1      13.296  -2.761   2.793  0.00  0.00    -0.073 C 
ATOM     21  N   UNL     1      11.877  -2.393   2.783  0.00  0.00    +0.386 N 
ATOM     22  C   UNL     1      11.176  -2.999   3.924  0.00  0.00    -0.074 C 
ATOM     23  H   UNL     1      11.801  -1.389   2.854  0.00  0.00    -0.081 HD
ENDROOT
BRANCH   1  25
ATOM     24  N   UNL     1       5.636  -2.268   1.185  0.00  0.00    -0.312 N 
ATOM     25  C   UNL     1       6.908  -2.661   1.393  0.00  0.00    +0.219 C 
ATOM     26  O   UNL     1       7.488  -3.309   0.548  0.00  0.00    -0.275 OA
ATOM     27  H   UNL     1       5.171  -1.750   1.861  0.00  0.00    +0.149 HD
BRANCH  24  28
ATOM     28  C   UNL     1       4.954  -2.624  -0.061  0.00  0.00    +0.145 C 
BRANCH  28  29
ATOM     29  C   UNL     1       3.531  -2.060  -0.044  0.00  0.00    +0.247 C 
BRANCH  29  30
ATOM     30  O   UNL     1       3.586  -0.632  -0.037  0.00  0.00    -0.490 OA
BRANCH  30  34
ATOM     31  C   UNL     1      -0.017   1.378   0.010  0.00  0.00    +0.000 A 
ATOM     32  C   UNL     1       1.170   2.088   0.002  0.00  0.00    +0.004 A 
ATOM     33  C   UNL     1       2.377   1.417  -0.013  0.00  0.00    +0.045 A 
ATOM     34  C   UNL     1       2.399   0.030  -0.021  0.00  0.00    +0.121 A 
ATOM     35  C   UNL     1       1.207  -0.680  -0.013  0.00  0.00    +0.045 A 
ATOM     36  C   UNL     1       0.002  -0.004   0.002  0.00  0.00    +0.004 A 
ENDBRANCH  30  34
ENDBRANCH  29  30
ENDBRANCH  28  29
ENDBRANCH  24  28
ENDBRANCH   1  25
BRANCH   2  37
ATOM     37  O   UNL     1       6.786  -4.307   3.732  0.00  0.00    -0.391 OA
ATOM     38  H   UNL     1       6.315  -4.749   4.452  0.00  0.00    +0.210 HD
ENDBRANCH   2  37
TORSDOF 6
