REMARK  Name = ZINC01568124
REMARK  6 active torsions:
REMARK  status: ('A' for Active; 'I' for Inactive)
REMARK    1  A    between atoms: C_4  and  O_34
REMARK    2  A    between atoms: C_5  and  C_7
REMARK    3  A    between atoms: N_9  and  C_14
REMARK    4  A    between atoms: C_17  and  N_20
REMARK    5  A    between atoms: C_21  and  C_27
REMARK    6  A    between atoms: C_32  and  O_33
REMARK                            x       y       z     vdW  Elec       q    Type
REMARK                         _______ _______ _______ _____ _____    ______ ____
ROOT
ATOM      1  C   UNL     1       3.114   3.090  -0.537  0.00  0.00    +0.038 A 
ATOM      2  C   UNL     1       2.811   4.394  -0.908  0.00  0.00    +0.025 A 
ATOM      3  C   UNL     1       3.826   5.282  -1.200  0.00  0.00    +0.025 A 
ATOM      4  C   UNL     1       5.151   4.869  -1.133  0.00  0.00    +0.038 A 
ATOM      5  C   UNL     1       5.453   3.564  -0.768  0.00  0.00    +0.025 A 
ATOM      6  C   UNL     1       4.438   2.677  -0.471  0.00  0.00    +0.025 A 
ENDROOT
BRANCH   1   8
ATOM      7  C   UNL     1       2.004   1.566   1.098  0.00  0.00    +0.173 C 
ATOM      8  N   UNL     1       2.083   2.191  -0.236  0.00  0.00    -0.254 N 
ATOM      9  C   UNL     1       1.167   1.891  -1.148  0.00  0.00    +0.231 C 
ATOM     10  O   UNL     1       1.200   2.379  -2.257  0.00  0.00    -0.274 OA
ATOM     11  C   UNL     1       0.073   0.912  -0.751  0.00  0.00    +0.167 C 
ATOM     12  S   UNL     1       0.285   0.896   1.082  0.00  0.00    -0.124 S 
BRANCH   7  17
ATOM     13  C   UNL     1       1.908   4.835   2.984  0.00  0.00    +0.001 A 
ATOM     14  C   UNL     1       2.489   4.480   4.188  0.00  0.00    +0.004 A 
ATOM     15  C   UNL     1       2.913   3.182   4.395  0.00  0.00    +0.046 A 
ATOM     16  C   UNL     1       2.753   2.233   3.396  0.00  0.00    +0.123 A 
ATOM     17  C   UNL     1       2.175   2.593   2.187  0.00  0.00    +0.025 A 
ATOM     18  C   UNL     1       1.752   3.893   1.985  0.00  0.00    +0.010 A 
BRANCH  16  19
ATOM     19  O   UNL     1       3.166   0.954   3.599  0.00  0.00    -0.506 OA
ATOM     20  H   UNL     1       4.082   0.791   3.338  0.00  0.00    +0.292 HD
ENDBRANCH  16  19
ENDBRANCH   7  17
ENDBRANCH   1   8
BRANCH   4  21
ATOM     21  N   UNL     1       6.181   5.769  -1.434  0.00  0.00    -0.254 N 
ATOM     22  C   UNL     1       6.340   7.009  -0.652  0.00  0.00    +0.173 C 
ATOM     23  S   UNL     1       8.040   7.531  -1.144  0.00  0.00    -0.124 S 
ATOM     24  C   UNL     1       8.123   6.532  -2.693  0.00  0.00    +0.167 C 
ATOM     25  C   UNL     1       7.028   5.513  -2.423  0.00  0.00    +0.231 C 
ATOM     26  O   UNL     1       6.930   4.504  -3.089  0.00  0.00    -0.274 OA
BRANCH  22  27
ATOM     27  C   UNL     1       6.267   6.730   0.827  0.00  0.00    +0.025 A 
ATOM     28  C   UNL     1       6.384   5.434   1.292  0.00  0.00    +0.010 A 
ATOM     29  C   UNL     1       6.316   5.177   2.649  0.00  0.00    +0.001 A 
ATOM     30  C   UNL     1       6.132   6.215   3.544  0.00  0.00    +0.004 A 
ATOM     31  C   UNL     1       6.016   7.513   3.083  0.00  0.00    +0.046 A 
ATOM     32  C   UNL     1       6.087   7.774   1.722  0.00  0.00    +0.123 A 
BRANCH  32  33
ATOM     33  O   UNL     1       5.977   9.050   1.268  0.00  0.00    -0.506 OA
ATOM     34  H   UNL     1       5.070   9.321   1.074  0.00  0.00    +0.292 HD
ENDBRANCH  32  33
ENDBRANCH  22  27
ENDBRANCH   4  21
TORSDOF 6
