REMARK  Name = ZINC25330875
REMARK  10 active torsions:
REMARK  status: ('A' for Active; 'I' for Inactive)
REMARK    1  A    between atoms: C_1  and  C_2
REMARK    2  A    between atoms: C_3  and  C_13
REMARK    3  A    between atoms: C_4  and  C_12
REMARK    4  A    between atoms: C_13  and  C_14
REMARK    5  A    between atoms: N_16  and  C_17
REMARK    6  A    between atoms: C_17  and  C_18
REMARK    7  A    between atoms: C_18  and  C_20
REMARK    8  A    between atoms: C_18  and  N_25
REMARK    9  A    between atoms: N_25  and  C_26
REMARK   10  A    between atoms: N_25  and  C_27
REMARK                            x       y       z     vdW  Elec       q    Type
REMARK                         _______ _______ _______ _____ _____    ______ ____
ROOT
ATOM      1  C   UNL     1       0.210  -3.326   0.710  0.00  0.00    +0.134 C 
ENDROOT
BRANCH   1   4
ATOM      2  C   UNL     1      -2.425  -2.091   0.603  0.00  0.00    +0.066 C 
ATOM      3  C   UNL     1      -1.222  -1.268   0.985  0.00  0.00    +0.047 A 
ATOM      4  C   UNL     1       0.043  -1.864   1.036  0.00  0.00    +0.004 A 
ATOM      5  C   UNL     1       1.119  -1.110   1.382  0.00  0.00    +0.049 A 
ATOM      6  N   UNL     1       0.937   0.205   1.671  0.00  0.00    -0.199 N 
ATOM      7  C   UNL     1      -0.311   0.757   1.612  0.00  0.00    +0.255 A 
ATOM      8  N   UNL     1      -1.365   0.007   1.270  0.00  0.00    -0.216 NA
ATOM      9  N   UNL     1      -0.193   2.040   1.939  0.00  0.00    -0.176 NA
ATOM     10  C   UNL     1       1.081   2.320   2.202  0.00  0.00    +0.234 A 
ATOM     11  N   UNL     1       1.809   1.233   2.052  0.00  0.00    -0.128 NA
ATOM     12  N   UNL     1       1.568   3.570   2.577  0.00  0.00    -0.326 N 
ATOM     13  C   UNL     1       2.494  -1.724   1.445  0.00  0.00    +0.066 C 
ATOM     14  H   UNL     1       2.642   3.704   2.774  0.00  0.00    +0.145 HD
ATOM     15  H   UNL     1       0.879   4.421   2.677  0.00  0.00    +0.145 HD
ENDBRANCH   1   4
BRANCH   1  16
ATOM     16  C   UNL     1       0.475  -3.485  -0.765  0.00  0.00    +0.217 C 
ATOM     17  O   UNL     1       0.523  -2.507  -1.481  0.00  0.00    -0.275 OA
ATOM     18  N   UNL     1       0.658  -4.713  -1.288  0.00  0.00    -0.316 N 
ATOM     19  H   UNL     1       0.614  -5.600  -0.638  0.00  0.00    +0.149 HD
BRANCH  18  20
ATOM     20  C   UNL     1       0.915  -4.868  -2.722  0.00  0.00    +0.093 C 
BRANCH  20  21
ATOM     21  C   UNL     1       1.214  -6.337  -3.031  0.00  0.00    -0.020 C 
BRANCH  21  22
ATOM     22  C   UNL     1       2.474  -6.754  -2.318  0.00  0.00    -0.052 A 
ATOM     23  C   UNL     1       2.407  -7.464  -1.134  0.00  0.00    +0.009 A 
ATOM     24  C   UNL     1       3.559  -7.824  -0.518  0.00  0.00    +0.045 A 
ATOM     25  S   UNL     1       4.793  -7.155  -1.621  0.00  0.00    -0.105 S 
ATOM     26  C   UNL     1       3.689  -6.445  -2.832  0.00  0.00    +0.047 A 
ENDBRANCH  21  22
BRANCH  21  27
ATOM     27  N   UNL     1       1.391  -6.506  -4.480  0.00  0.00    +0.382 N 
ATOM     28  C   UNL     1       1.628  -7.915  -4.820  0.00  0.00    -0.096 C 
ATOM     29  C   UNL     1       0.238  -5.973  -5.217  0.00  0.00    -0.096 C 
ATOM     30  H   UNL     1       2.280  -5.931  -4.780  0.00  0.00    -0.082 HD
ENDBRANCH  21  27
ENDBRANCH  20  21
ENDBRANCH  18  20
ENDBRANCH   1  16
TORSDOF 6
