REMARK  Name = ZINC66665805
REMARK  9 active torsions:
REMARK  status: ('A' for Active; 'I' for Inactive)
REMARK    1  A    between atoms: C_1  and  C_2
REMARK    2  A    between atoms: C_2  and  C_3
REMARK    3  A    between atoms: C_2  and  C_4
REMARK    4  A    between atoms: N_11  and  C_12
REMARK    5  A    between atoms: C_12  and  C_13
REMARK    6  A    between atoms: C_13  and  C_15
REMARK    7  A    between atoms: C_13  and  O_23
REMARK    8  A    between atoms: C_15  and  N_16
REMARK    9  A    between atoms: N_19  and  C_22
REMARK                            x       y       z     vdW  Elec       q    Type
REMARK                         _______ _______ _______ _____ _____    ______ ____
ROOT
ATOM      1  C   UNL     1      -1.316  -2.459   1.392  0.00  0.00    -0.045 C 
ENDROOT
BRANCH   1   8
ATOM      2  C   UNL     1      -0.923  -0.280   0.466  0.00  0.00    +0.022 C 
ATOM      3  C   UNL     1      -1.120   0.592  -0.741  0.00  0.00    +0.200 C 
ATOM      4  O   UNL     1      -0.549   1.662  -0.785  0.00  0.00    -0.278 OA
ATOM      5  N   UNL     1      -1.899   0.237  -1.769  0.00  0.00    -0.318 N 
ATOM      6  C   UNL     1      -2.603  -1.041  -1.819  0.00  0.00    +0.085 C 
ATOM      7  C   UNL     1      -2.671  -1.653  -0.418  0.00  0.00    -0.059 C 
ATOM      8  N   UNL     1      -1.317  -1.660   0.159  0.00  0.00    +0.390 N 
ATOM      9  H   UNL     1      -1.999   0.854  -2.512  0.00  0.00    +0.149 HD
ATOM     10  H   UNL     1      -0.669  -2.058  -0.504  0.00  0.00    -0.081 HD
BRANCH   2  12
ATOM     11  C   UNL     1       1.422  -0.615  -0.327  0.00  0.00    +0.006 C 
ATOM     12  C   UNL     1       0.550  -0.253   0.877  0.00  0.00    -0.022 C 
ATOM     13  C   UNL     1       0.917   1.149   1.369  0.00  0.00    +0.006 C 
ENDBRANCH   2  12
ENDBRANCH   1   8
BRANCH   1  14
ATOM     14  C   UNL     1      -1.505  -3.936   1.043  0.00  0.00    +0.112 C 
BRANCH  14  15
ATOM     15  O   UNL     1      -2.835  -4.145   0.562  0.00  0.00    -0.392 OA
ATOM     16  H   UNL     1      -3.524  -3.912   1.199  0.00  0.00    +0.210 HD
ENDBRANCH  14  15
BRANCH  14  17
ATOM     17  C   UNL     1      -1.274  -4.789   2.292  0.00  0.00    +0.113 C 
BRANCH  17  18
ATOM     18  N   UNL     1      -1.356  -6.212   1.935  0.00  0.00    -0.303 NA
ATOM     19  C   UNL     1      -1.596  -7.040   3.125  0.00  0.00    +0.066 C 
ATOM     20  C   UNL     1      -1.733  -8.505   2.704  0.00  0.00    -0.064 C 
ATOM     21  N   UNL     1      -0.504  -8.937   2.026  0.00  0.00    +0.379 N 
ATOM     22  C   UNL     1      -0.290  -8.117   0.827  0.00  0.00    -0.064 C 
ATOM     23  C   UNL     1      -0.141  -6.649   1.232  0.00  0.00    +0.066 C 
ATOM     24  C   UNL     1      -0.629 -10.348   1.638  0.00  0.00    -0.096 C 
ATOM     25  H   UNL     1       0.281  -8.829   2.651  0.00  0.00    -0.082 HD
ENDBRANCH  17  18
ENDBRANCH  14  17
ENDBRANCH   1  14
TORSDOF 6
