REMARK  Name = ZINC22589488
REMARK  10 active torsions:
REMARK  status: ('A' for Active; 'I' for Inactive)
REMARK    1  A    between atoms: C_4  and  C_7
REMARK    2  A    between atoms: C_7  and  O_8
REMARK    3  A    between atoms: O_8  and  C_9
REMARK    4  A    between atoms: C_12  and  C_18
REMARK    5  A    between atoms: C_14  and  C_15
REMARK    6  A    between atoms: C_18  and  C_20
REMARK    7  A    between atoms: C_18  and  O_34
REMARK    8  A    between atoms: C_20  and  N_21
REMARK    9  A    between atoms: N_21  and  C_22
REMARK   10  A    between atoms: C_22  and  C_23
REMARK                            x       y       z     vdW  Elec       q    Type
REMARK                         _______ _______ _______ _____ _____    ______ ____
ROOT
ATOM      1  C   UNL     1       5.681   9.471   4.456  0.00  0.00    +0.133 A 
ATOM      2  C   UNL     1       6.185   8.240   4.850  0.00  0.00    +0.047 A 
ATOM      3  C   UNL     1       6.246   7.196   3.949  0.00  0.00    +0.010 A 
ATOM      4  C   UNL     1       5.816   7.371   2.644  0.00  0.00    -0.020 A 
ATOM      5  C   UNL     1       5.312   8.587   2.235  0.00  0.00    +0.022 A 
ATOM      6  C   UNL     1       5.239   9.650   3.138  0.00  0.00    +0.078 A 
ENDROOT
BRANCH   6   7
ATOM      7  C   UNL     1       4.701  10.954   2.708  0.00  0.00    +0.245 C 
ATOM      8  O   UNL     1       4.639  11.877   3.497  0.00  0.00    -0.270 OA
ATOM      9  N   UNL     1       4.277  11.123   1.439  0.00  0.00    -0.325 N 
ATOM     10  H   UNL     1       3.876  12.095   1.118  0.00  0.00    +0.145 HD
ATOM     11  H   UNL     1       4.333  10.288   0.725  0.00  0.00    +0.145 HD
ENDBRANCH   6   7
BRANCH   1  12
ATOM     12  O   UNL     1       5.616  10.496   5.342  0.00  0.00    -0.487 OA
BRANCH  12  13
ATOM     13  C   UNL     1       6.084  10.238   6.668  0.00  0.00    +0.264 C 
BRANCH  13  17
ATOM     14  C   UNL     1       5.661  13.767   9.038  0.00  0.00    +0.000 A 
ATOM     15  C   UNL     1       4.630  12.849   8.975  0.00  0.00    +0.000 A 
ATOM     16  C   UNL     1       4.766  11.707   8.208  0.00  0.00    +0.007 A 
ATOM     17  C   UNL     1       5.935  11.483   7.504  0.00  0.00    -0.010 A 
ATOM     18  C   UNL     1       6.968  12.399   7.571  0.00  0.00    +0.007 A 
ATOM     19  C   UNL     1       6.830  13.543   8.334  0.00  0.00    +0.000 A 
ENDBRANCH  13  17
ENDBRANCH  12  13
ENDBRANCH   1  12
BRANCH   4  20
ATOM     20  C   UNL     1       5.893   6.225   1.668  0.00  0.00    +0.128 C 
BRANCH  20  21
ATOM     21  O   UNL     1       7.060   5.446   1.940  0.00  0.00    -0.389 OA
ATOM     22  H   UNL     1       7.285   4.562   1.326  0.00  0.00    +0.210 HD
ENDBRANCH  20  21
BRANCH  20  23
ATOM     23  C   UNL     1       4.648   5.347   1.813  0.00  0.00    -0.046 C 
BRANCH  23  24
ATOM     24  N   UNL     1       4.723   4.230   0.863  0.00  0.00    +0.383 N 
ATOM     25  H   UNL     1       4.776   4.624  -0.163  0.00  0.00    -0.086 HD
ATOM     26  H   UNL     1       5.622   3.631   1.071  0.00  0.00    -0.086 HD
BRANCH  24  27
ATOM     27  C   UNL     1       3.542   3.364   0.974  0.00  0.00    -0.046 C 
BRANCH  27  28
ATOM     28  C   UNL     1       3.657   2.214  -0.030  0.00  0.00    +0.132 C 
ATOM     29  C   UNL     1       2.383   1.410  -0.015  0.00  0.00    -0.017 A 
ATOM     30  C   UNL     1       1.171   2.083   0.002  0.00  0.00    +0.006 A 
ATOM     31  C   UNL     1      -0.017   1.378   0.010  0.00  0.00    +0.000 A 
ATOM     32  C   UNL     1       0.002  -0.004   0.002  0.00  0.00    +0.000 A 
ATOM     33  C   UNL     1       1.209  -0.675  -0.011  0.00  0.00    +0.004 A 
ATOM     34  C   UNL     1       2.401   0.031  -0.019  0.00  0.00    -0.040 A 
ATOM     35  C   UNL     1       3.699  -0.736  -0.029  0.00  0.00    +0.063 C 
ATOM     36  C   UNL     1       4.842   0.187  -0.454  0.00  0.00    +0.165 C 
ATOM     37  O   UNL     1       4.767   1.389   0.322  0.00  0.00    -0.374 OA
ENDBRANCH  27  28
ENDBRANCH  24  27
ENDBRANCH  23  24
ENDBRANCH  20  23
ENDBRANCH   4  20
TORSDOF 10
