REMARK  Name = ZINC04096804
REMARK  8 active torsions:
REMARK  status: ('A' for Active; 'I' for Inactive)
REMARK    1  A    between atoms: C_1  and  C_2
REMARK    2  A    between atoms: C_5  and  O_31
REMARK    3  A    between atoms: C_15  and  O_30
REMARK    4  A    between atoms: C_18  and  C_29
REMARK    5  A    between atoms: C_23  and  C_24
REMARK    6  A    between atoms: C_23  and  O_28
REMARK    7  A    between atoms: C_24  and  C_26
REMARK    8  A    between atoms: C_26  and  O_27
REMARK                            x       y       z     vdW  Elec       q    Type
REMARK                         _______ _______ _______ _____ _____    ______ ____
ROOT
ATOM      1  C   UNL     1       0.233   2.895  -2.247  0.00  0.00    +0.016 C 
ATOM      2  C   UNL     1       0.116   3.594  -0.895  0.00  0.00    -0.005 C 
ATOM      3  C   UNL     1      -1.296   3.387  -0.343  0.00  0.00    +0.014 C 
ATOM      4  C   UNL     1      -2.342   4.116  -1.182  0.00  0.00    +0.032 C 
ATOM      5  C   UNL     1      -2.054   5.616  -1.228  0.00  0.00    +0.119 C 
ATOM      6  C   UNL     1      -0.695   5.843  -1.898  0.00  0.00    +0.062 C 
ATOM      7  C   UNL     1       0.344   5.072  -1.100  0.00  0.00    -0.065 C 
ATOM      8  C   UNL     1       1.355   5.742  -0.628  0.00  0.00    -0.027 C 
ATOM      9  C   UNL     1       2.449   5.113   0.196  0.00  0.00    +0.031 C 
ATOM     10  C   UNL     1       2.513   3.641  -0.204  0.00  0.00    +0.003 C 
ATOM     11  C   UNL     1       1.140   3.014   0.067  0.00  0.00    +0.031 C 
ATOM     12  C   UNL     1       1.268   1.502   0.037  0.00  0.00    +0.119 C 
ATOM     13  C   UNL     1       2.083   1.008   1.252  0.00  0.00    +0.041 C 
ATOM     14  C   UNL     1       3.116   2.023   1.654  0.00  0.00    +0.009 C 
ATOM     15  C   UNL     1       3.606   2.858   0.455  0.00  0.00    +0.002 C 
ATOM     16  C   UNL     1       4.756   3.670   1.069  0.00  0.00    +0.008 C 
ATOM     17  C   UNL     1       5.412   2.687   2.074  0.00  0.00    +0.043 C 
ATOM     18  C   UNL     1       4.450   1.474   2.194  0.00  0.00    +0.131 C 
ATOM     19  C   UNL     1       2.554   2.921   2.771  0.00  0.00    +0.015 C 
ENDROOT
BRANCH  18  20
ATOM     20  C   UNL     1       4.967   0.325   1.379  0.00  0.00    +0.190 C 
ATOM     21  O   UNL     1       4.717   0.262   0.199  0.00  0.00    -0.292 OA
BRANCH  20  22
ATOM     22  C   UNL     1       5.799  -0.748   2.032  0.00  0.00    +0.233 C 
BRANCH  22  23
ATOM     23  O   UNL     1       6.169  -1.724   1.056  0.00  0.00    -0.387 OA
ATOM     24  H   UNL     1       6.707  -2.447   1.407  0.00  0.00    +0.210 HD
ENDBRANCH  22  23
ENDBRANCH  20  22
ENDBRANCH  18  20
BRANCH  18  25
ATOM     25  O   UNL     1       4.297   1.098   3.562  0.00  0.00    -0.380 OA
ATOM     26  H   UNL     1       5.102   0.743   3.965  0.00  0.00    +0.211 HD
ENDBRANCH  18  25
BRANCH  12  27
ATOM     27  O   UNL     1      -0.015   0.873   0.077  0.00  0.00    -0.391 OA
ATOM     28  H   UNL     1       0.020  -0.093   0.082  0.00  0.00    +0.210 HD
ENDBRANCH  12  27
BRANCH   5  29
ATOM     29  O   UNL     1      -2.027   6.144   0.099  0.00  0.00    -0.391 OA
ATOM     30  H   UNL     1      -1.849   7.093   0.141  0.00  0.00    +0.210 HD
ENDBRANCH   5  29
TORSDOF 6
