REMARK  Name = ZINC09185637
REMARK  13 active torsions:
REMARK  status: ('A' for Active; 'I' for Inactive)
REMARK    1  A    between atoms: C_1  and  C_2
REMARK    2  A    between atoms: C_2  and  O_3
REMARK    3  A    between atoms: O_3  and  C_4
REMARK    4  A    between atoms: C_4  and  C_6
REMARK    5  A    between atoms: C_7  and  C_22
REMARK    6  A    between atoms: N_8  and  C_21
REMARK    7  A    between atoms: C_11  and  C_17
REMARK    8  A    between atoms: C_12  and  O_16
REMARK    9  A    between atoms: C_17  and  N_18
REMARK   10  A    between atoms: N_18  and  C_19
REMARK   11  A    between atoms: N_18  and  C_20
REMARK   12  A    between atoms: C_22  and  S_23
REMARK   13  A    between atoms: S_23  and  C_24
REMARK                            x       y       z     vdW  Elec       q    Type
REMARK                         _______ _______ _______ _____ _____    ______ ____
ROOT
ATOM      1  C   UNL     1       1.450  -2.345  -2.518  0.00  0.00    +0.088 A 
ATOM      2  C   UNL     1       2.776  -2.644  -2.638  0.00  0.00    +0.044 A 
ATOM      3  N   UNL     1       3.027  -3.127  -3.878  0.00  0.00    -0.345 N 
ATOM      4  C   UNL     1       1.866  -3.163  -4.625  0.00  0.00    +0.051 A 
ATOM      5  C   UNL     1       0.827  -2.684  -3.812  0.00  0.00    +0.019 A 
ATOM      6  C   UNL     1      -0.472  -2.612  -4.306  0.00  0.00    -0.011 A 
ATOM      7  C   UNL     1      -0.735  -3.019  -5.601  0.00  0.00    +0.133 A 
ATOM      8  C   UNL     1       0.295  -3.498  -6.406  0.00  0.00    +0.061 A 
ATOM      9  C   UNL     1       1.586  -3.564  -5.927  0.00  0.00    +0.045 A 
ATOM     10 BR   UNL     1      -0.078  -4.052  -8.175  0.00  0.00    -0.046 Br
ATOM     11  C   UNL     1       4.345  -3.550  -4.359  0.00  0.00    +0.149 C 
ENDROOT
BRANCH   1  12
ATOM     12  C   UNL     1       0.776  -1.800  -1.335  0.00  0.00    +0.342 C 
ATOM     13  O   UNL     1       0.312  -2.551  -0.499  0.00  0.00    -0.245 OA
BRANCH  12  14
ATOM     14  O   UNL     1       0.671  -0.465  -1.174  0.00  0.00    -0.461 OA
BRANCH  14  16
ATOM     15  C   UNL     1      -0.019   1.526   0.010  0.00  0.00    +0.048 C 
ATOM     16  C   UNL     1       0.002  -0.004   0.002  0.00  0.00    +0.229 C 
ENDBRANCH  14  16
ENDBRANCH  12  14
ENDBRANCH   1  12
BRANCH   7  17
ATOM     17  O   UNL     1      -2.002  -2.951  -6.090  0.00  0.00    -0.505 OA
ATOM     18  H   UNL     1      -2.213  -2.111  -6.520  0.00  0.00    +0.292 HD
ENDBRANCH   7  17
BRANCH   6  19
ATOM     19  C   UNL     1      -1.587  -2.094  -3.434  0.00  0.00    -0.039 C 
BRANCH  19  20
ATOM     20  N   UNL     1      -1.706  -0.640  -3.604  0.00  0.00    +0.379 N 
ATOM     21  C   UNL     1      -2.119  -0.340  -4.982  0.00  0.00    -0.096 C 
ATOM     22  C   UNL     1      -2.711  -0.118  -2.668  0.00  0.00    -0.096 C 
ATOM     23  H   UNL     1      -0.815  -0.205  -3.418  0.00  0.00    -0.082 HD
ENDBRANCH  19  20
ENDBRANCH   6  19
BRANCH   2  24
ATOM     24  C   UNL     1       3.807  -2.464  -1.553  0.00  0.00    +0.129 C 
BRANCH  24  25
ATOM     25  S   UNL     1       4.528  -0.804  -1.674  0.00  0.00    -0.112 S 
BRANCH  25  26
ATOM     26  C   UNL     1       5.697  -0.750  -0.357  0.00  0.00    +0.045 A 
ATOM     27  C   UNL     1       6.522   0.269   0.018  0.00  0.00    +0.022 A 
ATOM     28  C   UNL     1       7.365   0.079   1.098  0.00  0.00    +0.009 A 
ATOM     29  C   UNL     1       7.346  -1.109   1.748  0.00  0.00    +0.046 A 
ATOM     30  S   UNL     1       6.104  -2.012   0.838  0.00  0.00    -0.090 S 
ENDBRANCH  25  26
ENDBRANCH  24  25
ENDBRANCH   2  24
TORSDOF 9
