REMARK  Name = ZINC46257188
REMARK  8 active torsions:
REMARK  status: ('A' for Active; 'I' for Inactive)
REMARK    1  A    between atoms: C_1  and  S_2
REMARK    2  A    between atoms: S_2  and  C_3
REMARK    3  A    between atoms: C_3  and  C_4
REMARK    4  A    between atoms: C_4  and  C_5
REMARK    5  A    between atoms: C_5  and  C_7
REMARK    6  A    between atoms: C_5  and  N_17
REMARK    7  A    between atoms: N_9  and  C_10
REMARK    8  A    between atoms: C_10  and  C_11
REMARK                            x       y       z     vdW  Elec       q    Type
REMARK                         _______ _______ _______ _____ _____    ______ ____
ROOT
ATOM      1  C   UNL     1      -3.356  -2.382   0.021  0.00  0.00    +0.161 C 
ENDROOT
BRANCH   1   2
ATOM      2  N   UNL     1      -3.989  -1.935  -1.222  0.00  0.00    -0.288 N 
ATOM      3  C   UNL     1      -3.542  -2.393  -2.408  0.00  0.00    +0.298 C 
ATOM      4  O   UNL     1      -2.612  -3.176  -2.446  0.00  0.00    -0.253 OA
ATOM      5  N   UNL     1      -4.124  -1.982  -3.552  0.00  0.00    -0.313 N 
ATOM      6  H   UNL     1      -4.731  -1.311  -1.192  0.00  0.00    +0.151 HD
ATOM      7  H   UNL     1      -4.865  -1.357  -3.522  0.00  0.00    +0.146 HD
ATOM      8  H   UNL     1      -3.802  -2.311  -4.406  0.00  0.00    +0.146 HD
ENDBRANCH   1   2
BRANCH   1   9
ATOM      9  C   UNL     1      -3.480  -3.879   0.138  0.00  0.00    +0.234 C 
ATOM     10  O   UNL     1      -3.698  -4.549  -0.849  0.00  0.00    -0.274 OA
ATOM     11  N   UNL     1      -3.348  -4.475   1.340  0.00  0.00    -0.309 N 
ATOM     12  H   UNL     1      -3.173  -3.939   2.130  0.00  0.00    +0.149 HD
BRANCH  11  13
ATOM     13  C   UNL     1      -3.468  -5.930   1.454  0.00  0.00    +0.146 C 
BRANCH  13  14
ATOM     14  C   UNL     1      -3.281  -6.339   2.892  0.00  0.00    +0.008 A 
ATOM     15  C   UNL     1      -4.212  -6.477   3.868  0.00  0.00    +0.028 A 
ATOM     16  C   UNL     1      -3.806  -6.868   5.131  0.00  0.00    +0.025 A 
ATOM     17  C   UNL     1      -2.489  -7.100   5.356  0.00  0.00    +0.060 A 
ATOM     18  S   UNL     1      -1.777  -6.773   3.751  0.00  0.00    -0.099 S 
ATOM     19 BR   UNL     1      -5.068  -7.074   6.524  0.00  0.00    -0.050 Br
ENDBRANCH  13  14
ENDBRANCH  11  13
ENDBRANCH   1   9
BRANCH   1  20
ATOM     20  C   UNL     1      -1.877  -1.992   0.009  0.00  0.00    +0.042 C 
BRANCH  20  21
ATOM     21  C   UNL     1      -1.752  -0.467   0.016  0.00  0.00    +0.071 C 
BRANCH  21  23
ATOM     22  C   UNL     1      -0.022   1.810   0.012  0.00  0.00    +0.084 C 
ATOM     23  S   UNL     1       0.002  -0.004   0.002  0.00  0.00    -0.164 S 
ENDBRANCH  21  23
ENDBRANCH  20  21
ENDBRANCH   1  20
TORSDOF 7
