REMARK  Name = ZINC59119923
REMARK  14 active torsions:
REMARK  status: ('A' for Active; 'I' for Inactive)
REMARK    1  A    between atoms: C_1  and  C_2
REMARK    2  A    between atoms: C_2  and  N_3
REMARK    3  A    between atoms: N_3  and  C_4
REMARK    4  A    between atoms: N_3  and  C_6
REMARK    5  A    between atoms: C_4  and  C_5
REMARK    6  A    between atoms: C_6  and  C_8
REMARK    7  A    between atoms: C_6  and  C_25
REMARK    8  A    between atoms: C_8  and  N_9
REMARK    9  A    between atoms: N_12  and  C_13
REMARK   10  A    between atoms: C_13  and  C_14
REMARK   11  A    between atoms: C_14  and  C_16
REMARK   12  A    between atoms: C_14  and  O_24
REMARK   13  A    between atoms: C_19  and  O_22
REMARK   14  A    between atoms: O_22  and  C_23
REMARK                            x       y       z     vdW  Elec       q    Type
REMARK                         _______ _______ _______ _____ _____    ______ ____
ROOT
ATOM      1  N   UNL     1      -3.522  -2.495  -0.668  0.00  0.00    -0.301 N 
ATOM      2  C   UNL     1      -4.832  -2.813  -0.663  0.00  0.00    +0.300 C 
ATOM      3  O   UNL     1      -5.328  -3.330   0.320  0.00  0.00    -0.253 OA
ATOM      4  N   UNL     1      -5.592  -2.558  -1.746  0.00  0.00    -0.297 N 
ATOM      5  H   UNL     1      -3.127  -2.083  -1.451  0.00  0.00    +0.150 HD
ATOM      6  H   UNL     1      -5.196  -2.146  -2.530  0.00  0.00    +0.150 HD
ENDROOT
BRANCH   1   7
ATOM      7  C   UNL     1      -2.696  -2.773   0.510  0.00  0.00    +0.095 C 
BRANCH   7   8
ATOM      8  C   UNL     1      -1.303  -2.174   0.308  0.00  0.00    -0.020 C 
BRANCH   8   9
ATOM      9  C   UNL     1      -0.394  -2.633   1.419  0.00  0.00    -0.052 A 
ATOM     10  C   UNL     1       0.498  -3.669   1.213  0.00  0.00    +0.009 A 
ATOM     11  C   UNL     1       1.302  -4.057   2.233  0.00  0.00    +0.045 A 
ATOM     12  S   UNL     1       0.807  -2.943   3.538  0.00  0.00    -0.105 S 
ATOM     13  C   UNL     1      -0.434  -2.032   2.634  0.00  0.00    +0.047 A 
ENDBRANCH   8   9
BRANCH   8  14
ATOM     14  N   UNL     1      -1.393  -0.708   0.323  0.00  0.00    +0.385 N 
ATOM     15  H   UNL     1      -1.864  -0.408   1.164  0.00  0.00    -0.081 HD
BRANCH  14  17
ATOM     16  C   UNL     1      -0.129   1.386   0.444  0.00  0.00    -0.017 C 
ATOM     17  C   UNL     1      -0.042  -0.134   0.287  0.00  0.00    -0.081 C 
ENDBRANCH  14  17
BRANCH  14  18
ATOM     18  C   UNL     1      -2.151  -0.252  -0.850  0.00  0.00    -0.081 C 
ATOM     19  C   UNL     1      -1.496  -0.796  -2.122  0.00  0.00    -0.017 C 
ENDBRANCH  14  18
ENDBRANCH   8  14
ENDBRANCH   7   8
ENDBRANCH   1   7
BRANCH   4  20
ATOM     20  C   UNL     1      -7.015  -2.904  -1.740  0.00  0.00    +0.141 C 
BRANCH  20  21
ATOM     21  C   UNL     1      -7.641  -2.512  -3.081  0.00  0.00    +0.162 C 
BRANCH  21  22
ATOM     22  C   UNL     1      -9.105  -2.868  -3.075  0.00  0.00    -0.017 A 
ATOM     23  C   UNL     1     -10.027  -1.985  -2.543  0.00  0.00    +0.010 A 
ATOM     24  C   UNL     1     -11.370  -2.309  -2.537  0.00  0.00    +0.046 A 
ATOM     25  C   UNL     1     -11.793  -3.521  -3.064  0.00  0.00    +0.120 A 
ATOM     26  C   UNL     1     -10.866  -4.404  -3.597  0.00  0.00    +0.046 A 
ATOM     27  C   UNL     1      -9.525  -4.073  -3.606  0.00  0.00    +0.010 A 
BRANCH  25  28
ATOM     28  O   UNL     1     -13.114  -3.841  -3.058  0.00  0.00    -0.495 OA
ATOM     29  C   UNL     1     -13.477  -5.105  -3.617  0.00  0.00    +0.277 C 
ENDBRANCH  25  28
ENDBRANCH  21  22
BRANCH  21  30
ATOM     30  O   UNL     1      -7.493  -1.105  -3.283  0.00  0.00    -0.386 OA
ATOM     31  H   UNL     1      -7.915  -0.564  -2.602  0.00  0.00    +0.210 HD
ENDBRANCH  21  30
ENDBRANCH  20  21
ENDBRANCH   4  20
TORSDOF 11
