REMARK  Name = ZINC60361362
REMARK  5 active torsions:
REMARK  status: ('A' for Active; 'I' for Inactive)
REMARK    1  A    between atoms: C_1  and  C_2
REMARK    2  A    between atoms: C_2  and  C_4
REMARK    3  A    between atoms: C_2  and  N_15
REMARK    4  A    between atoms: N_6  and  C_7
REMARK    5  A    between atoms: C_8  and  C_12
REMARK                            x       y       z     vdW  Elec       q    Type
REMARK                         _______ _______ _______ _____ _____    ______ ____
ROOT
ATOM      1  C   UNL     1      -0.555   1.417   0.115  0.00  0.00    -0.004 C 
ATOM      2  C   UNL     1       0.002  -0.004   0.002  0.00  0.00    +0.017 C 
ENDROOT
BRANCH   2   3
ATOM      3  N   UNL     1      -1.094  -0.938  -0.287  0.00  0.00    +0.392 N 
ATOM      4  C   UNL     1      -1.765  -0.523  -1.520  0.00  0.00    -0.041 C 
ATOM      5  C   UNL     1      -2.650  -1.611  -2.062  0.00  0.00    -0.056 A 
ATOM      6  C   UNL     1      -4.017  -1.569  -1.890  0.00  0.00    +0.002 A 
ATOM      7  C   UNL     1      -4.809  -2.574  -2.416  0.00  0.00    +0.000 A 
ATOM      8  C   UNL     1      -4.240  -3.623  -3.116  0.00  0.00    +0.001 A 
ATOM      9  C   UNL     1      -2.870  -3.679  -3.288  0.00  0.00    +0.009 A 
ATOM     10  C   UNL     1      -2.072  -2.676  -2.754  0.00  0.00    -0.016 A 
ATOM     11  C   UNL     1      -0.594  -2.713  -2.868  0.00  0.00    -0.016 A 
ATOM     12  C   UNL     1       0.038  -2.955  -4.080  0.00  0.00    +0.009 A 
ATOM     13  C   UNL     1       1.419  -2.960  -4.139  0.00  0.00    +0.001 A 
ATOM     14  C   UNL     1       2.163  -2.723  -2.997  0.00  0.00    +0.000 A 
ATOM     15  C   UNL     1       1.535  -2.490  -1.786  0.00  0.00    +0.002 A 
ATOM     16  C   UNL     1       0.159  -2.492  -1.713  0.00  0.00    -0.056 A 
ATOM     17  C   UNL     1      -0.551  -2.292  -0.404  0.00  0.00    -0.041 C 
ATOM     18  H   UNL     1      -1.758  -0.913   0.473  0.00  0.00    -0.080 HD
ENDBRANCH   2   3
BRANCH   2  19
ATOM     19  C   UNL     1       0.662  -0.390   1.301  0.00  0.00    +0.204 C 
ATOM     20  O   UNL     1       0.020  -0.950   2.164  0.00  0.00    -0.277 OA
ATOM     21  N   UNL     1       1.965  -0.112   1.504  0.00  0.00    -0.281 N 
ATOM     22  H   UNL     1       2.478   0.337   0.813  0.00  0.00    +0.155 HD
BRANCH  21  23
ATOM     23  C   UNL     1       2.572  -0.466   2.699  0.00  0.00    +0.084 A 
ATOM     24  C   UNL     1       3.889  -0.257   3.082  0.00  0.00    +0.065 A 
ATOM     25  C   UNL     1       4.263  -0.731   4.394  0.00  0.00    +0.022 A 
ATOM     26  C   UNL     1       3.286  -1.326   5.104  0.00  0.00    +0.048 A 
ATOM     27  S   UNL     1       1.880  -1.240   4.017  0.00  0.00    -0.081 S 
BRANCH  24  28
ATOM     28  C   UNL     1       4.851   0.410   2.199  0.00  0.00    +0.244 C 
ATOM     29  O   UNL     1       4.502   0.796   1.099  0.00  0.00    -0.270 OA
ATOM     30  N   UNL     1       6.122   0.595   2.606  0.00  0.00    -0.325 N 
ATOM     31  H   UNL     1       6.401   0.287   3.483  0.00  0.00    +0.145 HD
ATOM     32  H   UNL     1       6.759   1.036   2.023  0.00  0.00    +0.145 HD
ENDBRANCH  24  28
ENDBRANCH  21  23
ENDBRANCH   2  19
TORSDOF 4
