REMARK  Name = ZINC36939022
REMARK  9 active torsions:
REMARK  status: ('A' for Active; 'I' for Inactive)
REMARK    1  A    between atoms: C_1  and  C_2
REMARK    2  A    between atoms: C_3  and  C_18
REMARK    3  A    between atoms: N_4  and  C_13
REMARK    4  A    between atoms: C_7  and  N_12
REMARK    5  A    between atoms: C_9  and  C_11
REMARK    6  A    between atoms: C_13  and  C_14
REMARK    7  A    between atoms: C_14  and  N_15
REMARK    8  A    between atoms: N_15  and  C_16
REMARK    9  A    between atoms: N_15  and  C_17
REMARK                            x       y       z     vdW  Elec       q    Type
REMARK                         _______ _______ _______ _____ _____    ______ ____
ROOT
ATOM      1  C   UNL     1      -0.018   1.503   0.010  0.00  0.00    +0.046 C 
ATOM      2  C   UNL     1       0.002  -0.004   0.002  0.00  0.00    -0.017 A 
ATOM      3  C   UNL     1       0.008  -0.799  -1.081  0.00  0.00    +0.021 A 
ATOM      4  N   UNL     1       0.028  -2.113  -0.692  0.00  0.00    -0.331 N 
ATOM      5  C   UNL     1       0.035  -2.198   0.673  0.00  0.00    +0.146 A 
ATOM      6  C   UNL     1       0.026  -0.882   1.171  0.00  0.00    +0.062 A 
ATOM      7  C   UNL     1       0.036  -0.687   2.560  0.00  0.00    +0.129 A 
ATOM      8  N   UNL     1       0.058  -1.759   3.347  0.00  0.00    -0.217 NA
ATOM      9  C   UNL     1       0.070  -2.978   2.838  0.00  0.00    +0.130 A 
ATOM     10  N   UNL     1       0.052  -3.207   1.543  0.00  0.00    -0.214 NA
ATOM     11  C   UNL     1       0.095  -4.154   3.780  0.00  0.00    +0.088 C 
ATOM     12  C   UNL     1      -0.005  -0.318  -2.509  0.00  0.00    +0.064 C 
ENDROOT
BRANCH   7  13
ATOM     13  N   UNL     1       0.025   0.587   3.098  0.00  0.00    -0.343 N 
ATOM     14  H   UNL     1       0.009   1.361   2.512  0.00  0.00    +0.144 HD
ATOM     15  H   UNL     1       0.032   0.708   4.060  0.00  0.00    +0.144 HD
ENDBRANCH   7  13
BRANCH   4  16
ATOM     16  C   UNL     1       0.039  -3.259  -1.605  0.00  0.00    +0.105 C 
BRANCH  16  17
ATOM     17  C   UNL     1       1.485  -3.639  -1.929  0.00  0.00    -0.058 C 
BRANCH  17  18
ATOM     18  N   UNL     1       1.496  -4.788  -2.845  0.00  0.00    +0.377 N 
ATOM     19  C   UNL     1       2.878  -5.077  -3.251  0.00  0.00    -0.097 C 
ATOM     20  C   UNL     1       0.930  -5.960  -2.165  0.00  0.00    -0.097 C 
ATOM     21  H   UNL     1       0.943  -4.573  -3.661  0.00  0.00    -0.083 HD
ENDBRANCH  17  18
ENDBRANCH  16  17
ENDBRANCH   4  16
TORSDOF 4
