REMARK  Name = ZINC13435828
REMARK  4 active torsions:
REMARK  status: ('A' for Active; 'I' for Inactive)
REMARK    1  A    between atoms: C_9  and  C_12
REMARK    2  A    between atoms: C_14  and  C_16
REMARK    3  A    between atoms: C_18  and  S_23
REMARK    4  A    between atoms: S_23  and  N_26
REMARK                            x       y       z     vdW  Elec       q    Type
REMARK                         _______ _______ _______ _____ _____    ______ ____
ROOT
ATOM      1  C   UNL     1       2.994   2.022   1.342  0.00  0.00    +0.074 A 
ATOM      2  C   UNL     1       1.812   1.278   1.327  0.00  0.00    +0.044 A 
ATOM      3  C   UNL     1       1.820  -0.031   1.760  0.00  0.00    +0.106 A 
ATOM      4  C   UNL     1       2.995  -0.610   2.210  0.00  0.00    +0.031 A 
ATOM      5  C   UNL     1       4.169   0.119   2.229  0.00  0.00    +0.041 A 
ATOM      6  C   UNL     1       4.179   1.431   1.792  0.00  0.00    +0.136 A 
ATOM      7  F   UNL     1       5.328   2.141   1.805  0.00  0.00    -0.205 F 
ENDROOT
BRANCH   1  18
ATOM      8  C   UNL     1       2.529   7.493  -0.003  0.00  0.00    +0.002 A 
ATOM      9  C   UNL     1       1.778   7.853  -1.106  0.00  0.00    +0.004 A 
ATOM     10  C   UNL     1       1.127   6.889  -1.852  0.00  0.00    +0.047 A 
ATOM     11  C   UNL     1       1.217   5.553  -1.490  0.00  0.00    +0.143 A 
ATOM     12  C   UNL     1       1.971   5.193  -0.377  0.00  0.00    +0.079 A 
ATOM     13  C   UNL     1       2.626   6.163   0.365  0.00  0.00    +0.027 A 
ATOM     14  N   UNL     1       2.069   3.840  -0.009  0.00  0.00    -0.260 N 
ATOM     15  C   UNL     1       1.126   2.893  -0.628  0.00  0.00    +0.170 C 
ATOM     16  C   UNL     1       1.011   3.258  -2.115  0.00  0.00    +0.303 C 
ATOM     17  O   UNL     1       0.566   4.612  -2.224  0.00  0.00    -0.474 OA
ATOM     18  C   UNL     1       2.994   3.424   0.879  0.00  0.00    +0.254 C 
ATOM     19  O   UNL     1       3.827   4.203   1.299  0.00  0.00    -0.270 OA
BRANCH  16  20
ATOM     20  C   UNL     1       0.016   2.344  -2.784  0.00  0.00    +0.397 C 
ATOM     21  O   UNL     1      -1.036   2.785  -3.181  0.00  0.00    -0.242 OA
ATOM     22  O   UNL     1       0.300   1.041  -2.938  0.00  0.00    -0.242 OA
ENDBRANCH  16  20
ENDBRANCH   1  18
BRANCH   3  23
ATOM     23  S   UNL     1       0.329  -0.970   1.743  0.00  0.00    +0.061 S 
ATOM     24  O   UNL     1       0.407  -1.877   2.834  0.00  0.00    -0.153 OA
ATOM     25  O   UNL     1      -0.735  -0.040   1.600  0.00  0.00    -0.153 OA
BRANCH  23  26
ATOM     26  N   UNL     1       0.345  -1.887   0.364  0.00  0.00    -0.172 NA
ATOM     27  C   UNL     1      -0.275  -1.398  -0.878  0.00  0.00    +0.137 C 
ATOM     28  C   UNL     1       0.746  -1.551  -2.016  0.00  0.00    +0.177 C 
ATOM     29  O   UNL     1       1.229  -2.897  -2.035  0.00  0.00    -0.377 OA
ATOM     30  C   UNL     1       1.930  -3.284  -0.851  0.00  0.00    +0.177 C 
ATOM     31  C   UNL     1       0.974  -3.217   0.345  0.00  0.00    +0.137 C 
ENDBRANCH  23  26
ENDBRANCH   3  23
TORSDOF 4
