REMARK  Name = ZINC20115298
REMARK  8 active torsions:
REMARK  status: ('A' for Active; 'I' for Inactive)
REMARK    1  A    between atoms: C_1  and  C_2
REMARK    2  A    between atoms: C_2  and  C_21
REMARK    3  A    between atoms: N_3  and  N_4
REMARK    4  A    between atoms: C_5  and  C_7
REMARK    5  A    between atoms: C_7  and  O_8
REMARK    6  A    between atoms: O_8  and  C_9
REMARK    7  A    between atoms: C_23  and  O_28
REMARK    8  A    between atoms: C_26  and  O_27
REMARK                            x       y       z     vdW  Elec       q    Type
REMARK                         _______ _______ _______ _____ _____    ______ ____
ROOT
ATOM      1  N   UNL     1      -0.223  -2.030   1.139  0.00  0.00    -0.204 N 
ATOM      2  C   UNL     1      -0.383  -2.687   2.305  0.00  0.00    +0.270 C 
ATOM      3  O   UNL     1      -0.379  -2.074   3.352  0.00  0.00    -0.270 OA
ATOM      4  H   UNL     1      -0.227  -2.520   0.302  0.00  0.00    +0.177 HD
ENDROOT
BRANCH   1   7
ATOM      5  C   UNL     1       0.090   1.510   0.009  0.00  0.00    +0.068 C 
ATOM      6  C   UNL     1      -0.005   0.006   0.011  0.00  0.00    +0.067 C 
ATOM      7  N   UNL     1      -0.052  -0.639   1.136  0.00  0.00    -0.184 NA
BRANCH   6   8
ATOM      8  C   UNL     1      -0.045  -0.731  -1.264  0.00  0.00    +0.042 A 
ATOM      9  C   UNL     1      -1.191  -1.442  -1.628  0.00  0.00    +0.058 A 
ATOM     10  C   UNL     1      -1.222  -2.132  -2.827  0.00  0.00    +0.118 A 
ATOM     11  C   UNL     1      -0.116  -2.119  -3.667  0.00  0.00    +0.049 A 
ATOM     12  C   UNL     1       1.022  -1.419  -3.314  0.00  0.00    +0.049 A 
ATOM     13  C   UNL     1       1.065  -0.719  -2.120  0.00  0.00    +0.126 A 
BRANCH  13  14
ATOM     14  O   UNL     1       2.182  -0.026  -1.776  0.00  0.00    -0.506 OA
ATOM     15  H   UNL     1       2.791  -0.518  -1.209  0.00  0.00    +0.292 HD
ENDBRANCH  13  14
BRANCH  10  16
ATOM     16  O   UNL     1      -2.337  -2.824  -3.183  0.00  0.00    -0.507 OA
ATOM     17  H   UNL     1      -2.976  -2.306  -3.691  0.00  0.00    +0.292 HD
ENDBRANCH  10  16
ENDBRANCH   6   8
ENDBRANCH   1   7
BRANCH   2  18
ATOM     18  C   UNL     1      -0.567  -4.182   2.309  0.00  0.00    +0.326 C 
BRANCH  18  19
ATOM     19  O   UNL     1      -0.715  -4.641   3.654  0.00  0.00    -0.482 OA
BRANCH  19  20
ATOM     20  C   UNL     1      -0.892  -5.976   3.835  0.00  0.00    +0.136 A 
ATOM     21  C   UNL     1      -0.915  -6.826   2.724  0.00  0.00    +0.047 A 
ATOM     22  C   UNL     1      -1.090  -8.166   2.873  0.00  0.00    +0.012 A 
ATOM     23  C   UNL     1      -1.250  -8.711   4.159  0.00  0.00    -0.016 A 
ATOM     24  C   UNL     1      -1.432 -10.091   4.348  0.00  0.00    +0.023 A 
ATOM     25  C   UNL     1      -1.583 -10.585   5.608  0.00  0.00    +0.018 A 
ATOM     26  C   UNL     1      -1.561  -9.740   6.718  0.00  0.00    +0.016 A 
ATOM     27  C   UNL     1      -1.387  -8.398   6.572  0.00  0.00    +0.011 A 
ATOM     28  C   UNL     1      -1.227  -7.852   5.287  0.00  0.00    -0.000 A 
ATOM     29  C   UNL     1      -1.039  -6.472   5.099  0.00  0.00    +0.067 A 
ATOM     30 BR   UNL     1      -0.997  -5.307   6.588  0.00  0.00    -0.046 Br
ATOM     31 BR   UNL     1      -1.829 -12.443   5.858  0.00  0.00    -0.050 Br
ENDBRANCH  19  20
ENDBRANCH  18  19
ENDBRANCH   2  18
TORSDOF 7
