REMARK  Name = ZINC52586992
REMARK  11 active torsions:
REMARK  status: ('A' for Active; 'I' for Inactive)
REMARK    1  A    between atoms: C_1  and  C_2
REMARK    2  A    between atoms: C_4  and  C_27
REMARK    3  A    between atoms: N_5  and  C_7
REMARK    4  A    between atoms: C_7  and  C_8
REMARK    5  A    between atoms: N_10  and  N_11
REMARK    6  A    between atoms: N_14  and  C_15
REMARK    7  A    between atoms: C_15  and  C_16
REMARK    8  A    between atoms: C_16  and  N_24
REMARK    9  A    between atoms: C_20  and  C_23
REMARK   10  A    between atoms: N_24  and  C_25
REMARK   11  A    between atoms: N_24  and  C_26
REMARK                            x       y       z     vdW  Elec       q    Type
REMARK                         _______ _______ _______ _____ _____    ______ ____
ROOT
ATOM      1  N   UNL     1       2.734  -5.177   2.611  0.00  0.00    -0.218 N 
ATOM      2  C   UNL     1       3.075  -6.148   3.482  0.00  0.00    +0.316 C 
ATOM      3  O   UNL     1       4.240  -6.301   3.795  0.00  0.00    -0.251 OA
ATOM      4  N   UNL     1       2.125  -6.949   4.004  0.00  0.00    -0.300 N 
ATOM      5  H   UNL     1       3.417  -4.601   2.235  0.00  0.00    +0.174 HD
ATOM      6  H   UNL     1       1.196  -6.826   3.754  0.00  0.00    +0.150 HD
ENDROOT
BRANCH   1   9
ATOM      7  C   UNL     1       1.051  -4.029   1.379  0.00  0.00    +0.251 C 
ATOM      8  O   UNL     1       1.905  -3.309   0.909  0.00  0.00    -0.272 OA
ATOM      9  N   UNL     1       1.392  -5.000   2.250  0.00  0.00    -0.232 N 
ATOM     10  H   UNL     1       0.708  -5.577   2.626  0.00  0.00    +0.173 HD
BRANCH   7  11
ATOM     11  C   UNL     1      -0.393  -3.839   0.991  0.00  0.00    +0.240 C 
BRANCH  11  16
ATOM     12  C   UNL     1      -0.937   0.796  -0.856  0.00  0.00    +0.067 C 
ATOM     13  C   UNL     1      -0.741  -0.694  -0.746  0.00  0.00    +0.060 A 
ATOM     14  C   UNL     1      -0.573  -1.580  -1.814  0.00  0.00    +0.047 A 
ATOM     15  C   UNL     1      -0.427  -2.825  -1.304  0.00  0.00    +0.037 A 
ATOM     16  N   UNL     1      -0.500  -2.729   0.041  0.00  0.00    -0.259 N 
ATOM     17  N   UNL     1      -0.692  -1.381   0.367  0.00  0.00    -0.176 NA
ATOM     18  C   UNL     1      -0.221  -4.091  -2.094  0.00  0.00    +0.065 C 
ENDBRANCH  11  16
ENDBRANCH   7  11
ENDBRANCH   1   9
BRANCH   4  19
ATOM     19  C   UNL     1       2.496  -8.004   4.950  0.00  0.00    +0.094 C 
BRANCH  19  20
ATOM     20  C   UNL     1       1.231  -8.673   5.489  0.00  0.00    -0.050 C 
ATOM     21  C   UNL     1       0.454  -9.303   4.332  0.00  0.00    -0.010 C 
ATOM     22  C   UNL     1      -0.812  -9.972   4.871  0.00  0.00    -0.001 C 
ATOM     23  C   UNL     1      -1.687  -8.926   5.563  0.00  0.00    +0.003 C 
ATOM     24  C   UNL     1      -0.911  -8.296   6.721  0.00  0.00    -0.015 C 
ATOM     25  C   UNL     1       0.355  -7.626   6.181  0.00  0.00    -0.007 C 
ATOM     26  C   UNL     1      -1.786  -7.249   7.412  0.00  0.00    +0.007 C 
BRANCH  20  27
ATOM     27  N   UNL     1       1.602  -9.716   6.455  0.00  0.00    +0.381 N 
ATOM     28  C   UNL     1       2.437 -10.725   5.789  0.00  0.00    -0.096 C 
ATOM     29  C   UNL     1       2.353  -9.113   7.563  0.00  0.00    -0.096 C 
ATOM     30  H   UNL     1       0.767 -10.155   6.814  0.00  0.00    -0.082 HD
ENDBRANCH  20  27
ENDBRANCH  19  20
ENDBRANCH   4  19
TORSDOF 6
