REMARK  Name = ZINC02662624
REMARK  7 active torsions:
REMARK  status: ('A' for Active; 'I' for Inactive)
REMARK    1  A    between atoms: C_4  and  C_7
REMARK    2  A    between atoms: C_7  and  C_9
REMARK    3  A    between atoms: C_7  and  N_49
REMARK    4  A    between atoms: N_11  and  C_12
REMARK    5  A    between atoms: C_14  and  C_19
REMARK    6  A    between atoms: C_23  and  C_24
REMARK    7  A    between atoms: C_23  and  N_49
REMARK                            x       y       z     vdW  Elec       q    Type
REMARK                         _______ _______ _______ _____ _____    ______ ____
ROOT
ATOM      1  C   UNL     1       3.628   6.002  -0.216  0.00  0.00    +0.048 C 
ENDROOT
BRANCH   1   5
ATOM      2  C   UNL     1       6.059   5.246   3.214  0.00  0.00    +0.000 A 
ATOM      3  C   UNL     1       6.306   4.575   2.031  0.00  0.00    +0.000 A 
ATOM      4  C   UNL     1       5.519   4.820   0.921  0.00  0.00    +0.002 A 
ATOM      5  C   UNL     1       4.485   5.735   0.994  0.00  0.00    -0.053 A 
ATOM      6  C   UNL     1       4.242   6.410   2.176  0.00  0.00    +0.002 A 
ATOM      7  C   UNL     1       5.027   6.162   3.287  0.00  0.00    +0.000 A 
ENDBRANCH   1   5
BRANCH   1   8
ATOM      8  C   UNL     1       2.336   5.236  -0.094  0.00  0.00    +0.207 C 
ATOM      9  O   UNL     1       1.278   5.829  -0.082  0.00  0.00    -0.277 OA
ATOM     10  N   UNL     1       2.356   3.891   0.001  0.00  0.00    -0.285 N 
ATOM     11  H   UNL     1       3.203   3.421   0.056  0.00  0.00    +0.155 HD
BRANCH  10  12
ATOM     12  C   UNL     1       1.155   3.173   0.019  0.00  0.00    +0.052 A 
ATOM     13  C   UNL     1       0.033   3.708   0.637  0.00  0.00    +0.037 A 
ATOM     14  C   UNL     1      -1.151   2.997   0.654  0.00  0.00    +0.057 A 
ATOM     15  C   UNL     1      -1.222   1.754   0.051  0.00  0.00    +0.014 A 
ATOM     16  C   UNL     1      -0.105   1.215  -0.561  0.00  0.00    +0.022 A 
ATOM     17  C   UNL     1       1.082   1.922  -0.582  0.00  0.00    +0.062 A 
ATOM     18 CL   UNL     1       2.482   1.247  -1.355  0.00  0.00    -0.082 Cl
BRANCH  14  19
ATOM     19  C   UNL     1      -2.369   3.579   1.324  0.00  0.00    +0.417 C 
ATOM     20  F   UNL     1      -3.102   4.324   0.394  0.00  0.00    -0.166 F 
ATOM     21  F   UNL     1      -3.166   2.543   1.823  0.00  0.00    -0.166 F 
ATOM     22  F   UNL     1      -1.970   4.409   2.377  0.00  0.00    -0.166 F 
ENDBRANCH  14  19
ENDBRANCH  10  12
ENDBRANCH   1   8
BRANCH   1  23
ATOM     23  N   UNL     1       3.329   7.444  -0.299  0.00  0.00    +0.392 N 
ATOM     24  H   UNL     1       3.226   7.824   0.649  0.00  0.00    -0.084 HD
ATOM     25  H   UNL     1       2.454   7.579  -0.819  0.00  0.00    -0.084 HD
BRANCH  23  26
ATOM     26  C   UNL     1       4.421   8.154  -0.992  0.00  0.00    -0.045 C 
BRANCH  26  27
ATOM     27  C   UNL     1       4.089   9.622  -1.062  0.00  0.00    -0.061 A 
ATOM     28  C   UNL     1       3.391  10.120  -2.146  0.00  0.00    +0.005 A 
ATOM     29  C   UNL     1       3.079  11.465  -2.213  0.00  0.00    +0.050 A 
ATOM     30  C   UNL     1       3.477  12.320  -1.198  0.00  0.00    +0.166 A 
ATOM     31  C   UNL     1       4.185  11.819  -0.108  0.00  0.00    +0.166 A 
ATOM     32  C   UNL     1       4.489  10.469  -0.045  0.00  0.00    +0.051 A 
ATOM     33  O   UNL     1       4.458  12.849   0.745  0.00  0.00    -0.453 OA
ATOM     34  C   UNL     1       4.268  14.049  -0.027  0.00  0.00    +0.466 C 
ATOM     35  O   UNL     1       3.306  13.663  -1.027  0.00  0.00    -0.453 OA
ENDBRANCH  26  27
ENDBRANCH  23  26
ENDBRANCH   1  23
TORSDOF 7
