REMARK  Name = ZINC13022713
REMARK  4 active torsions:
REMARK  status: ('A' for Active; 'I' for Inactive)
REMARK    1  A    between atoms: C_3  and  N_8
REMARK    2  A    between atoms: C_9  and  C_11
REMARK    3  A    between atoms: C_11  and  N_50
REMARK    4  A    between atoms: C_15  and  C_17
REMARK                            x       y       z     vdW  Elec       q    Type
REMARK                         _______ _______ _______ _____ _____    ______ ____
ROOT
ATOM      1  C   UNL     1      -0.795   1.625  -1.201  0.00  0.00    -0.077 C 
ATOM      2  C   UNL     1      -0.010   1.096   0.014  0.00  0.00    -0.020 C 
ATOM      3  C   UNL     1      -0.784   1.608   1.251  0.00  0.00    -0.013 C 
ATOM      4  C   UNL     1      -1.576   2.816   0.686  0.00  0.00    -0.037 C 
ATOM      5  N   UNL     1      -1.945   2.350  -0.660  0.00  0.00    +0.390 N 
ATOM      6  H   UNL     1      -2.754   1.720  -0.599  0.00  0.00    -0.080 HD
ENDROOT
BRANCH   4   7
ATOM      7  C   UNL     1      -2.799   3.089   1.523  0.00  0.00    -0.057 A 
ATOM      8  C   UNL     1      -3.892   2.247   1.441  0.00  0.00    +0.006 A 
ATOM      9  C   UNL     1      -5.018   2.490   2.207  0.00  0.00    +0.049 A 
ATOM     10  C   UNL     1      -5.047   3.583   3.057  0.00  0.00    +0.162 A 
ATOM     11  C   UNL     1      -3.950   4.428   3.139  0.00  0.00    +0.162 A 
ATOM     12  C   UNL     1      -2.822   4.178   2.376  0.00  0.00    +0.051 A 
ATOM     13  O   UNL     1      -3.988   5.502   3.980  0.00  0.00    -0.488 OA
ATOM     14  C   UNL     1      -3.994   5.202   5.377  0.00  0.00    +0.232 C 
ATOM     15  C   UNL     1      -5.407   4.915   5.861  0.00  0.00    +0.082 C 
ATOM     16  C   UNL     1      -5.993   3.663   5.227  0.00  0.00    +0.232 C 
ATOM     17  O   UNL     1      -6.152   3.836   3.817  0.00  0.00    -0.488 OA
ENDBRANCH   4   7
BRANCH   5  18
ATOM     18  C   UNL     1      -2.292   3.509  -1.536  0.00  0.00    +0.020 C 
BRANCH  18  20
ATOM     19  N   UNL     1      -3.221   3.888  -3.796  0.00  0.00    -0.287 N 
ATOM     20  C   UNL     1      -2.848   3.010  -2.844  0.00  0.00    +0.201 C 
ATOM     21  O   UNL     1      -2.959   1.819  -3.041  0.00  0.00    -0.278 OA
ATOM     22  H   UNL     1      -3.196   4.840  -3.615  0.00  0.00    +0.155 HD
BRANCH  19  25
ATOM     23  C   UNL     1      -3.771   3.690  -7.427  0.00  0.00    +0.003 A 
ATOM     24  C   UNL     1      -3.355   4.152  -6.193  0.00  0.00    +0.023 A 
ATOM     25  C   UNL     1      -3.646   3.425  -5.047  0.00  0.00    +0.034 A 
ATOM     26  C   UNL     1      -4.366   2.241  -5.143  0.00  0.00    +0.037 A 
ATOM     27  C   UNL     1      -4.784   1.787  -6.379  0.00  0.00    +0.015 A 
ATOM     28  C   UNL     1      -4.487   2.511  -7.520  0.00  0.00    +0.014 A 
ATOM     29  I   UNL     1      -5.869   0.001  -6.525  0.00  0.00    -0.044 I 
ENDBRANCH  19  25
ENDBRANCH  18  20
ENDBRANCH   5  18
TORSDOF 4
