REMARK  Name = ZINC62431332
REMARK  5 active torsions:
REMARK  status: ('A' for Active; 'I' for Inactive)
REMARK    1  A    between atoms: C_1  and  N_2
REMARK    2  A    between atoms: N_5  and  N_8
REMARK    3  A    between atoms: N_8  and  S_9
REMARK    4  A    between atoms: S_9  and  C_12
REMARK    5  A    between atoms: C_14  and  N_19
REMARK                            x       y       z     vdW  Elec       q    Type
REMARK                         _______ _______ _______ _____ _____    ______ ____
ROOT
ATOM      1  S   UNL     1       3.344  -5.061  -0.021  0.00  0.00    +0.073 S 
ATOM      2  O   UNL     1       2.962  -6.388   0.313  0.00  0.00    -0.152 OA
ATOM      3  O   UNL     1       4.312  -4.776  -1.021  0.00  0.00    -0.152 OA
ENDROOT
BRANCH   1   4
ATOM      4  C   UNL     1       3.921  -4.313   1.466  0.00  0.00    +0.127 A 
ATOM      5  C   UNL     1       4.796  -3.236   1.416  0.00  0.00    +0.066 A 
ATOM      6  C   UNL     1       5.224  -2.678   2.607  0.00  0.00    +0.167 A 
ATOM      7  C   UNL     1       4.767  -3.212   3.808  0.00  0.00    +0.147 A 
ATOM      8  N   UNL     1       3.933  -4.240   3.813  0.00  0.00    -0.236 NA
ATOM      9  C   UNL     1       3.503  -4.788   2.693  0.00  0.00    +0.141 A 
ATOM     10  N   UNL     1       5.191  -2.661   5.012  0.00  0.00    -0.341 N 
ATOM     11  H   UNL     1       5.696  -1.833   5.015  0.00  0.00    +0.144 HD
ATOM     12  H   UNL     1       4.981  -3.104   5.848  0.00  0.00    +0.144 HD
BRANCH   6  13
ATOM     13  N   UNL     1       6.078  -1.625   2.604  0.00  0.00    +0.060 N 
ATOM     14  O   UNL     1       5.963  -0.756   1.772  0.00  0.00    -0.126 OA
ATOM     15  O   UNL     1       6.955  -1.556   3.433  0.00  0.00    -0.126 OA
ENDBRANCH   6  13
ENDBRANCH   1   4
BRANCH   1  16
ATOM     16  N   UNL     1       1.959  -4.268  -0.463  0.00  0.00    -0.122 NA
ATOM     17  H   UNL     1       1.124  -4.755  -0.539  0.00  0.00    +0.168 HD
BRANCH  16  22
ATOM     18  C   UNL     1       0.918   1.029  -1.682  0.00  0.00    -0.096 C 
ATOM     19  N   UNL     1       0.828  -0.412  -1.414  0.00  0.00    +0.380 N 
ATOM     20  C   UNL     1       1.678  -1.141  -2.365  0.00  0.00    -0.062 C 
ATOM     21  C   UNL     1       1.569  -2.644  -2.099  0.00  0.00    +0.085 C 
ATOM     22  N   UNL     1       1.993  -2.926  -0.721  0.00  0.00    -0.227 NA
ATOM     23  C   UNL     1       1.166  -2.184   0.242  0.00  0.00    +0.085 C 
ATOM     24  C   UNL     1       1.278  -0.685  -0.043  0.00  0.00    -0.062 C 
ATOM     25  H   UNL     1      -0.129  -0.714  -1.520  0.00  0.00    -0.082 HD
ENDBRANCH  16  22
ENDBRANCH   1  16
TORSDOF 4
