REMARK  Name = ZINC67625251
REMARK  11 active torsions:
REMARK  status: ('A' for Active; 'I' for Inactive)
REMARK    1  A    between atoms: C_1  and  C_2
REMARK    2  A    between atoms: C_2  and  C_4
REMARK    3  A    between atoms: C_2  and  N_21
REMARK    4  A    between atoms: C_4  and  N_5
REMARK    5  A    between atoms: N_8  and  C_9
REMARK    6  A    between atoms: C_9  and  C_10
REMARK    7  A    between atoms: C_13  and  N_16
REMARK    8  A    between atoms: N_16  and  C_17
REMARK    9  A    between atoms: C_17  and  C_18
REMARK   10  A    between atoms: C_18  and  O_19
REMARK   11  A    between atoms: O_19  and  C_20
REMARK                            x       y       z     vdW  Elec       q    Type
REMARK                         _______ _______ _______ _____ _____    ______ ____
ROOT
ATOM      1  N   UNL     1       0.724  -2.183   0.844  0.00  0.00    -0.301 N 
ATOM      2  C   UNL     1       1.400  -3.029   1.647  0.00  0.00    +0.300 C 
ATOM      3  O   UNL     1       2.017  -2.599   2.602  0.00  0.00    -0.253 OA
ATOM      4  N   UNL     1       1.391  -4.352   1.391  0.00  0.00    -0.295 N 
ATOM      5  H   UNL     1       0.231  -2.526   0.083  0.00  0.00    +0.150 HD
ATOM      6  H   UNL     1       0.898  -4.696   0.629  0.00  0.00    +0.151 HD
ENDROOT
BRANCH   1   7
ATOM      7  C   UNL     1       0.734  -0.745   1.123  0.00  0.00    +0.090 C 
BRANCH   7   9
ATOM      8  C   UNL     1       0.090   1.505   0.246  0.00  0.00    -0.012 C 
ATOM      9  C   UNL     1       0.013  -0.003  -0.005  0.00  0.00    -0.054 C 
BRANCH   9  10
ATOM     10  N   UNL     1       0.655  -0.319  -1.288  0.00  0.00    +0.385 N 
ATOM     11  C   UNL     1       2.017   0.236  -1.307  0.00  0.00    -0.073 C 
ATOM     12  C   UNL     1       2.768  -0.355  -2.500  0.00  0.00    +0.017 C 
ATOM     13  C   UNL     1       1.945  -0.193  -3.752  0.00  0.00    -0.048 A 
ATOM     14  C   UNL     1       2.568  -0.341  -4.981  0.00  0.00    +0.004 A 
ATOM     15  C   UNL     1       1.846  -0.203  -6.150  0.00  0.00    +0.000 A 
ATOM     16  C   UNL     1       0.495   0.085  -6.093  0.00  0.00    +0.000 A 
ATOM     17  C   UNL     1      -0.126   0.234  -4.870  0.00  0.00    +0.002 A 
ATOM     18  C   UNL     1       0.598   0.097  -3.695  0.00  0.00    -0.061 A 
ATOM     19  C   UNL     1      -0.118   0.276  -2.382  0.00  0.00    -0.042 C 
ATOM     20  H   UNL     1       0.695  -1.320  -1.408  0.00  0.00    -0.081 HD
ENDBRANCH   9  10
ENDBRANCH   7   9
ENDBRANCH   1   7
BRANCH   4  21
ATOM     21  C   UNL     1       2.125  -5.272   2.263  0.00  0.00    +0.141 C 
BRANCH  21  22
ATOM     22  C   UNL     1       1.955  -6.683   1.762  0.00  0.00    -0.030 A 
ATOM     23  C   UNL     1       0.900  -7.454   2.215  0.00  0.00    +0.007 A 
ATOM     24  C   UNL     1       0.741  -8.747   1.758  0.00  0.00    +0.023 A 
ATOM     25  C   UNL     1       1.643  -9.274   0.842  0.00  0.00    +0.027 A 
ATOM     26  C   UNL     1       2.702  -8.498   0.389  0.00  0.00    +0.023 A 
ATOM     27  C   UNL     1       2.851  -7.203   0.846  0.00  0.00    +0.007 A 
BRANCH  25  28
ATOM     28  N   UNL     1       1.485 -10.582   0.378  0.00  0.00    -0.342 N 
ATOM     29  H   UNL     1       0.746 -11.124   0.696  0.00  0.00    +0.146 HD
BRANCH  28  30
ATOM     30  C   UNL     1       2.437 -11.136  -0.588  0.00  0.00    +0.129 C 
BRANCH  30  31
ATOM     31  C   UNL     1       2.040 -12.574  -0.928  0.00  0.00    +0.178 C 
BRANCH  31  32
ATOM     32  O   UNL     1       0.778 -12.573  -1.599  0.00  0.00    -0.381 OA
ATOM     33  C   UNL     1       0.312 -13.874  -1.963  0.00  0.00    +0.194 C 
ENDBRANCH  31  32
ENDBRANCH  30  31
ENDBRANCH  28  30
ENDBRANCH  25  28
ENDBRANCH  21  22
ENDBRANCH   4  21
TORSDOF 9
