REMARK  Name = ZINC63830711
REMARK  9 active torsions:
REMARK  status: ('A' for Active; 'I' for Inactive)
REMARK    1  A    between atoms: C_1  and  N_2
REMARK    2  A    between atoms: N_2  and  C_3
REMARK    3  A    between atoms: N_2  and  S_25
REMARK    4  A    between atoms: C_3  and  C_4
REMARK    5  A    between atoms: N_6  and  C_7
REMARK    6  A    between atoms: C_7  and  C_8
REMARK    7  A    between atoms: C_8  and  C_10
REMARK    8  A    between atoms: C_8  and  C_16
REMARK    9  A    between atoms: S_25  and  C_28
REMARK                            x       y       z     vdW  Elec       q    Type
REMARK                         _______ _______ _______ _____ _____    ______ ____
ROOT
ATOM      1  C   UNL     1      -1.182  -0.729   2.015  0.00  0.00    +0.229 C 
ATOM      2  O   UNL     1      -2.059  -0.367   1.260  0.00  0.00    -0.274 OA
ATOM      3  N   UNL     1      -1.496  -1.402   3.140  0.00  0.00    -0.314 N 
ATOM      4  H   UNL     1      -0.795  -1.692   3.744  0.00  0.00    +0.149 HD
ENDROOT
BRANCH   1   5
ATOM      5  C   UNL     1       0.260  -0.428   1.696  0.00  0.00    +0.204 C 
BRANCH   5   7
ATOM      6  C   UNL     1       0.175   1.762   0.417  0.00  0.00    +0.132 C 
ATOM      7  N   UNL     1       0.336   0.306   0.430  0.00  0.00    -0.171 NA
BRANCH   7   8
ATOM      8  S   UNL     1       0.604  -0.510  -0.986  0.00  0.00    +0.061 S 
ATOM      9  O   UNL     1       0.168  -1.846  -0.773  0.00  0.00    -0.153 OA
ATOM     10  O   UNL     1       0.085   0.303  -2.029  0.00  0.00    -0.153 OA
BRANCH   8  11
ATOM     11  C   UNL     1       2.349  -0.582  -1.223  0.00  0.00    +0.106 A 
ATOM     12  C   UNL     1       2.993   0.426  -1.915  0.00  0.00    +0.030 A 
ATOM     13  C   UNL     1       4.362   0.371  -2.102  0.00  0.00    +0.022 A 
ATOM     14  C   UNL     1       5.086  -0.694  -1.596  0.00  0.00    +0.041 A 
ATOM     15  C   UNL     1       4.440  -1.702  -0.904  0.00  0.00    +0.022 A 
ATOM     16  C   UNL     1       3.073  -1.643  -0.713  0.00  0.00    +0.030 A 
ATOM     17 CL   UNL     1       6.805  -0.764  -1.831  0.00  0.00    -0.084 Cl
ENDBRANCH   8  11
ENDBRANCH   7   8
ENDBRANCH   5   7
ENDBRANCH   1   5
BRANCH   3  18
ATOM     18  C   UNL     1      -2.897  -1.695   3.451  0.00  0.00    +0.113 C 
BRANCH  18  19
ATOM     19  C   UNL     1      -2.968  -2.601   4.682  0.00  0.00    +0.048 C 
BRANCH  19  20
ATOM     20  C   UNL     1      -4.405  -2.759   5.108  0.00  0.00    -0.036 C 
ATOM     21  C   UNL     1      -4.942  -2.410   6.299  0.00  0.00    -0.001 A 
ATOM     22  C   UNL     1      -4.372  -1.804   7.508  0.00  0.00    +0.010 A 
ATOM     23  C   UNL     1      -5.179  -1.569   8.568  0.00  0.00    +0.001 A 
ATOM     24  C   UNL     1      -6.543  -1.889   8.540  0.00  0.00    +0.002 A 
ATOM     25  C   UNL     1      -7.140  -2.447   7.466  0.00  0.00    +0.026 A 
ATOM     26  C   UNL     1      -6.386  -2.738   6.295  0.00  0.00    +0.043 A 
ATOM     27  N   UNL     1      -6.728  -3.269   5.146  0.00  0.00    -0.380 N 
ATOM     28  C   UNL     1      -5.539  -3.332   4.288  0.00  0.00    +0.145 C 
ATOM     29  H   UNL     1      -7.618  -3.566   4.903  0.00  0.00    +0.160 HD
ENDBRANCH  19  20
BRANCH  19  30
ATOM     30  C   UNL     1      -2.385  -3.974   4.338  0.00  0.00    +0.063 C 
ATOM     31  C   UNL     1      -2.341  -4.901   5.582  0.00  0.00    +0.042 C 
ATOM     32  C   UNL     1      -1.090  -5.719   5.588  0.00  0.00    -0.019 C 
ATOM     33  C   UNL     1      -0.063  -5.354   4.846  0.00  0.00    +0.036 C 
ATOM     34  S   UNL     1      -0.578  -3.873   3.993  0.00  0.00    -0.129 S 
ENDBRANCH  19  30
ENDBRANCH  18  19
ENDBRANCH   3  18
TORSDOF 8
