REMARK  Name = ZINC14095804
REMARK  9 active torsions:
REMARK  status: ('A' for Active; 'I' for Inactive)
REMARK    1  A    between atoms: C_1  and  C_2
REMARK    2  A    between atoms: C_2  and  C_3
REMARK    3  A    between atoms: C_3  and  N_4
REMARK    4  A    between atoms: C_5  and  N_24
REMARK    5  A    between atoms: C_6  and  C_13
REMARK    6  A    between atoms: C_13  and  C_15
REMARK    7  A    between atoms: C_15  and  N_47
REMARK    8  A    between atoms: C_19  and  C_22
REMARK    9  A    between atoms: C_22  and  O_23
REMARK                            x       y       z     vdW  Elec       q    Type
REMARK                         _______ _______ _______ _____ _____    ______ ____
ROOT
ATOM      1  N   UNL     1      -1.267   2.964   0.045  0.00  0.00    -0.281 N 
ATOM      2  C   UNL     1      -0.140   3.735   0.041  0.00  0.00    +0.116 A 
ATOM      3  C   UNL     1       1.116   3.104   0.010  0.00  0.00    +0.118 A 
ATOM      4  C   UNL     1       1.146   1.636  -0.017  0.00  0.00    +0.266 A 
ATOM      5  O   UNL     1       2.204   1.036  -0.044  0.00  0.00    -0.267 OA
ATOM      6  N   UNL     1      -0.025   0.966  -0.011  0.00  0.00    -0.274 N 
ATOM      7  H   UNL     1      -0.022  -0.034  -0.025  0.00  0.00    +0.173 HD
ATOM      8  C   UNL     1      -1.196   1.624   0.014  0.00  0.00    +0.331 A 
ATOM      9  O   UNL     1      -2.228   0.983   0.014  0.00  0.00    -0.246 OA
ENDROOT
BRANCH   2  10
ATOM     10  N   UNL     1      -0.231   5.092   0.067  0.00  0.00    -0.344 N 
ATOM     11  H   UNL     1      -1.028   5.532  -0.267  0.00  0.00    +0.144 HD
ATOM     12  H   UNL     1       0.502   5.621   0.420  0.00  0.00    +0.144 HD
ENDBRANCH   2  10
BRANCH   3  13
ATOM     13  C   UNL     1       2.310   3.857   0.005  0.00  0.00    +0.155 C 
ATOM     14  O   UNL     1       2.264   5.067  -0.080  0.00  0.00    -0.294 OA
BRANCH  13  15
ATOM     15  C   UNL     1       3.641   3.158   0.105  0.00  0.00    +0.002 C 
BRANCH  15  21
ATOM     16  C   UNL     1       4.681   5.004   1.276  0.00  0.00    -0.078 C 
ATOM     17  C   UNL     1       5.899   5.930   1.287  0.00  0.00    -0.018 C 
ATOM     18  C   UNL     1       5.887   6.795   0.024  0.00  0.00    +0.002 C 
ATOM     19  C   UNL     1       5.880   5.886  -1.208  0.00  0.00    -0.002 C 
ATOM     20  C   UNL     1       4.662   4.961  -1.146  0.00  0.00    -0.073 C 
ATOM     21  N   UNL     1       4.746   4.139   0.080  0.00  0.00    +0.385 N 
ATOM     22  H   UNL     1       5.640   3.635   0.082  0.00  0.00    -0.081 HD
BRANCH  19  23
ATOM     23  C   UNL     1       5.808   6.742  -2.474  0.00  0.00    +0.157 C 
BRANCH  23  24
ATOM     24  O   UNL     1       6.999   7.524  -2.589  0.00  0.00    -0.395 OA
ATOM     25  H   UNL     1       7.022   8.092  -3.371  0.00  0.00    +0.209 HD
ENDBRANCH  23  24
ENDBRANCH  19  23
ENDBRANCH  15  21
ENDBRANCH  13  15
ENDBRANCH   3  13
BRANCH   1  26
ATOM     26  C   UNL     1      -2.580   3.612   0.076  0.00  0.00    +0.128 C 
BRANCH  26  28
ATOM     27  C   UNL     1      -4.431   4.541  -1.321  0.00  0.00    +0.005 C 
ATOM     28  C   UNL     1      -3.059   3.864  -1.355  0.00  0.00    +0.018 C 
ENDBRANCH  26  28
ENDBRANCH   1  26
TORSDOF 8
