REMARK  Name = ZINC46299846
REMARK  6 active torsions:
REMARK  status: ('A' for Active; 'I' for Inactive)
REMARK    1  A    between atoms: C_1  and  N_2
REMARK    2  A    between atoms: N_2  and  C_3
REMARK    3  A    between atoms: C_5  and  C_10
REMARK    4  A    between atoms: C_10  and  N_11
REMARK    5  A    between atoms: N_14  and  N_15
REMARK    6  A    between atoms: N_15  and  C_16
REMARK                            x       y       z     vdW  Elec       q    Type
REMARK                         _______ _______ _______ _____ _____    ______ ____
ROOT
ATOM      1  N   UNL     1      -0.772  -2.646   1.486  0.00  0.00    -0.294 N 
ATOM      2  C   UNL     1      -0.358  -3.090   2.690  0.00  0.00    +0.316 C 
ATOM      3  O   UNL     1       0.743  -3.594   2.806  0.00  0.00    -0.251 OA
ATOM      4  N   UNL     1      -1.164  -2.976   3.764  0.00  0.00    -0.220 N 
ATOM      5  H   UNL     1      -1.650  -2.245   1.393  0.00  0.00    +0.151 HD
ATOM      6  H   UNL     1      -0.866  -3.296   4.630  0.00  0.00    +0.174 HD
ENDROOT
BRANCH   4   7
ATOM      7  N   UNL     1      -2.432  -2.396   3.630  0.00  0.00    -0.258 N 
ATOM      8  H   UNL     1      -2.764  -2.154   2.751  0.00  0.00    +0.170 HD
BRANCH   7   9
ATOM      9  C   UNL     1      -3.221  -2.166   4.765  0.00  0.00    +0.121 A 
ATOM     10  C   UNL     1      -2.625  -1.791   5.962  0.00  0.00    +0.186 A 
ATOM     11  C   UNL     1      -3.406  -1.564   7.083  0.00  0.00    +0.198 A 
ATOM     12  C   UNL     1      -4.782  -1.711   7.011  0.00  0.00    +0.199 A 
ATOM     13  C   UNL     1      -5.379  -2.085   5.817  0.00  0.00    +0.198 A 
ATOM     14  C   UNL     1      -4.601  -2.308   4.693  0.00  0.00    +0.186 A 
ATOM     15  F   UNL     1      -5.184  -2.668   3.528  0.00  0.00    -0.200 F 
ATOM     16  F   UNL     1      -6.721  -2.228   5.749  0.00  0.00    -0.199 F 
ATOM     17  F   UNL     1      -5.543  -1.489   8.105  0.00  0.00    -0.199 F 
ATOM     18  F   UNL     1      -2.826  -1.199   8.248  0.00  0.00    -0.199 F 
ATOM     19  F   UNL     1      -1.283  -1.648   6.034  0.00  0.00    -0.200 F 
ENDBRANCH   7   9
ENDBRANCH   4   7
BRANCH   1  20
ATOM     20  C   UNL     1       0.104  -2.770   0.319  0.00  0.00    +0.144 C 
BRANCH  20  25
ATOM     21  C   UNL     1      -0.905   0.422   1.050  0.00  0.00    +0.130 C 
ATOM     22  N   UNL     1      -0.128   0.030  -0.129  0.00  0.00    -0.323 N 
ATOM     23  C   UNL     1       1.233   0.541  -0.312  0.00  0.00    +0.130 C 
ATOM     24  C   UNL     1      -0.681  -0.827  -1.073  0.00  0.00    +0.103 A 
ATOM     25  C   UNL     1      -0.590  -2.203  -0.893  0.00  0.00    +0.008 A 
ATOM     26  C   UNL     1      -1.145  -3.044  -1.840  0.00  0.00    +0.010 A 
ATOM     27  C   UNL     1      -1.775  -2.478  -2.941  0.00  0.00    +0.018 A 
ATOM     28  C   UNL     1      -1.828  -1.103  -3.057  0.00  0.00    +0.084 A 
ATOM     29  N   UNL     1      -1.295  -0.325  -2.134  0.00  0.00    -0.349 N 
ATOM     30  H   UNL     1      -1.350   0.638  -2.237  0.00  0.00    +0.167 HD
ENDBRANCH  20  25
ENDBRANCH   1  20
TORSDOF 4
