REMARK  Name = ZINC35965656
REMARK  10 active torsions:
REMARK  status: ('A' for Active; 'I' for Inactive)
REMARK    1  A    between atoms: C_1  and  C_2
REMARK    2  A    between atoms: C_2  and  N_3
REMARK    3  A    between atoms: C_9  and  C_11
REMARK    4  A    between atoms: C_11  and  C_13
REMARK    5  A    between atoms: C_11  and  N_20
REMARK    6  A    between atoms: C_13  and  C_14
REMARK    7  A    between atoms: C_26  and  C_35
REMARK    8  A    between atoms: N_31  and  C_32
REMARK    9  A    between atoms: C_32  and  C_33
REMARK   10  A    between atoms: C_39  and  C_41
REMARK                            x       y       z     vdW  Elec       q    Type
REMARK                         _______ _______ _______ _____ _____    ______ ____
ROOT
ATOM      1  N   UNL     1      -5.157  -5.104  -2.041  0.00  0.00    -0.280 N 
ATOM      2  C   UNL     1      -4.621  -6.167  -2.904  0.00  0.00    +0.160 C 
ATOM      3  C   UNL     1      -5.816  -6.678  -3.678  0.00  0.00    +0.043 C 
ATOM      4  C   UNL     1      -6.875  -5.954  -3.262  0.00  0.00    +0.058 C 
ATOM      5  C   UNL     1      -6.477  -5.021  -2.282  0.00  0.00    +0.247 C 
ATOM      6  O   UNL     1      -7.231  -4.241  -1.729  0.00  0.00    -0.270 OA
ATOM      7  C   UNL     1      -8.224  -6.259  -3.881  0.00  0.00    +0.142 C 
ATOM      8  N   UNL     1      -8.266  -7.328  -4.893  0.00  0.00    -0.288 N 
ATOM      9  C   UNL     1      -7.119  -7.963  -5.205  0.00  0.00    +0.307 C 
ATOM     10  O   UNL     1      -7.144  -8.846  -6.040  0.00  0.00    -0.252 OA
ATOM     11  N   UNL     1      -5.953  -7.652  -4.625  0.00  0.00    -0.253 N 
ATOM     12  H   UNL     1      -9.101  -7.570  -5.326  0.00  0.00    +0.151 HD
ENDROOT
BRANCH   7  13
ATOM     13  C   UNL     1      -9.171  -6.635  -2.771  0.00  0.00    -0.022 A 
ATOM     14  C   UNL     1      -9.140  -7.909  -2.236  0.00  0.00    +0.006 A 
ATOM     15  C   UNL     1     -10.008  -8.254  -1.218  0.00  0.00    +0.001 A 
ATOM     16  C   UNL     1     -10.909  -7.323  -0.733  0.00  0.00    +0.003 A 
ATOM     17  C   UNL     1     -10.940  -6.048  -1.267  0.00  0.00    -0.050 A 
ATOM     18  C   UNL     1     -10.068  -5.703  -2.282  0.00  0.00    +0.009 A 
ATOM     19  C   UNL     1     -11.921  -5.034  -0.739  0.00  0.00    +0.044 C 
ENDBRANCH   7  13
BRANCH   1  20
ATOM     20  C   UNL     1      -4.395  -4.291  -1.089  0.00  0.00    +0.167 C 
BRANCH  20  27
ATOM     21  N   UNL     1      -1.283  -0.439  -0.820  0.00  0.00    -0.300 NA
ATOM     22  C   UNL     1      -2.244  -0.145  -1.891  0.00  0.00    +0.103 C 
ATOM     23  C   UNL     1      -3.652  -0.540  -1.432  0.00  0.00    +0.123 C 
ATOM     24  N   UNL     1      -3.622  -1.943  -0.990  0.00  0.00    -0.298 N 
ATOM     25  C   UNL     1      -2.595  -2.345  -0.018  0.00  0.00    +0.123 C 
ATOM     26  C   UNL     1      -1.229  -1.879  -0.533  0.00  0.00    +0.103 C 
ATOM     27  C   UNL     1      -4.514  -2.836  -1.464  0.00  0.00    +0.237 C 
ATOM     28  O   UNL     1      -5.412  -2.469  -2.192  0.00  0.00    -0.274 OA
BRANCH  21  30
ATOM     29  C   UNL     1       0.003   1.611  -1.198  0.00  0.00    +0.020 C 
ATOM     30  C   UNL     1       0.050   0.082  -1.151  0.00  0.00    +0.081 C 
ENDBRANCH  21  30
ENDBRANCH  20  27
BRANCH  20  31
ATOM     31  C   UNL     1      -4.949  -4.502   0.321  0.00  0.00    +0.067 C 
BRANCH  31  32
ATOM     32  C   UNL     1      -4.708  -5.926   0.748  0.00  0.00    -0.045 A 
ATOM     33  C   UNL     1      -5.652  -6.899   0.475  0.00  0.00    +0.004 A 
ATOM     34  C   UNL     1      -5.430  -8.206   0.867  0.00  0.00    +0.000 A 
ATOM     35  C   UNL     1      -4.265  -8.541   1.531  0.00  0.00    +0.000 A 
ATOM     36  C   UNL     1      -3.321  -7.568   1.803  0.00  0.00    +0.000 A 
ATOM     37  C   UNL     1      -3.540  -6.262   1.407  0.00  0.00    +0.004 A 
ENDBRANCH  31  32
ENDBRANCH  20  31
ENDBRANCH   1  20
BRANCH  11  38
ATOM     38  C   UNL     1      -4.758  -8.397  -5.029  0.00  0.00    +0.141 C 
BRANCH  38  39
ATOM     39  C   UNL     1      -4.600  -9.609  -4.148  0.00  0.00    -0.015 C 
ATOM     40  C   UNL     1      -4.504 -10.801  -4.684  0.00  0.00    +0.005 C 
ENDBRANCH  38  39
ENDBRANCH  11  38
TORSDOF 8
