REMARK  Name = ZINC64191135
REMARK  5 active torsions:
REMARK  status: ('A' for Active; 'I' for Inactive)
REMARK    1  A    between atoms: C_1  and  C_2
REMARK    2  A    between atoms: C_4  and  C_16
REMARK    3  A    between atoms: N_8  and  C_9
REMARK    4  A    between atoms: N_18  and  N_19
REMARK    5  A    between atoms: C_20  and  C_22
REMARK                            x       y       z     vdW  Elec       q    Type
REMARK                         _______ _______ _______ _____ _____    ______ ____
ROOT
ATOM      1  C   UNL     1      -2.451  -0.344  -0.838  0.00  0.00    +0.259 C 
ATOM      2  O   UNL     1      -3.545  -0.846  -0.647  0.00  0.00    -0.269 OA
ATOM      3  N   UNL     1      -2.238   0.409  -1.935  0.00  0.00    -0.230 N 
ATOM      4  H   UNL     1      -1.367   0.808  -2.087  0.00  0.00    +0.173 HD
ENDROOT
BRANCH   1   7
ATOM      5  C   UNL     1      -0.019   1.526   0.010  0.00  0.00    +0.035 C 
ATOM      6  C   UNL     1       0.002  -0.004   0.002  0.00  0.00    +0.127 C 
ATOM      7  C   UNL     1      -1.406  -0.553   0.091  0.00  0.00    +0.052 C 
ATOM      8  H   UNL     1      -0.131  -1.737   2.731  0.00  0.00    +0.169 HD
ATOM      9  C   UNL     1      -1.473  -1.277   1.225  0.00  0.00    +0.098 C 
ATOM     10  N   UNL     1      -0.290  -1.275   1.893  0.00  0.00    -0.270 N 
ATOM     11  N   UNL     1       0.673  -0.517   1.209  0.00  0.00    -0.246 N 
BRANCH  11  12
ATOM     12  C   UNL     1       1.998  -0.292   1.593  0.00  0.00    +0.048 A 
ATOM     13  C   UNL     1       2.828   0.492   0.802  0.00  0.00    +0.026 A 
ATOM     14  C   UNL     1       4.136   0.713   1.184  0.00  0.00    +0.022 A 
ATOM     15  C   UNL     1       4.621   0.152   2.353  0.00  0.00    +0.041 A 
ATOM     16  C   UNL     1       3.796  -0.630   3.142  0.00  0.00    +0.022 A 
ATOM     17  C   UNL     1       2.485  -0.849   2.768  0.00  0.00    +0.026 A 
ATOM     18 CL   UNL     1       6.267   0.431   2.830  0.00  0.00    -0.084 Cl
ENDBRANCH  11  12
ENDBRANCH   1   7
BRANCH   3  19
ATOM     19  N   UNL     1      -3.274   0.616  -2.855  0.00  0.00    -0.230 N 
ATOM     20  C   UNL     1      -3.060   1.369  -3.952  0.00  0.00    +0.258 C 
ATOM     21  O   UNL     1      -1.968   1.870  -4.143  0.00  0.00    -0.269 OA
ATOM     22  H   UNL     1      -4.144   0.216  -2.703  0.00  0.00    +0.173 HD
BRANCH  20  23
ATOM     23  C   UNL     1      -4.145   1.585  -4.915  0.00  0.00    +0.044 C 
ATOM     24  C   UNL     1      -4.089   2.319  -6.080  0.00  0.00    +0.008 A 
ATOM     25  C   UNL     1      -3.054   3.060  -6.703  0.00  0.00    +0.010 A 
ATOM     26  C   UNL     1      -3.282   3.698  -7.872  0.00  0.00    +0.001 A 
ATOM     27  C   UNL     1      -4.528   3.663  -8.518  0.00  0.00    +0.002 A 
ATOM     28  C   UNL     1      -5.580   2.986  -8.009  0.00  0.00    +0.026 A 
ATOM     29  C   UNL     1      -5.417   2.262  -6.739  0.00  0.00    +0.043 A 
ATOM     30  N   UNL     1      -6.245   1.543  -6.034  0.00  0.00    -0.380 N 
ATOM     31  C   UNL     1      -5.555   1.044  -4.840  0.00  0.00    +0.154 C 
ATOM     32  H   UNL     1      -7.171   1.364  -6.264  0.00  0.00    +0.160 HD
ENDBRANCH  20  23
ENDBRANCH   3  19
TORSDOF 4
