REMARK  Name = ZINC63729913
REMARK  5 active torsions:
REMARK  status: ('A' for Active; 'I' for Inactive)
REMARK    1  A    between atoms: C_7  and  C_10
REMARK    2  A    between atoms: C_10  and  C_11
REMARK    3  A    between atoms: C_11  and  C_12
REMARK    4  A    between atoms: C_12  and  C_13
REMARK    5  A    between atoms: N_15  and  C_16
REMARK                            x       y       z     vdW  Elec       q    Type
REMARK                         _______ _______ _______ _____ _____    ______ ____
ROOT
ATOM      1  C   UNL     1      -0.729  -5.309  -2.876  0.00  0.00    +0.215 C 
ATOM      2  O   UNL     1      -0.183  -4.738  -3.796  0.00  0.00    -0.276 OA
ATOM      3  N   UNL     1      -1.542  -6.356  -3.120  0.00  0.00    -0.288 N 
ATOM      4  H   UNL     1      -1.979  -6.813  -2.385  0.00  0.00    +0.151 HD
ENDROOT
BRANCH   3   5
ATOM      5  C   UNL     1      -1.766  -6.804  -4.497  0.00  0.00    +0.224 C 
ATOM      6  N   UNL     1      -2.879  -7.761  -4.567  0.00  0.00    -0.316 N 
ATOM      7  C   UNL     1      -2.593  -9.050  -5.017  0.00  0.00    +0.043 A 
ATOM      8  C   UNL     1      -3.524 -10.096  -5.150  0.00  0.00    +0.025 A 
ATOM      9  C   UNL     1      -3.142 -11.336  -5.604  0.00  0.00    +0.017 A 
ATOM     10  C   UNL     1      -1.827 -11.598  -5.946  0.00  0.00    +0.019 A 
ATOM     11  C   UNL     1      -0.888 -10.586  -5.825  0.00  0.00    +0.032 A 
ATOM     12  C   UNL     1      -1.273  -9.345  -5.370  0.00  0.00    +0.033 A 
ATOM     13  S   UNL     1      -0.368  -7.838  -5.092  0.00  0.00    -0.082 S 
ATOM     14 BR   UNL     1      -1.319 -13.310  -6.569  0.00  0.00    -0.050 Br
ATOM     15  H   UNL     1      -3.779  -7.506  -4.310  0.00  0.00    +0.149 HD
ENDBRANCH   3   5
BRANCH   1  16
ATOM     16  C   UNL     1      -0.499  -4.848  -1.460  0.00  0.00    +0.096 C 
BRANCH  16  17
ATOM     17  C   UNL     1       0.457  -3.653  -1.462  0.00  0.00    +0.014 C 
BRANCH  17  18
ATOM     18  C   UNL     1       0.691  -3.186  -0.024  0.00  0.00    +0.033 C 
BRANCH  18  25
ATOM     19  C   UNL     1      -0.016   1.348   0.009  0.00  0.00    +0.001 A 
ATOM     20  C   UNL     1       1.166   2.101   0.002  0.00  0.00    +0.002 A 
ATOM     21  C   UNL     1       2.391   1.535  -0.013  0.00  0.00    +0.026 A 
ATOM     22  C   UNL     1       2.529   0.120  -0.022  0.00  0.00    +0.043 A 
ATOM     23  N   UNL     1       3.587  -0.654  -0.037  0.00  0.00    -0.380 N 
ATOM     24  C   UNL     1       3.143  -2.053  -0.041  0.00  0.00    +0.144 C 
ATOM     25  C   UNL     1       1.631  -2.008  -0.025  0.00  0.00    -0.042 C 
ATOM     26  C   UNL     1       1.295  -0.698  -0.014  0.00  0.00    -0.001 A 
ATOM     27  C   UNL     1       0.002  -0.004   0.002  0.00  0.00    +0.010 A 
ATOM     28  H   UNL     1       4.509  -0.353  -0.045  0.00  0.00    +0.160 HD
ENDBRANCH  18  25
ENDBRANCH  17  18
ENDBRANCH  16  17
ENDBRANCH   1  16
TORSDOF 5
