REMARK  Name = ZINC44163626
REMARK  8 active torsions:
REMARK  status: ('A' for Active; 'I' for Inactive)
REMARK    1  A    between atoms: C_1  and  C_2
REMARK    2  A    between atoms: C_5  and  C_9
REMARK    3  A    between atoms: C_6  and  C_8
REMARK    4  A    between atoms: C_14  and  C_17
REMARK    5  A    between atoms: N_19  and  C_20
REMARK    6  A    between atoms: C_20  and  C_21
REMARK    7  A    between atoms: C_26  and  O_27
REMARK    8  A    between atoms: O_27  and  C_28
REMARK                            x       y       z     vdW  Elec       q    Type
REMARK                         _______ _______ _______ _____ _____    ______ ____
ROOT
ATOM      1  C   UNL     1       0.059  -4.275  -0.021  0.00  0.00    -0.030 C 
ATOM      2  C   UNL     1      -1.373  -4.804   0.114  0.00  0.00    +0.058 C 
ATOM      3  S   UNL     1      -1.308  -6.622   0.168  0.00  0.00    -0.163 S 
ATOM      4  C   UNL     1      -0.262  -7.026  -1.266  0.00  0.00    +0.062 C 
ATOM      5  C   UNL     1       1.005  -6.165  -1.194  0.00  0.00    +0.027 C 
ATOM      6  N   UNL     1       0.646  -4.747  -1.277  0.00  0.00    +0.392 N 
ATOM      7  H   UNL     1      -0.021  -4.617  -2.023  0.00  0.00    -0.084 HD
ATOM      8  H   UNL     1       1.475  -4.209  -1.478  0.00  0.00    -0.084 HD
ENDROOT
BRANCH   1  13
ATOM      9  C   UNL     1      -0.018   1.503   0.010  0.00  0.00    +0.044 C 
ATOM     10  C   UNL     1       0.002  -0.004   0.002  0.00  0.00    -0.050 A 
ATOM     11  C   UNL     1       0.006  -0.689  -1.199  0.00  0.00    +0.003 A 
ATOM     12  C   UNL     1       0.025  -2.071  -1.207  0.00  0.00    +0.002 A 
ATOM     13  C   UNL     1       0.040  -2.768  -0.013  0.00  0.00    -0.058 A 
ATOM     14  C   UNL     1       0.037  -2.084   1.188  0.00  0.00    -0.049 A 
ATOM     15  C   UNL     1       0.023  -0.702   1.195  0.00  0.00    +0.007 A 
ATOM     16  C   UNL     1       0.054  -2.845   2.489  0.00  0.00    +0.044 C 
ENDBRANCH   1  13
BRANCH   5  17
ATOM     17  C   UNL     1       1.915  -6.518  -2.342  0.00  0.00    +0.200 C 
ATOM     18  O   UNL     1       2.228  -5.670  -3.151  0.00  0.00    -0.278 OA
ATOM     19  N   UNL     1       2.382  -7.776  -2.470  0.00  0.00    -0.312 N 
ATOM     20  H   UNL     1       2.132  -8.454  -1.823  0.00  0.00    +0.149 HD
BRANCH  19  21
ATOM     21  C   UNL     1       3.268  -8.118  -3.586  0.00  0.00    +0.143 C 
BRANCH  21  22
ATOM     22  C   UNL     1       3.644  -9.575  -3.499  0.00  0.00    +0.011 A 
ATOM     23  C   UNL     1       4.866  -9.943  -2.969  0.00  0.00    +0.009 A 
ATOM     24  C   UNL     1       5.212 -11.279  -2.890  0.00  0.00    +0.001 A 
ATOM     25  C   UNL     1       4.337 -12.251  -3.340  0.00  0.00    +0.004 A 
ATOM     26  C   UNL     1       3.114 -11.888  -3.870  0.00  0.00    +0.046 A 
ATOM     27  C   UNL     1       2.762 -10.548  -3.946  0.00  0.00    +0.125 A 
BRANCH  27  28
ATOM     28  O   UNL     1       1.557 -10.189  -4.461  0.00  0.00    -0.495 OA
ATOM     29  C   UNL     1       0.699 -11.244  -4.902  0.00  0.00    +0.277 C 
ENDBRANCH  27  28
ENDBRANCH  21  22
ENDBRANCH  19  21
ENDBRANCH   5  17
TORSDOF 5
