REMARK  Name = ZINC38934581
REMARK  4 active torsions:
REMARK  status: ('A' for Active; 'I' for Inactive)
REMARK    1  A    between atoms: C_3  and  S_6
REMARK    2  A    between atoms: S_6  and  N_9
REMARK    3  A    between atoms: C_12  and  C_15
REMARK    4  A    between atoms: C_21  and  C_23
REMARK                            x       y       z     vdW  Elec       q    Type
REMARK                         _______ _______ _______ _____ _____    ______ ____
ROOT
ATOM      1  C   UNL     1       3.550   1.710   5.665  0.00  0.00    +0.224 C 
ATOM      2  O   UNL     1       2.524   2.302   5.926  0.00  0.00    -0.275 OA
ATOM      3  N   UNL     1       4.045   0.805   6.533  0.00  0.00    -0.238 N 
ATOM      4  C   UNL     1       3.382   0.551   7.723  0.00  0.00    +0.315 A 
ATOM      5  N   UNL     1       2.267   1.113   8.124  0.00  0.00    -0.092 NA
ATOM      6  N   UNL     1       1.938   0.640   9.274  0.00  0.00    -0.103 NA
ATOM      7  C   UNL     1       2.832  -0.244   9.654  0.00  0.00    +0.285 A 
ATOM      8  O   UNL     1       3.762  -0.322   8.676  0.00  0.00    -0.402 OA
ATOM      9  H   UNL     1       4.866   0.332   6.324  0.00  0.00    +0.159 HD
ENDROOT
BRANCH   1  13
ATOM     10  N   UNL     1       4.477   2.089   1.552  0.00  0.00    -0.176 NA
ATOM     11  C   UNL     1       4.259   3.348   2.277  0.00  0.00    +0.110 C 
ATOM     12  C   UNL     1       3.505   3.045   3.576  0.00  0.00    +0.030 C 
ATOM     13  C   UNL     1       4.272   1.986   4.371  0.00  0.00    +0.078 C 
ATOM     14  C   UNL     1       4.361   0.696   3.552  0.00  0.00    +0.030 C 
ATOM     15  C   UNL     1       5.120   0.971   2.255  0.00  0.00    +0.110 C 
BRANCH  10  16
ATOM     16  S   UNL     1       4.001   1.932  -0.026  0.00  0.00    +0.067 S 
ATOM     17  O   UNL     1       4.799   0.900  -0.590  0.00  0.00    -0.152 OA
ATOM     18  O   UNL     1       3.957   3.244  -0.570  0.00  0.00    -0.152 OA
BRANCH  16  21
ATOM     19  C   UNL     1      -0.016   1.351   0.009  0.00  0.00    +0.010 A 
ATOM     20  C   UNL     1       1.183   2.038   0.002  0.00  0.00    +0.036 A 
ATOM     21  C   UNL     1       2.343   1.336  -0.013  0.00  0.00    +0.143 A 
ATOM     22  S   UNL     1       1.754  -0.349  -0.017  0.00  0.00    -0.077 S 
ATOM     23  C   UNL     1       0.002  -0.004   0.002  0.00  0.00    +0.047 A 
ENDBRANCH  16  21
ENDBRANCH  10  16
ENDBRANCH   1  13
BRANCH   7  24
ATOM     24  C   UNL     1       2.821  -1.012  10.908  0.00  0.00    +0.192 A 
ATOM     25  C   UNL     1       1.873  -0.936  11.884  0.00  0.00    +0.056 A 
ATOM     26  C   UNL     1       2.257  -1.838  12.894  0.00  0.00    +0.058 A 
ATOM     27  C   UNL     1       3.409  -2.416  12.491  0.00  0.00    +0.171 A 
ATOM     28  O   UNL     1       3.743  -1.918  11.290  0.00  0.00    -0.443 OA
ATOM     29 BR   UNL     1       4.386  -3.715  13.457  0.00  0.00    -0.008 Br
ENDBRANCH   7  24
TORSDOF 4
