REMARK  Name = ZINC11816090
REMARK  5 active torsions:
REMARK  status: ('A' for Active; 'I' for Inactive)
REMARK    1  A    between atoms: C_3  and  C_8
REMARK    2  A    between atoms: C_8  and  N_53
REMARK    3  A    between atoms: C_9  and  N_53
REMARK    4  A    between atoms: C_23  and  C_26
REMARK    5  A    between atoms: C_26  and  O_27
REMARK                            x       y       z     vdW  Elec       q    Type
REMARK                         _______ _______ _______ _____ _____    ______ ____
ROOT
ATOM      1  C   UNL     1      -2.502   0.969   0.009  0.00  0.00    -0.037 C 
ATOM      2  C   UNL     1      -3.581   1.914   0.538  0.00  0.00    -0.011 C 
ATOM      3  C   UNL     1      -3.553   3.199  -0.298  0.00  0.00    +0.005 C 
ATOM      4  C   UNL     1      -2.269   3.962   0.039  0.00  0.00    +0.056 C 
ATOM      5  C   UNL     1      -1.074   3.056  -0.086  0.00  0.00    +0.048 A 
ATOM      6  C   UNL     1      -1.182   1.682  -0.089  0.00  0.00    -0.022 A 
ATOM      7  C   UNL     1      -0.021   0.924  -0.188  0.00  0.00    +0.118 A 
ATOM      8  N   UNL     1       1.146   1.535  -0.291  0.00  0.00    -0.223 NA
ATOM      9  C   UNL     1       1.216   2.858  -0.296  0.00  0.00    +0.218 A 
ATOM     10  N   UNL     1       0.130   3.607  -0.196  0.00  0.00    -0.219 NA
ATOM     11  N   UNL     1       2.452   3.470  -0.409  0.00  0.00    -0.300 N 
ATOM     12  C   UNL     1       2.686   4.393   0.709  0.00  0.00    +0.108 C 
ATOM     13  C   UNL     1       3.992   5.157   0.476  0.00  0.00    +0.025 C 
ATOM     14  C   UNL     1       5.148   4.160   0.362  0.00  0.00    +0.017 C 
ATOM     15  C   UNL     1       4.856   3.180  -0.778  0.00  0.00    +0.025 C 
ATOM     16  C   UNL     1       3.526   2.474  -0.509  0.00  0.00    +0.108 C 
ENDROOT
BRANCH   1  17
ATOM     17  N   UNL     1      -2.362  -0.175   0.929  0.00  0.00    +0.386 N 
ATOM     18  H   UNL     1      -1.419  -0.570   0.838  0.00  0.00    -0.085 HD
ATOM     19  H   UNL     1      -2.508   0.145   1.894  0.00  0.00    -0.085 HD
BRANCH  17  20
ATOM     20  C   UNL     1      -3.357  -1.216   0.607  0.00  0.00    -0.046 C 
BRANCH  20  23
ATOM     21  C   UNL     1      -3.978  -3.253   3.725  0.00  0.00    +0.002 A 
ATOM     22  C   UNL     1      -4.052  -2.247   2.779  0.00  0.00    +0.002 A 
ATOM     23  C   UNL     1      -3.276  -2.312   1.637  0.00  0.00    -0.063 A 
ATOM     24  C   UNL     1      -2.431  -3.387   1.437  0.00  0.00    +0.021 A 
ATOM     25  C   UNL     1      -2.353  -4.392   2.384  0.00  0.00    +0.041 A 
ATOM     26  C   UNL     1      -3.129  -4.325   3.528  0.00  0.00    +0.020 A 
ATOM     27 CL   UNL     1      -1.287  -5.739   2.136  0.00  0.00    -0.084 Cl
ENDBRANCH  20  23
ENDBRANCH  17  20
ENDBRANCH   1  17
BRANCH  14  28
ATOM     28  C   UNL     1       6.447   4.913   0.069  0.00  0.00    +0.159 C 
BRANCH  28  29
ATOM     29  O   UNL     1       6.779   5.741   1.185  0.00  0.00    -0.395 OA
ATOM     30  H   UNL     1       7.594   6.250   1.069  0.00  0.00    +0.209 HD
ENDBRANCH  28  29
ENDBRANCH  14  28
TORSDOF 5
