REMARK  Name = ZINC02793966
REMARK  14 active torsions:
REMARK  status: ('A' for Active; 'I' for Inactive)
REMARK    1  A    between atoms: C_1  and  C_2
REMARK    2  A    between atoms: C_5  and  C_9
REMARK    3  A    between atoms: C_7  and  C_8
REMARK    4  A    between atoms: C_12  and  C_33
REMARK    5  A    between atoms: C_17  and  C_19
REMARK    6  A    between atoms: N_21  and  N_22
REMARK    7  A    between atoms: N_22  and  C_23
REMARK    8  A    between atoms: C_23  and  N_25
REMARK    9  A    between atoms: N_25  and  C_26
REMARK   10  A    between atoms: C_26  and  C_27
REMARK   11  A    between atoms: C_27  and  C_28
REMARK   12  A    between atoms: C_28  and  N_29
REMARK   13  A    between atoms: N_29  and  C_30
REMARK   14  A    between atoms: N_29  and  C_31
REMARK                            x       y       z     vdW  Elec       q    Type
REMARK                         _______ _______ _______ _____ _____    ______ ____
ROOT
ATOM      1  C   UNL     1       4.772   1.668  -9.071  0.00  0.00    +0.104 C 
ATOM      2  C   UNL     1       5.003   2.645  -7.912  0.00  0.00    +0.063 C 
ATOM      3  C   UNL     1       3.872   2.515  -6.886  0.00  0.00    +0.215 C 
ATOM      4  N   UNL     1       3.694   1.099  -6.553  0.00  0.00    -0.238 N 
ATOM      5  C   UNL     1       4.145   0.073  -7.336  0.00  0.00    +0.119 A 
ATOM      6  C   UNL     1       3.824  -1.088  -6.733  0.00  0.00    +0.078 A 
ATOM      7  C   UNL     1       3.139  -0.773  -5.537  0.00  0.00    +0.150 A 
ATOM      8  N   UNL     1       3.069   0.543  -5.438  0.00  0.00    -0.164 NA
ATOM      9  N   UNL     1       4.819   0.291  -8.541  0.00  0.00    -0.322 N 
ATOM     10  H   UNL     1       5.363  -0.491  -9.091  0.00  0.00    +0.148 HD
ENDROOT
BRANCH   1  15
ATOM     11  C   UNL     1       8.897   2.373 -13.056  0.00  0.00    +0.044 C 
ATOM     12  C   UNL     1       7.821   2.189 -12.017  0.00  0.00    -0.048 A 
ATOM     13  C   UNL     1       8.079   1.449 -10.878  0.00  0.00    +0.004 A 
ATOM     14  C   UNL     1       7.094   1.285  -9.922  0.00  0.00    +0.006 A 
ATOM     15  C   UNL     1       5.848   1.852 -10.110  0.00  0.00    -0.027 A 
ATOM     16  C   UNL     1       5.590   2.592 -11.248  0.00  0.00    +0.009 A 
ATOM     17  C   UNL     1       6.577   2.761 -12.202  0.00  0.00    -0.047 A 
ATOM     18  C   UNL     1       6.295   3.568 -13.443  0.00  0.00    +0.044 C 
ENDBRANCH   1  15
BRANCH   7  19
ATOM     19  C   UNL     1       2.600  -1.745  -4.565  0.00  0.00    +0.280 C 
ATOM     20  O   UNL     1       2.725  -2.938  -4.765  0.00  0.00    -0.267 OA
ATOM     21  N   UNL     1       1.969  -1.311  -3.456  0.00  0.00    -0.230 N 
ATOM     22  H   UNL     1       1.855  -0.232  -3.275  0.00  0.00    +0.173 HD
BRANCH  21  23
ATOM     23  N   UNL     1       1.458  -2.233  -2.534  0.00  0.00    -0.246 N 
ATOM     24  H   UNL     1       1.571  -3.312  -2.715  0.00  0.00    +0.172 HD
BRANCH  23  25
ATOM     25  C   UNL     1       0.827  -1.799  -1.425  0.00  0.00    +0.147 C 
ATOM     26  S   UNL     1       0.202  -2.926  -0.298  0.00  0.00    -0.017 S 
BRANCH  25  27
ATOM     27  N   UNL     1       0.688  -0.476  -1.203  0.00  0.00    -0.326 N 
ATOM     28  H   UNL     1       1.089   0.248  -1.927  0.00  0.00    +0.148 HD
BRANCH  27  29
ATOM     29  C   UNL     1       0.002  -0.004   0.002  0.00  0.00    +0.101 C 
BRANCH  29  30
ATOM     30  C   UNL     1      -0.019   1.526   0.010  0.00  0.00    +0.000 C 
BRANCH  30  31
ATOM     31  C   UNL     1      -0.735   2.019   1.269  0.00  0.00    -0.078 C 
BRANCH  31  32
ATOM     32  N   UNL     1      -0.755   3.488   1.277  0.00  0.00    +0.376 N 
ATOM     33  C   UNL     1      -1.579   4.009   0.179  0.00  0.00    -0.097 C 
ATOM     34  C   UNL     1      -1.219   4.001   2.573  0.00  0.00    -0.097 C 
ATOM     35  H   UNL     1       0.276   3.841   1.123  0.00  0.00    -0.083 HD
ENDBRANCH  31  32
ENDBRANCH  30  31
ENDBRANCH  29  30
ENDBRANCH  27  29
ENDBRANCH  25  27
ENDBRANCH  23  25
ENDBRANCH  21  23
ENDBRANCH   7  19
BRANCH   3  36
ATOM     36  C   UNL     1       4.235   3.297  -5.622  0.00  0.00    +0.412 C 
ATOM     37  F   UNL     1       5.424   2.792  -5.086  0.00  0.00    -0.168 F 
ATOM     38  F   UNL     1       4.404   4.648  -5.942  0.00  0.00    -0.168 F 
ATOM     39  F   UNL     1       3.207   3.165  -4.682  0.00  0.00    -0.168 F 
ENDBRANCH   3  36
TORSDOF 10
