REMARK  Name = ZINC15103665
REMARK  10 active torsions:
REMARK  status: ('A' for Active; 'I' for Inactive)
REMARK    1  A    between atoms: C_1  and  N_2
REMARK    2  A    between atoms: N_2  and  C_3
REMARK    3  A    between atoms: N_2  and  C_13
REMARK    4  A    between atoms: C_3  and  C_4
REMARK    5  A    between atoms: C_4  and  O_5
REMARK    6  A    between atoms: O_5  and  C_6
REMARK    7  A    between atoms: C_13  and  C_14
REMARK    8  A    between atoms: N_16  and  C_17
REMARK    9  A    between atoms: C_21  and  S_23
REMARK   10  A    between atoms: S_23  and  N_26
REMARK                            x       y       z     vdW  Elec       q    Type
REMARK                         _______ _______ _______ _____ _____    ______ ____
ROOT
ATOM      1  C   UNL     1      -2.042  -0.132   1.309  0.00  0.00    +0.201 C 
ATOM      2  O   UNL     1      -1.427   0.495   2.146  0.00  0.00    -0.278 OA
ATOM      3  N   UNL     1      -3.320  -0.492   1.542  0.00  0.00    -0.287 N 
ATOM      4  H   UNL     1      -3.833  -0.934   0.848  0.00  0.00    +0.155 HD
ENDROOT
BRANCH   3   5
ATOM      5  C   UNL     1      -3.906  -0.229   2.785  0.00  0.00    +0.035 A 
ATOM      6  C   UNL     1      -4.816  -1.126   3.329  0.00  0.00    +0.023 A 
ATOM      7  C   UNL     1      -5.392  -0.863   4.557  0.00  0.00    +0.004 A 
ATOM      8  C   UNL     1      -5.064   0.291   5.243  0.00  0.00    +0.029 A 
ATOM      9  C   UNL     1      -4.159   1.186   4.704  0.00  0.00    +0.114 A 
ATOM     10  C   UNL     1      -3.574   0.926   3.480  0.00  0.00    +0.052 A 
BRANCH   9  11
ATOM     11  S   UNL     1      -3.745   2.656   5.583  0.00  0.00    +0.100 S 
ATOM     12  O   UNL     1      -3.289   3.593   4.616  0.00  0.00    -0.146 OA
ATOM     13  O   UNL     1      -4.834   2.930   6.454  0.00  0.00    -0.146 OA
BRANCH  11  14
ATOM     14  N   UNL     1      -2.446   2.301   6.547  0.00  0.00    -0.118 NA
ATOM     15  C   UNL     1      -1.935   3.215   7.306  0.00  0.00    +0.117 C 
ATOM     16  N   UNL     1      -2.385   4.505   7.402  0.00  0.00    -0.331 N 
ATOM     17  C   UNL     1      -1.910   5.091   8.666  0.00  0.00    +0.103 C 
ATOM     18  C   UNL     1      -0.567   4.379   8.942  0.00  0.00    +0.026 C 
ATOM     19  C   UNL     1      -0.753   3.022   8.231  0.00  0.00    +0.074 C 
ATOM     20  H   UNL     1      -2.929   4.961   6.742  0.00  0.00    +0.147 HD
ENDBRANCH  11  14
ENDBRANCH   9  11
ENDBRANCH   3   5
BRANCH   1  21
ATOM     21  C   UNL     1      -1.378  -0.507   0.009  0.00  0.00    +0.019 C 
BRANCH  21  23
ATOM     22  C   UNL     1      -0.015   1.467   0.019  0.00  0.00    -0.095 C 
ATOM     23  N   UNL     1       0.001  -0.002   0.001  0.00  0.00    +0.386 N 
ATOM     24  H   UNL     1       0.489  -0.343   0.815  0.00  0.00    -0.081 HD
BRANCH  23  25
ATOM     25  C   UNL     1       0.686  -0.469  -1.212  0.00  0.00    -0.037 C 
BRANCH  25  26
ATOM     26  C   UNL     1       2.156  -0.048  -1.162  0.00  0.00    +0.211 C 
BRANCH  26  27
ATOM     27  O   UNL     1       2.806  -0.718  -0.080  0.00  0.00    -0.492 OA
BRANCH  27  28
ATOM     28  C   UNL     1       4.126  -0.453   0.106  0.00  0.00    +0.139 A 
ATOM     29  C   UNL     1       4.781   0.437  -0.733  0.00  0.00    +0.047 A 
ATOM     30  C   UNL     1       6.123   0.704  -0.543  0.00  0.00    +0.004 A 
ATOM     31  C   UNL     1       6.814   0.086   0.483  0.00  0.00    +0.002 A 
ATOM     32  C   UNL     1       6.165  -0.801   1.321  0.00  0.00    +0.023 A 
ATOM     33  C   UNL     1       4.820  -1.068   1.139  0.00  0.00    +0.083 A 
ATOM     34 CL   UNL     1       4.003  -2.177   2.195  0.00  0.00    -0.080 Cl
ENDBRANCH  27  28
ENDBRANCH  26  27
ENDBRANCH  25  26
ENDBRANCH  23  25
ENDBRANCH  21  23
ENDBRANCH   1  21
TORSDOF 9
