REMARK  Name = ZINC37399854
REMARK  5 active torsions:
REMARK  status: ('A' for Active; 'I' for Inactive)
REMARK    1  A    between atoms: C_1  and  C_2
REMARK    2  A    between atoms: C_2  and  C_4
REMARK    3  A    between atoms: C_2  and  N_11
REMARK    4  A    between atoms: C_12  and  C_14
REMARK    5  A    between atoms: C_14  and  N_15
REMARK                            x       y       z     vdW  Elec       q    Type
REMARK                         _______ _______ _______ _____ _____    ______ ____
ROOT
ATOM      1  N   UNL     1      -1.372  -0.511   0.012  0.00  0.00    -0.310 N 
ATOM      2  C   UNL     1      -2.051  -0.643  -1.145  0.00  0.00    +0.197 C 
ATOM      3  O   UNL     1      -1.524  -0.341  -2.194  0.00  0.00    -0.278 OA
ATOM      4  H   UNL     1      -1.794  -0.752   0.852  0.00  0.00    +0.149 HD
ENDROOT
BRANCH   1   6
ATOM      5  C   UNL     1      -0.019   1.526   0.010  0.00  0.00    +0.033 C 
ATOM      6  C   UNL     1       0.002  -0.004   0.002  0.00  0.00    +0.100 C 
BRANCH   6   7
ATOM      7  C   UNL     1       0.731  -0.503   1.223  0.00  0.00    -0.027 A 
ATOM      8  C   UNL     1       0.081  -0.558   2.442  0.00  0.00    +0.006 A 
ATOM      9  C   UNL     1       0.749  -1.017   3.562  0.00  0.00    +0.015 A 
ATOM     10  C   UNL     1       2.068  -1.420   3.463  0.00  0.00    +0.018 A 
ATOM     11  C   UNL     1       2.718  -1.365   2.243  0.00  0.00    +0.015 A 
ATOM     12  C   UNL     1       2.048  -0.911   1.123  0.00  0.00    +0.006 A 
ATOM     13 BR   UNL     1       2.983  -2.046   4.995  0.00  0.00    -0.050 Br
ENDBRANCH   6   7
ENDBRANCH   1   6
BRANCH   2  14
ATOM     14  C   UNL     1      -3.465  -1.164  -1.134  0.00  0.00    +0.019 C 
BRANCH  14  15
ATOM     15  N   UNL     1      -3.979  -1.213  -2.509  0.00  0.00    +0.386 N 
ATOM     16  C   UNL     1      -5.421  -1.536  -2.468  0.00  0.00    -0.077 C 
ATOM     17  C   UNL     1      -6.057  -1.081  -3.758  0.00  0.00    -0.003 C 
ATOM     18  C   UNL     1      -6.107  -2.208  -4.804  0.00  0.00    +0.079 C 
ATOM     19  N   UNL     1      -4.860  -3.007  -4.829  0.00  0.00    -0.318 NA
ATOM     20  C   UNL     1      -3.660  -2.209  -4.716  0.00  0.00    +0.062 C 
ATOM     21  C   UNL     1      -3.237  -2.150  -3.236  0.00  0.00    -0.063 C 
ATOM     22  H   UNL     1      -4.880  -3.731  -4.127  0.00  0.00    +0.122 HD
ATOM     23  H   UNL     1      -3.862  -0.305  -2.933  0.00  0.00    -0.081 HD
ENDBRANCH  14  15
ENDBRANCH   2  14
TORSDOF 4
