REMARK  Name = ZINC00861394
REMARK  9 active torsions:
REMARK  status: ('A' for Active; 'I' for Inactive)
REMARK    1  A    between atoms: C_1  and  C_2
REMARK    2  A    between atoms: C_3  and  C_32
REMARK    3  A    between atoms: C_4  and  C_23
REMARK    4  A    between atoms: C_10  and  C_15
REMARK    5  A    between atoms: C_18  and  O_21
REMARK    6  A    between atoms: O_21  and  C_22
REMARK    7  A    between atoms: C_27  and  N_29
REMARK    8  A    between atoms: C_32  and  O_34
REMARK    9  A    between atoms: O_34  and  C_35
REMARK                            x       y       z     vdW  Elec       q    Type
REMARK                         _______ _______ _______ _____ _____    ______ ____
ROOT
ATOM      1  C   UNL     1      -1.367   1.921  -0.492  0.00  0.00    +0.061 C 
ATOM      2  C   UNL     1      -0.032   1.270  -0.234  0.00  0.00    +0.016 C 
ATOM      3  C   UNL     1       0.029  -0.049   0.019  0.00  0.00    +0.065 C 
ATOM      4  C   UNL     1       1.342  -0.733   0.267  0.00  0.00    +0.092 C 
ATOM      5  C   UNL     1       2.416   0.267   0.616  0.00  0.00    +0.024 C 
ATOM      6  C   UNL     1       2.256   1.577   0.332  0.00  0.00    +0.016 C 
ATOM      7  N   UNL     1       1.108   2.023  -0.265  0.00  0.00    -0.321 N 
ATOM      8  C   UNL     1       3.331   2.581   0.666  0.00  0.00    +0.059 C 
ATOM      9  C   UNL     1       4.094   2.121   1.911  0.00  0.00    +0.032 C 
ATOM     10  C   UNL     1       4.690   0.738   1.632  0.00  0.00    +0.088 C 
ATOM     11  C   UNL     1       3.583  -0.203   1.243  0.00  0.00    +0.162 C 
ATOM     12  O   UNL     1       3.699  -1.390   1.475  0.00  0.00    -0.292 OA
ATOM     13  H   UNL     1       1.108   2.999  -0.772  0.00  0.00    +0.152 HD
ENDROOT
BRANCH   9  14
ATOM     14  C   UNL     1       5.201   3.098   2.215  0.00  0.00    -0.043 A 
ATOM     15  C   UNL     1       6.187   3.338   1.276  0.00  0.00    +0.007 A 
ATOM     16  C   UNL     1       7.199   4.237   1.550  0.00  0.00    +0.046 A 
ATOM     17  C   UNL     1       7.233   4.890   2.774  0.00  0.00    +0.120 A 
ATOM     18  C   UNL     1       6.246   4.642   3.717  0.00  0.00    +0.046 A 
ATOM     19  C   UNL     1       5.232   3.747   3.436  0.00  0.00    +0.007 A 
BRANCH  17  20
ATOM     20  O   UNL     1       8.232   5.769   3.049  0.00  0.00    -0.495 OA
ATOM     21  C   UNL     1       9.214   5.975   2.031  0.00  0.00    +0.277 C 
ENDBRANCH  17  20
ENDBRANCH   9  14
BRANCH   4  22
ATOM     22  C   UNL     1       1.750  -1.484  -0.974  0.00  0.00    -0.033 A 
ATOM     23  C   UNL     1       1.937  -0.805  -2.163  0.00  0.00    +0.005 A 
ATOM     24  C   UNL     1       2.315  -1.494  -3.300  0.00  0.00    +0.003 A 
ATOM     25  C   UNL     1       2.499  -2.863  -3.250  0.00  0.00    +0.033 A 
ATOM     26  C   UNL     1       2.307  -3.543  -2.062  0.00  0.00    +0.126 A 
ATOM     27  C   UNL     1       1.933  -2.854  -0.924  0.00  0.00    +0.037 A 
BRANCH  26  28
ATOM     28  N   UNL     1       2.503  -5.009  -2.009  0.00  0.00    +0.056 N 
ATOM     29  O   UNL     1       2.334  -5.608  -0.962  0.00  0.00    -0.126 OA
ATOM     30  O   UNL     1       2.833  -5.616  -3.012  0.00  0.00    -0.126 OA
ENDBRANCH  26  28
ENDBRANCH   4  22
BRANCH   3  31
ATOM     31  C   UNL     1      -1.165  -0.806   0.052  0.00  0.00    +0.338 C 
ATOM     32  O   UNL     1      -2.243  -0.246  -0.025  0.00  0.00    -0.245 OA
BRANCH  31  33
ATOM     33  O   UNL     1      -1.110  -2.149   0.170  0.00  0.00    -0.458 OA
BRANCH  33  34
ATOM     34  C   UNL     1      -2.355  -2.850   0.197  0.00  0.00    +0.177 C 
ATOM     35  C   UNL     1      -2.819  -3.047   1.655  0.00  0.00    +0.044 C 
ATOM     36  C   UNL     1      -3.468  -4.453   1.660  0.00  0.00    +0.004 C 
ATOM     37  C   UNL     1      -2.546  -5.259   0.711  0.00  0.00    +0.004 C 
ATOM     38  C   UNL     1      -2.181  -4.256  -0.403  0.00  0.00    +0.044 C 
ENDBRANCH  33  34
ENDBRANCH  31  33
ENDBRANCH   3  31
TORSDOF 7
