REMARK  Name = ZINC63437192
REMARK  12 active torsions:
REMARK  status: ('A' for Active; 'I' for Inactive)
REMARK    1  A    between atoms: C_1  and  C_2
REMARK    2  A    between atoms: C_2  and  C_3
REMARK    3  A    between atoms: C_2  and  C_4
REMARK    4  A    between atoms: C_4  and  C_5
REMARK    5  A    between atoms: C_5  and  O_6
REMARK    6  A    between atoms: O_6  and  C_7
REMARK    7  A    between atoms: C_10  and  C_13
REMARK    8  A    between atoms: N_15  and  C_16
REMARK    9  A    between atoms: C_16  and  C_18
REMARK   10  A    between atoms: C_16  and  C_28
REMARK   11  A    between atoms: C_18  and  C_19
REMARK   12  A    between atoms: N_30  and  N_31
REMARK                            x       y       z     vdW  Elec       q    Type
REMARK                         _______ _______ _______ _____ _____    ______ ____
ROOT
ATOM      1  C   UNL     1      10.419   0.602  -4.062  0.00  0.00    +0.164 C 
ENDROOT
BRANCH   1   4
ATOM      2  C   UNL     1       8.306   0.684  -2.852  0.00  0.00    +0.245 C 
ATOM      3  O   UNL     1       8.867   1.310  -1.974  0.00  0.00    -0.270 OA
ATOM      4  N   UNL     1       8.995   0.283  -3.939  0.00  0.00    -0.300 N 
ATOM      5  H   UNL     1       8.547  -0.216  -4.640  0.00  0.00    +0.150 HD
BRANCH   2   9
ATOM      6  C   UNL     1       4.176  -0.239  -2.497  0.00  0.00    +0.121 A 
ATOM      7  C   UNL     1       4.815   0.476  -1.491  0.00  0.00    +0.046 A 
ATOM      8  C   UNL     1       6.154   0.778  -1.602  0.00  0.00    +0.016 A 
ATOM      9  C   UNL     1       6.870   0.363  -2.728  0.00  0.00    +0.037 A 
ATOM     10  C   UNL     1       6.224  -0.356  -3.737  0.00  0.00    +0.016 A 
ATOM     11  C   UNL     1       4.886  -0.658  -3.616  0.00  0.00    +0.046 A 
BRANCH   6  12
ATOM     12  O   UNL     1       2.856  -0.534  -2.383  0.00  0.00    -0.492 OA
BRANCH  12  13
ATOM     13  C   UNL     1       2.187  -0.073  -1.207  0.00  0.00    +0.229 C 
BRANCH  13  14
ATOM     14  C   UNL     1       0.718  -0.497  -1.257  0.00  0.00    +0.044 C 
BRANCH  14  16
ATOM     15  C   UNL     1      -0.019   1.526   0.010  0.00  0.00    +0.007 C 
ATOM     16  C   UNL     1       0.002  -0.004   0.002  0.00  0.00    -0.014 C 
ATOM     17  C   UNL     1      -1.433  -0.534   0.013  0.00  0.00    +0.007 C 
ENDBRANCH  14  16
ENDBRANCH  13  14
ENDBRANCH  12  13
ENDBRANCH   6  12
ENDBRANCH   2   9
ENDBRANCH   1   4
BRANCH   1  18
ATOM     18  C   UNL     1      11.232  -0.442  -3.340  0.00  0.00    +0.247 C 
ATOM     19  O   UNL     1      10.676  -1.362  -2.779  0.00  0.00    -0.272 OA
ATOM     20  N   UNL     1      12.577  -0.353  -3.319  0.00  0.00    -0.252 N 
ATOM     21  H   UNL     1      13.021   0.382  -3.768  0.00  0.00    +0.169 HD
BRANCH  20  22
ATOM     22  N   UNL     1      13.313  -1.300  -2.665  0.00  0.00    -0.254 NA
ATOM     23  H   UNL     1      13.104  -2.224  -3.011  0.00  0.00    +0.140 HD
ATOM     24  H   UNL     1      14.300  -1.102  -2.735  0.00  0.00    +0.140 HD
ENDBRANCH  20  22
ENDBRANCH   1  18
BRANCH   1  25
ATOM     25  C   UNL     1      10.812   0.622  -5.541  0.00  0.00    +0.065 C 
BRANCH  25  26
ATOM     26  C   UNL     1      10.090   1.746  -6.237  0.00  0.00    -0.039 C 
ATOM     27  C   UNL     1      10.561   2.992  -6.473  0.00  0.00    -0.001 A 
ATOM     28  C   UNL     1      11.837   3.648  -6.163  0.00  0.00    +0.010 A 
ATOM     29  C   UNL     1      12.020   4.936  -6.535  0.00  0.00    +0.001 A 
ATOM     30  C   UNL     1      11.024   5.657  -7.206  0.00  0.00    +0.002 A 
ATOM     31  C   UNL     1       9.826   5.123  -7.526  0.00  0.00    +0.026 A 
ATOM     32  C   UNL     1       9.526   3.776  -7.184  0.00  0.00    +0.043 A 
ATOM     33  N   UNL     1       8.456   3.044  -7.379  0.00  0.00    -0.380 N 
ATOM     34  C   UNL     1       8.695   1.709  -6.819  0.00  0.00    +0.144 C 
ATOM     35  H   UNL     1       7.644   3.335  -7.823  0.00  0.00    +0.160 HD
ENDBRANCH  25  26
ENDBRANCH   1  25
TORSDOF 10
