REMARK  Name = ZINC63571486
REMARK  7 active torsions:
REMARK  status: ('A' for Active; 'I' for Inactive)
REMARK    1  A    between atoms: C_1  and  C_2
REMARK    2  A    between atoms: C_5  and  C_8
REMARK    3  A    between atoms: N_25  and  C_26
REMARK    4  A    between atoms: C_29  and  O_34
REMARK    5  A    between atoms: C_31  and  O_32
REMARK    6  A    between atoms: O_32  and  C_33
REMARK    7  A    between atoms: O_34  and  C_35
REMARK                            x       y       z     vdW  Elec       q    Type
REMARK                         _______ _______ _______ _____ _____    ______ ____
ROOT
ATOM      1  C   UNL     1       0.616  -3.497   0.169  0.00  0.00    +0.134 C 
ATOM      2  C   UNL     1      -0.856  -3.921   0.102  0.00  0.00    +0.131 C 
ATOM      3  C   UNL     1      -1.329  -4.077   1.542  0.00  0.00    -0.035 C 
ATOM      4  C   UNL     1      -2.386  -3.285   1.677  0.00  0.00    -0.001 A 
ATOM      5  C   UNL     1      -3.304  -3.061   2.806  0.00  0.00    +0.010 A 
ATOM      6  C   UNL     1      -4.294  -2.152   2.602  0.00  0.00    +0.001 A 
ATOM      7  C   UNL     1      -4.460  -1.451   1.403  0.00  0.00    +0.002 A 
ATOM      8  C   UNL     1      -3.665  -1.597   0.313  0.00  0.00    +0.026 A 
ATOM      9  C   UNL     1      -2.591  -2.530   0.404  0.00  0.00    +0.043 A 
ATOM     10  N   UNL     1      -1.694  -2.882  -0.500  0.00  0.00    -0.375 N 
ATOM     11  C   UNL     1      -0.600  -4.936   2.546  0.00  0.00    +0.052 C 
ATOM     12  C   UNL     1       0.881  -4.519   2.493  0.00  0.00    +0.114 C 
ATOM     13  N   UNL     1       1.308  -4.410   1.093  0.00  0.00    -0.276 N 
ATOM     14  C   UNL     1       2.341  -5.152   0.649  0.00  0.00    +0.307 C 
ATOM     15  O   UNL     1       2.757  -4.999  -0.483  0.00  0.00    -0.252 OA
ATOM     16  N   UNL     1       2.912  -6.066   1.459  0.00  0.00    -0.266 N 
ATOM     17  H   UNL     1       2.539  -6.234   2.338  0.00  0.00    +0.156 HD
ATOM     18  H   UNL     1      -1.596  -2.523  -1.396  0.00  0.00    +0.160 HD
ENDROOT
BRANCH   1  23
ATOM     19  C   UNL     1       1.000   1.928   2.121  0.00  0.00    +0.044 C 
ATOM     20  C   UNL     1       0.900   0.513   1.612  0.00  0.00    -0.050 A 
ATOM     21  C   UNL     1       1.398   0.191   0.364  0.00  0.00    +0.004 A 
ATOM     22  C   UNL     1       1.307  -1.107  -0.103  0.00  0.00    +0.006 A 
ATOM     23  C   UNL     1       0.717  -2.082   0.679  0.00  0.00    -0.025 A 
ATOM     24  C   UNL     1       0.219  -1.760   1.927  0.00  0.00    +0.006 A 
ATOM     25  C   UNL     1       0.315  -0.463   2.396  0.00  0.00    +0.004 A 
ENDBRANCH   1  23
BRANCH  16  26
ATOM     26  C   UNL     1       4.046  -6.772   1.031  0.00  0.00    +0.078 A 
ATOM     27  C   UNL     1       4.251  -7.003  -0.322  0.00  0.00    +0.050 A 
ATOM     28  C   UNL     1       5.368  -7.699  -0.743  0.00  0.00    +0.084 A 
ATOM     29  C   UNL     1       6.287  -8.168   0.185  0.00  0.00    +0.142 A 
ATOM     30  C   UNL     1       6.087  -7.939   1.538  0.00  0.00    +0.094 A 
ATOM     31  C   UNL     1       4.971  -7.237   1.963  0.00  0.00    +0.145 A 
ATOM     32 CL   UNL     1       5.622  -7.987  -2.436  0.00  0.00    -0.080 Cl
BRANCH  31  33
ATOM     33  O   UNL     1       4.776  -7.006   3.289  0.00  0.00    -0.493 OA
ATOM     34  C   UNL     1       5.765  -7.512   4.188  0.00  0.00    +0.277 C 
ENDBRANCH  31  33
BRANCH  29  35
ATOM     35  O   UNL     1       7.385  -8.853  -0.233  0.00  0.00    -0.494 OA
ATOM     36  C   UNL     1       8.290  -9.307   0.777  0.00  0.00    +0.277 C 
ENDBRANCH  29  35
ENDBRANCH  16  26
TORSDOF 4
