REMARK  Name = ZINC11815906
REMARK  8 active torsions:
REMARK  status: ('A' for Active; 'I' for Inactive)
REMARK    1  A    between atoms: C_1  and  C_2
REMARK    2  A    between atoms: C_2  and  C_4
REMARK    3  A    between atoms: C_2  and  N_58
REMARK    4  A    between atoms: C_9  and  N_58
REMARK    5  A    between atoms: C_10  and  C_11
REMARK    6  A    between atoms: C_10  and  N_58
REMARK    7  A    between atoms: C_14  and  C_19
REMARK    8  A    between atoms: N_21  and  C_22
REMARK                            x       y       z     vdW  Elec       q    Type
REMARK                         _______ _______ _______ _____ _____    ______ ____
ROOT
ATOM      1  C   UNL     1      -0.391  -0.245   2.651  0.00  0.00    +0.003 A 
ATOM      2  C   UNL     1       0.769  -0.908   2.409  0.00  0.00    +0.020 A 
ATOM      3  C   UNL     1       0.847  -2.284   2.628  0.00  0.00    +0.020 A 
ATOM      4  C   UNL     1      -0.283  -2.960   3.084  0.00  0.00    +0.101 A 
ATOM      5  C   UNL     1      -1.473  -2.223   3.316  0.00  0.00    +0.261 A 
ATOM      6  O   UNL     1      -2.475  -2.791   3.716  0.00  0.00    -0.267 OA
ATOM      7  N   UNL     1      -1.493  -0.895   3.094  0.00  0.00    -0.327 N 
ATOM      8  H   UNL     1      -2.309  -0.397   3.255  0.00  0.00    +0.169 HD
ENDROOT
BRANCH   4   9
ATOM      9  C   UNL     1      -0.242  -4.411   3.321  0.00  0.00    +0.250 C 
ATOM     10  O   UNL     1       0.808  -5.016   3.212  0.00  0.00    -0.270 OA
ATOM     11  N   UNL     1      -1.367  -5.070   3.661  0.00  0.00    -0.300 N 
ATOM     12  H   UNL     1      -2.188  -4.578   3.819  0.00  0.00    +0.150 HD
BRANCH  11  13
ATOM     13  C   UNL     1      -1.351  -6.529   3.791  0.00  0.00    +0.135 C 
ATOM     14  C   UNL     1      -1.645  -7.173   2.458  0.00  0.00    -0.015 A 
ATOM     15  C   UNL     1      -0.995  -7.124   1.243  0.00  0.00    +0.006 A 
ATOM     16  C   UNL     1      -1.495  -7.828   0.161  0.00  0.00    +0.000 A 
ATOM     17  C   UNL     1      -2.648  -8.580   0.296  0.00  0.00    +0.001 A 
ATOM     18  C   UNL     1      -3.305  -8.634   1.508  0.00  0.00    +0.009 A 
ATOM     19  C   UNL     1      -2.806  -7.927   2.604  0.00  0.00    -0.012 A 
ATOM     20  C   UNL     1      -3.300  -7.809   3.998  0.00  0.00    -0.012 A 
ATOM     21  C   UNL     1      -2.448  -6.980   4.723  0.00  0.00    -0.015 A 
ATOM     22  C   UNL     1      -2.700  -6.716   6.052  0.00  0.00    +0.006 A 
ATOM     23  C   UNL     1      -3.803  -7.275   6.673  0.00  0.00    +0.000 A 
ATOM     24  C   UNL     1      -4.656  -8.100   5.961  0.00  0.00    +0.001 A 
ATOM     25  C   UNL     1      -4.411  -8.369   4.630  0.00  0.00    +0.009 A 
ENDBRANCH  11  13
ENDBRANCH   4   9
BRANCH   1  26
ATOM     26  C   UNL     1      -0.455   1.242   2.414  0.00  0.00    -0.024 C 
BRANCH  26  28
ATOM     27  C   UNL     1      -0.893   0.989   0.046  0.00  0.00    -0.095 C 
ATOM     28  N   UNL     1      -1.418   1.510   1.325  0.00  0.00    +0.386 N 
ATOM     29  H   UNL     1      -2.304   1.038   1.540  0.00  0.00    -0.081 HD
BRANCH  28  31
ATOM     30  C   UNL     1      -2.692   3.211   0.110  0.00  0.00    -0.008 C 
ATOM     31  C   UNL     1      -1.663   2.964   1.215  0.00  0.00    -0.034 C 
BRANCH  31  32
ATOM     32  C   UNL     1      -2.206   3.469   2.527  0.00  0.00    -0.024 A 
ATOM     33  C   UNL     1      -1.930   4.627   3.176  0.00  0.00    +0.009 A 
ATOM     34  C   UNL     1      -2.555   4.887   4.381  0.00  0.00    +0.008 A 
ATOM     35  C   UNL     1      -3.418   3.970   4.884  0.00  0.00    +0.045 A 
ATOM     36  S   UNL     1      -3.372   2.695   3.635  0.00  0.00    -0.103 S 
ENDBRANCH  31  32
ENDBRANCH  28  31
ENDBRANCH  26  28
ENDBRANCH   1  26
TORSDOF 6
