REMARK  Name = ZINC32304137
REMARK  14 active torsions:
REMARK  status: ('A' for Active; 'I' for Inactive)
REMARK    1  A    between atoms: C_1  and  C_2
REMARK    2  A    between atoms: C_1  and  C_28
REMARK    3  A    between atoms: C_2  and  N_3
REMARK    4  A    between atoms: N_13  and  C_16
REMARK    5  A    between atoms: C_16  and  C_17
REMARK    6  A    between atoms: C_17  and  C_19
REMARK    7  A    between atoms: C_17  and  O_27
REMARK    8  A    between atoms: C_19  and  C_21
REMARK    9  A    between atoms: C_19  and  O_26
REMARK   10  A    between atoms: C_21  and  C_23
REMARK   11  A    between atoms: C_21  and  O_25
REMARK   12  A    between atoms: C_23  and  O_24
REMARK   13  A    between atoms: C_28  and  O_29
REMARK   14  A    between atoms: O_29  and  P_30
REMARK                            x       y       z     vdW  Elec       q    Type
REMARK                         _______ _______ _______ _____ _____    ______ ____
ROOT
ATOM      1  N   UNL     1      -1.372  -0.511   0.012  0.00  0.00    -0.286 N 
ATOM      2  C   UNL     1      -2.135  -0.796   1.147  0.00  0.00    +0.154 A 
ATOM      3  C   UNL     1      -3.370  -1.250   0.702  0.00  0.00    +0.172 A 
ATOM      4  N   UNL     1      -4.305  -1.599   1.594  0.00  0.00    -0.173 NA
ATOM      5  C   UNL     1      -4.076  -1.520   2.884  0.00  0.00    +0.351 A 
ATOM      6  O   UNL     1      -5.048  -1.882   3.748  0.00  0.00    -0.245 OA
ATOM      7  N   UNL     1      -2.885  -1.082   3.373  0.00  0.00    -0.272 N 
ATOM      8  H   UNL     1      -2.744  -1.034   4.332  0.00  0.00    +0.174 HD
ATOM      9  C   UNL     1      -1.897  -0.714   2.527  0.00  0.00    +0.280 A 
ATOM     10  O   UNL     1      -0.824  -0.320   2.954  0.00  0.00    -0.265 OA
ATOM     11  N   UNL     1      -3.332  -1.232  -0.677  0.00  0.00    -0.274 N 
ATOM     12  C   UNL     1      -2.127  -0.779  -1.071  0.00  0.00    +0.332 A 
ATOM     13  O   UNL     1      -1.773  -0.638  -2.227  0.00  0.00    -0.246 OA
ENDROOT
BRANCH   1  14
ATOM     14  C   UNL     1       0.002  -0.004   0.002  0.00  0.00    +0.129 C 
BRANCH  14  15
ATOM     15  C   UNL     1      -0.019   1.526   0.010  0.00  0.00    +0.050 C 
BRANCH  15  16
ATOM     16  C   UNL     1       1.417   2.055  -0.000  0.00  0.00    +0.174 C 
BRANCH  16  17
ATOM     17  O   UNL     1       1.397   3.484   0.007  0.00  0.00    -0.284 OA
BRANCH  17  18
ATOM     18  P   UNL     1       2.736   4.379  -0.001  0.00  0.00    +0.532 P 
ATOM     19  O   UNL     1       3.652   3.959   1.198  0.00  0.00    -0.222 OA
ATOM     20  O   UNL     1       3.504   4.158  -1.348  0.00  0.00    -0.115 OA
ATOM     21  O   UNL     1       2.353   5.892   0.140  0.00  0.00    -0.115 OA
ENDBRANCH  17  18
ENDBRANCH  16  17
ENDBRANCH  15  16
ENDBRANCH  14  15
ENDBRANCH   1  14
BRANCH  11  22
ATOM     22  C   UNL     1      -4.426  -1.632  -1.565  0.00  0.00    +0.162 C 
BRANCH  22  23
ATOM     23  C   UNL     1      -5.306  -0.418  -1.870  0.00  0.00    +0.165 C 
BRANCH  23  24
ATOM     24  O   UNL     1      -4.551   0.544  -2.609  0.00  0.00    -0.387 OA
ATOM     25  H   UNL     1      -4.216   0.215  -3.455  0.00  0.00    +0.210 HD
ENDBRANCH  23  24
BRANCH  23  26
ATOM     26  C   UNL     1      -6.517  -0.860  -2.695  0.00  0.00    +0.175 C 
BRANCH  26  27
ATOM     27  O   UNL     1      -6.070  -1.548  -3.865  0.00  0.00    -0.387 OA
ATOM     28  H   UNL     1      -5.509  -1.015  -4.445  0.00  0.00    +0.210 HD
ENDBRANCH  26  27
BRANCH  26  29
ATOM     29  C   UNL     1      -7.330   0.369  -3.105  0.00  0.00    +0.171 C 
BRANCH  29  30
ATOM     30  O   UNL     1      -7.777   1.057  -1.935  0.00  0.00    -0.387 OA
ATOM     31  H   UNL     1      -8.338   0.524  -1.355  0.00  0.00    +0.210 HD
ENDBRANCH  29  30
BRANCH  29  32
ATOM     32  C   UNL     1      -8.541  -0.072  -3.930  0.00  0.00    +0.189 C 
BRANCH  32  33
ATOM     33  O   UNL     1      -9.236   1.080  -4.411  0.00  0.00    -0.392 OA
ATOM     34  H   UNL     1     -10.016   0.875  -4.943  0.00  0.00    +0.210 HD
ENDBRANCH  32  33
ENDBRANCH  29  32
ENDBRANCH  26  29
ENDBRANCH  23  26
ENDBRANCH  22  23
ENDBRANCH  11  22
TORSDOF 14
