REMARK  Name = ZINC13352926
REMARK  9 active torsions:
REMARK  status: ('A' for Active; 'I' for Inactive)
REMARK    1  A    between atoms: C_1  and  C_2
REMARK    2  A    between atoms: C_9  and  O_12
REMARK    3  A    between atoms: O_12  and  C_13
REMARK    4  A    between atoms: C_13  and  C_14
REMARK    5  A    between atoms: N_16  and  N_17
REMARK    6  A    between atoms: C_18  and  C_19
REMARK    7  A    between atoms: C_22  and  O_25
REMARK    8  A    between atoms: O_25  and  C_26
REMARK    9  A    between atoms: C_26  and  C_27
REMARK                            x       y       z     vdW  Elec       q    Type
REMARK                         _______ _______ _______ _____ _____    ______ ____
ROOT
ATOM      1  C   UNL     1       0.002  -0.004   0.002  0.00  0.00    +0.270 C 
ATOM      2  O   UNL     1       1.061  -0.596  -0.011  0.00  0.00    -0.270 OA
ATOM      3  N   UNL     1      -0.016   1.344   0.009  0.00  0.00    -0.204 N 
ATOM      4  H   UNL     1      -0.863   1.817   0.016  0.00  0.00    +0.177 HD
ENDROOT
BRANCH   3   5
ATOM      5  N   UNL     1       1.187   2.061   0.002  0.00  0.00    -0.188 NA
ATOM      6  C   UNL     1       1.170   3.358   0.009  0.00  0.00    +0.138 C 
BRANCH   6   7
ATOM      7  C   UNL     1       2.436   4.113   0.001  0.00  0.00    -0.005 A 
ATOM      8  C   UNL     1       3.657   3.433  -0.009  0.00  0.00    +0.013 A 
ATOM      9  C   UNL     1       4.838   4.142  -0.021  0.00  0.00    +0.046 A 
ATOM     10  C   UNL     1       4.817   5.531  -0.013  0.00  0.00    +0.121 A 
ATOM     11  C   UNL     1       3.606   6.211   0.002  0.00  0.00    +0.046 A 
ATOM     12  C   UNL     1       2.420   5.510   0.009  0.00  0.00    +0.013 A 
BRANCH  10  13
ATOM     13  O   UNL     1       5.984   6.226  -0.019  0.00  0.00    -0.481 OA
BRANCH  13  14
ATOM     14  C   UNL     1       7.193   5.464  -0.034  0.00  0.00    +0.353 C 
BRANCH  14  15
ATOM     15  C   UNL     1       8.376   6.398  -0.038  0.00  0.00    +0.393 C 
ATOM     16  O   UNL     1       8.201   7.594  -0.030  0.00  0.00    -0.243 OA
ATOM     17  O   UNL     1       9.623   5.902  -0.052  0.00  0.00    -0.243 OA
ENDBRANCH  14  15
ENDBRANCH  13  14
ENDBRANCH  10  13
ENDBRANCH   6   7
ENDBRANCH   3   5
BRANCH   1  18
ATOM     18  C   UNL     1      -1.293  -0.775   0.010  0.00  0.00    +0.326 C 
BRANCH  18  19
ATOM     19  O   UNL     1      -1.012  -2.176   0.000  0.00  0.00    -0.479 OA
BRANCH  19  28
ATOM     20  C   UNL     1      -1.991  -3.012   4.824  0.00  0.00    +0.065 C 
ATOM     21  C   UNL     1      -2.611  -3.485   3.535  0.00  0.00    +0.039 A 
ATOM     22  C   UNL     1      -3.703  -4.348   3.584  0.00  0.00    +0.024 A 
ATOM     23  C   UNL     1      -4.278  -4.787   2.425  0.00  0.00    +0.013 A 
ATOM     24  C   UNL     1      -3.736  -4.343   1.205  0.00  0.00    +0.022 A 
ATOM     25  C   UNL     1      -4.275  -4.754  -0.026  0.00  0.00    +0.052 A 
ATOM     26  C   UNL     1      -3.727  -4.306  -1.190  0.00  0.00    +0.044 A 
ATOM     27  C   UNL     1      -2.634  -3.442  -1.181  0.00  0.00    +0.086 A 
ATOM     28  C   UNL     1      -2.079  -3.019   0.006  0.00  0.00    +0.165 A 
ATOM     29  C   UNL     1      -2.621  -3.470   1.227  0.00  0.00    +0.116 A 
ATOM     30  N   UNL     1      -2.109  -3.073   2.396  0.00  0.00    -0.248 NA
ATOM     31 CL   UNL     1      -1.963  -2.893  -2.685  0.00  0.00    -0.080 Cl
ATOM     32 CL   UNL     1      -5.637  -5.830  -0.063  0.00  0.00    -0.083 Cl
ENDBRANCH  19  28
ENDBRANCH  18  19
ENDBRANCH   1  18
TORSDOF 8
