REMARK  Name = ZINC67324770
REMARK  11 active torsions:
REMARK  status: ('A' for Active; 'I' for Inactive)
REMARK    1  A    between atoms: C_1  and  C_2
REMARK    2  A    between atoms: C_5  and  C_30
REMARK    3  A    between atoms: N_8  and  C_10
REMARK    4  A    between atoms: C_10  and  C_11
REMARK    5  A    between atoms: C_10  and  C_12
REMARK    6  A    between atoms: C_10  and  C_13
REMARK    7  A    between atoms: C_13  and  N_14
REMARK    8  A    between atoms: N_17  and  C_18
REMARK    9  A    between atoms: C_22  and  N_24
REMARK   10  A    between atoms: C_25  and  O_27
REMARK   11  A    between atoms: O_27  and  C_28
REMARK                            x       y       z     vdW  Elec       q    Type
REMARK                         _______ _______ _______ _____ _____    ______ ____
ROOT
ATOM      1  N   UNL     1       3.659  -1.429   1.212  0.00  0.00    -0.300 N 
ATOM      2  C   UNL     1       4.936  -1.540   0.796  0.00  0.00    +0.304 C 
ATOM      3  O   UNL     1       5.848  -1.317   1.568  0.00  0.00    -0.253 OA
ATOM      4  N   UNL     1       5.201  -1.899  -0.476  0.00  0.00    -0.269 N 
ATOM      5  H   UNL     1       2.931  -1.608   0.596  0.00  0.00    +0.150 HD
ATOM      6  H   UNL     1       4.477  -2.146  -1.071  0.00  0.00    +0.156 HD
ENDROOT
BRANCH   4   7
ATOM      7  C   UNL     1       6.524  -1.916  -0.937  0.00  0.00    +0.037 A 
ATOM      8  C   UNL     1       7.552  -2.295  -0.084  0.00  0.00    +0.026 A 
ATOM      9  C   UNL     1       8.857  -2.312  -0.538  0.00  0.00    +0.042 A 
ATOM     10  C   UNL     1       9.143  -1.952  -1.842  0.00  0.00    +0.145 A 
ATOM     11  C   UNL     1       8.117  -1.571  -2.700  0.00  0.00    +0.073 A 
ATOM     12  C   UNL     1       6.806  -1.559  -2.248  0.00  0.00    +0.049 A 
ATOM     13  F   UNL     1      10.420  -1.969  -2.283  0.00  0.00    -0.204 F 
BRANCH  11  14
ATOM     14  N   UNL     1       8.406  -1.205  -4.021  0.00  0.00    -0.248 N 
ATOM     15  C   UNL     1       7.519  -0.479  -4.729  0.00  0.00    +0.404 C 
ATOM     16  O   UNL     1       6.508  -0.066  -4.195  0.00  0.00    -0.226 OA
ATOM     17  H   UNL     1       9.246  -1.475  -4.426  0.00  0.00    +0.158 HD
BRANCH  15  18
ATOM     18  O   UNL     1       7.752  -0.211  -6.028  0.00  0.00    -0.453 OA
ATOM     19  C   UNL     1       6.769   0.564  -6.717  0.00  0.00    +0.282 C 
ENDBRANCH  15  18
ENDBRANCH  11  14
ENDBRANCH   4   7
BRANCH   1  20
ATOM     20  C   UNL     1       3.370  -1.039   2.594  0.00  0.00    +0.093 C 
BRANCH  20  21
ATOM     21  C   UNL     1       1.859  -1.076   2.830  0.00  0.00    -0.055 C 
ATOM     22  C   UNL     1       1.553  -0.608   4.254  0.00  0.00    -0.008 C 
ATOM     23  C   UNL     1       1.348  -2.506   2.641  0.00  0.00    -0.008 C 
BRANCH  21  29
ATOM     24  C   UNL     1       1.701   3.485   1.057  0.00  0.00    +0.005 C 
ATOM     25  C   UNL     1       1.118   2.076   0.931  0.00  0.00    -0.031 C 
ATOM     26  C   UNL     1      -0.397   2.127   1.153  0.00  0.00    +0.003 C 
ATOM     27  C   UNL     1      -0.959   0.704   1.104  0.00  0.00    -0.031 C 
ATOM     28  C   UNL     1      -0.248  -0.156   2.151  0.00  0.00    -0.075 C 
ATOM     29  N   UNL     1       1.192  -0.187   1.869  0.00  0.00    +0.384 N 
ATOM     30  C   UNL     1       1.752   1.165   1.984  0.00  0.00    -0.075 C 
ATOM     31  C   UNL     1      -2.459   0.737   1.401  0.00  0.00    +0.005 C 
ATOM     32  H   UNL     1       1.343  -0.533   0.933  0.00  0.00    -0.081 HD
ENDBRANCH  21  29
ENDBRANCH  20  21
ENDBRANCH   1  20
TORSDOF 6
