REMARK  Name = ZINC12849886
REMARK  7 active torsions:
REMARK  status: ('A' for Active; 'I' for Inactive)
REMARK    1  A    between atoms: C_1  and  C_2
REMARK    2  A    between atoms: C_2  and  C_4
REMARK    3  A    between atoms: C_2  and  O_34
REMARK    4  A    between atoms: C_8  and  N_10
REMARK    5  A    between atoms: C_11  and  C_13
REMARK    6  A    between atoms: C_19  and  C_28
REMARK    7  A    between atoms: C_22  and  C_24
REMARK                            x       y       z     vdW  Elec       q    Type
REMARK                         _______ _______ _______ _____ _____    ______ ____
ROOT
ATOM      1  C   UNL     1      -0.138  -2.977   6.719  0.00  0.00    +0.091 C 
ATOM      2  C   UNL     1       0.377  -3.470   7.900  0.00  0.00    +0.104 C 
ATOM      3  N   UNL     1      -0.641  -3.915   8.681  0.00  0.00    -0.269 N 
ATOM      4  N   UNL     1      -1.852  -3.742   8.022  0.00  0.00    -0.226 N 
ATOM      5  C   UNL     1      -1.595  -3.136   6.800  0.00  0.00    +0.126 C 
ATOM      6  N   UNL     1      -2.523  -2.813   5.946  0.00  0.00    -0.364 N 
ATOM      7  C   UNL     1      -3.929  -3.052   6.295  0.00  0.00    +0.113 C 
ATOM      8  C   UNL     1      -4.056  -4.287   7.189  0.00  0.00    +0.062 C 
ATOM      9  C   UNL     1      -3.206  -4.106   8.453  0.00  0.00    +0.201 C 
ATOM     10  H   UNL     1      -0.538  -4.297   9.566  0.00  0.00    +0.170 HD
ATOM     11  H   UNL     1      -2.289  -2.419   5.091  0.00  0.00    +0.161 HD
ENDROOT
BRANCH   7  12
ATOM     12  C   UNL     1      -4.471  -1.851   7.027  0.00  0.00    -0.025 A 
ATOM     13  C   UNL     1      -3.683  -1.192   7.952  0.00  0.00    +0.005 A 
ATOM     14  C   UNL     1      -4.181  -0.091   8.623  0.00  0.00    +0.000 A 
ATOM     15  C   UNL     1      -5.465   0.352   8.368  0.00  0.00    +0.000 A 
ATOM     16  C   UNL     1      -6.252  -0.307   7.442  0.00  0.00    +0.000 A 
ATOM     17  C   UNL     1      -5.753  -1.406   6.768  0.00  0.00    +0.005 A 
ENDBRANCH   7  12
BRANCH   1  19
ATOM     18  N   UNL     1      -0.027  -1.793   4.591  0.00  0.00    -0.281 N 
ATOM     19  C   UNL     1       0.621  -2.403   5.603  0.00  0.00    +0.253 C 
ATOM     20  O   UNL     1       1.835  -2.476   5.591  0.00  0.00    -0.270 OA
ATOM     21  H   UNL     1      -0.980  -1.622   4.657  0.00  0.00    +0.155 HD
BRANCH  18  26
ATOM     22  C   UNL     1       0.752  -1.075   1.070  0.00  0.00    -0.018 A 
ATOM     23  C   UNL     1       2.061  -0.640   1.176  0.00  0.00    +0.006 A 
ATOM     24  C   UNL     1       2.678  -0.587   2.412  0.00  0.00    +0.002 A 
ATOM     25  C   UNL     1       1.988  -0.969   3.546  0.00  0.00    +0.023 A 
ATOM     26  C   UNL     1       0.674  -1.405   3.444  0.00  0.00    +0.034 A 
ATOM     27  C   UNL     1       0.056  -1.452   2.201  0.00  0.00    +0.029 A 
BRANCH  22  29
ATOM     28  C   UNL     1      -0.383   0.272  -0.675  0.00  0.00    +0.043 C 
ATOM     29  C   UNL     1       0.084  -1.130  -0.279  0.00  0.00    +0.141 C 
BRANCH  29  30
ATOM     30  O   UNL     1       1.013  -1.615  -1.251  0.00  0.00    -0.387 OA
ATOM     31  H   UNL     1       1.804  -1.067  -1.347  0.00  0.00    +0.210 HD
ENDBRANCH  29  30
ENDBRANCH  22  29
ENDBRANCH  18  26
ENDBRANCH   1  19
BRANCH   9  32
ATOM     32  C   UNL     1      -3.165  -5.408   9.256  0.00  0.00    +0.410 C 
ATOM     33  F   UNL     1      -2.352  -5.236  10.382  0.00  0.00    -0.169 F 
ATOM     34  F   UNL     1      -4.460  -5.747   9.662  0.00  0.00    -0.169 F 
ATOM     35  F   UNL     1      -2.644  -6.432   8.457  0.00  0.00    -0.169 F 
ENDBRANCH   9  32
TORSDOF 6
