REMARK  Name = ZINC43253609
REMARK  8 active torsions:
REMARK  status: ('A' for Active; 'I' for Inactive)
REMARK    1  A    between atoms: C_1  and  C_2
REMARK    2  A    between atoms: C_2  and  C_4
REMARK    3  A    between atoms: C_2  and  N_21
REMARK    4  A    between atoms: C_4  and  C_6
REMARK    5  A    between atoms: C_4  and  N_12
REMARK    6  A    between atoms: N_12  and  C_13
REMARK    7  A    between atoms: N_12  and  C_14
REMARK    8  A    between atoms: C_14  and  C_15
REMARK                            x       y       z     vdW  Elec       q    Type
REMARK                         _______ _______ _______ _____ _____    ______ ____
ROOT
ATOM      1  C   UNL     1       0.757  -0.242   0.930  0.00  0.00    +0.079 C 
ENDROOT
BRANCH   1   2
ATOM      2  C   UNL     1       0.970  -1.712   0.676  0.00  0.00    +0.007 A 
ATOM      3  C   UNL     1       0.206  -2.764   1.059  0.00  0.00    +0.014 A 
ATOM      4  C   UNL     1       0.600  -4.042   0.709  0.00  0.00    +0.028 A 
ATOM      5  C   UNL     1       1.739  -4.205  -0.009  0.00  0.00    +0.078 A 
ATOM      6  S   UNL     1       2.289  -2.519  -0.216  0.00  0.00    -0.080 S 
ATOM      7 CL   UNL     1       2.470  -5.672  -0.583  0.00  0.00    -0.076 Cl
ENDBRANCH   1   2
BRANCH   1   9
ATOM      8  C   UNL     1       0.317   1.966  -0.153  0.00  0.00    -0.012 C 
ATOM      9  C   UNL     1       0.388   0.454  -0.381  0.00  0.00    -0.056 C 
BRANCH   9  10
ATOM     10  N   UNL     1      -0.919  -0.033  -0.843  0.00  0.00    +0.381 N 
ATOM     11  H   UNL     1      -0.872  -1.030  -0.993  0.00  0.00    -0.090 HD
ATOM     12  H   UNL     1      -1.619   0.170  -0.145  0.00  0.00    -0.090 HD
ATOM     13  H   UNL     1      -1.162   0.426  -1.708  0.00  0.00    -0.090 HD
ENDBRANCH   9  10
ENDBRANCH   1   9
BRANCH   1  14
ATOM     14  N   UNL     1       1.993   0.345   1.466  0.00  0.00    -0.295 NA
ATOM     15  C   UNL     1       2.355  -0.270   2.750  0.00  0.00    +0.105 C 
BRANCH  14  16
ATOM     16  C   UNL     1       3.092   0.232   0.498  0.00  0.00    +0.120 C 
BRANCH  16  17
ATOM     17  C   UNL     1       4.188   1.199   0.867  0.00  0.00    -0.025 A 
ATOM     18  C   UNL     1       4.184   2.487   0.364  0.00  0.00    +0.028 A 
ATOM     19  C   UNL     1       5.185   3.332   0.716  0.00  0.00    +0.055 A 
ATOM     20  S   UNL     1       6.176   2.304   1.789  0.00  0.00    -0.090 S 
ATOM     21  C   UNL     1       5.187   0.821   1.700  0.00  0.00    +0.051 A 
ATOM     22 BR   UNL     1       5.460   5.131   0.203  0.00  0.00    -0.043 Br
ENDBRANCH  16  17
ENDBRANCH  14  16
ENDBRANCH   1  14
TORSDOF 6
