REMARK  Name = ZINC11955280
REMARK  6 active torsions:
REMARK  status: ('A' for Active; 'I' for Inactive)
REMARK    1  A    between atoms: C_3  and  N_14
REMARK    2  A    between atoms: C_6  and  N_7
REMARK    3  A    between atoms: C_8  and  C_10
REMARK    4  A    between atoms: C_10  and  C_11
REMARK    5  A    between atoms: C_11  and  C_12
REMARK    6  A    between atoms: C_12  and  N_39
REMARK                            x       y       z     vdW  Elec       q    Type
REMARK                         _______ _______ _______ _____ _____    ______ ____
ROOT
ATOM      1  C   UNL     1      -2.286  -0.280   0.192  0.00  0.00    +0.025 A 
ATOM      2  C   UNL     1      -3.440  -1.032   0.287  0.00  0.00    +0.028 A 
ATOM      3  C   UNL     1      -4.679  -0.405   0.290  0.00  0.00    +0.069 A 
ATOM      4  C   UNL     1      -4.756   0.980   0.203  0.00  0.00    +0.065 A 
ATOM      5  C   UNL     1      -3.601   1.732   0.113  0.00  0.00    +0.045 A 
ATOM      6  C   UNL     1      -2.363   1.104   0.110  0.00  0.00    +0.035 A 
ATOM      7 CL   UNL     1      -6.305   1.765   0.208  0.00  0.00    -0.082 Cl
ENDROOT
BRANCH   3   8
ATOM      8  N   UNL     1      -5.849  -1.167   0.382  0.00  0.00    -0.206 N 
ATOM      9  C   UNL     1      -6.493  -1.661   1.613  0.00  0.00    +0.133 C 
ATOM     10  C   UNL     1      -7.254  -2.973   1.344  0.00  0.00    +0.045 C 
ATOM     11  C   UNL     1      -8.043  -2.720   0.024  0.00  0.00    +0.190 C 
ATOM     12  S   UNL     1      -6.809  -1.700  -0.884  0.00  0.00    +0.046 S 
ATOM     13  O   UNL     1      -7.415  -0.531  -1.419  0.00  0.00    -0.155 OA
ATOM     14  O   UNL     1      -5.966  -2.523  -1.679  0.00  0.00    -0.155 OA
ENDBRANCH   3   8
BRANCH   6  15
ATOM     15  N   UNL     1      -1.191   1.867   0.018  0.00  0.00    -0.285 N 
ATOM     16  C   UNL     1      -1.125   3.076   0.609  0.00  0.00    +0.217 C 
ATOM     17  O   UNL     1      -2.107   3.541   1.149  0.00  0.00    -0.275 OA
ATOM     18  H   UNL     1      -0.426   1.524  -0.471  0.00  0.00    +0.155 HD
BRANCH  16  19
ATOM     19  C   UNL     1       0.169   3.848   0.605  0.00  0.00    +0.094 C 
BRANCH  19  20
ATOM     20  C   UNL     1      -0.026   5.174   1.343  0.00  0.00    -0.010 C 
BRANCH  20  21
ATOM     21  C   UNL     1       1.288   5.958   1.339  0.00  0.00    -0.086 C 
BRANCH  21  24
ATOM     22  H   UNL     1       1.955   7.768   2.058  0.00  0.00    -0.090 HD
ATOM     23  H   UNL     1       0.345   7.763   1.642  0.00  0.00    -0.090 HD
ATOM     24  N   UNL     1       1.095   7.223   2.070  0.00  0.00    +0.378 N 
ATOM     25  H   UNL     1       0.844   7.014   3.044  0.00  0.00    -0.090 HD
ENDBRANCH  21  24
ENDBRANCH  20  21
ENDBRANCH  19  20
ENDBRANCH  16  19
ENDBRANCH   6  15
TORSDOF 6
