REMARK  Name = ZINC62375471
REMARK  12 active torsions:
REMARK  status: ('A' for Active; 'I' for Inactive)
REMARK    1  A    between atoms: C_1  and  C_2
REMARK    2  A    between atoms: C_2  and  C_3
REMARK    3  A    between atoms: C_3  and  C_4
REMARK    4  A    between atoms: C_3  and  N_5
REMARK    5  A    between atoms: C_6  and  C_8
REMARK    6  A    between atoms: C_8  and  C_9
REMARK    7  A    between atoms: C_8  and  N_10
REMARK    8  A    between atoms: N_13  and  C_14
REMARK    9  A    between atoms: C_19  and  C_20
REMARK   10  A    between atoms: C_20  and  N_21
REMARK   11  A    between atoms: N_21  and  C_22
REMARK   12  A    between atoms: N_21  and  C_23
REMARK                            x       y       z     vdW  Elec       q    Type
REMARK                         _______ _______ _______ _____ _____    ______ ____
ROOT
ATOM      1  N   UNL     1       4.443   0.939  -3.918  0.00  0.00    -0.288 N 
ATOM      2  C   UNL     1       5.488   1.746  -4.192  0.00  0.00    +0.304 C 
ATOM      3  O   UNL     1       5.661   2.758  -3.541  0.00  0.00    -0.252 OA
ATOM      4  N   UNL     1       6.340   1.431  -5.188  0.00  0.00    -0.269 N 
ATOM      5  H   UNL     1       4.305   0.132  -4.438  0.00  0.00    +0.151 HD
ATOM      6  H   UNL     1       6.240   0.592  -5.664  0.00  0.00    +0.156 HD
ENDROOT
BRANCH   4   7
ATOM      7  C   UNL     1       7.368   2.314  -5.534  0.00  0.00    +0.036 A 
ATOM      8  C   UNL     1       7.992   3.074  -4.553  0.00  0.00    +0.023 A 
ATOM      9  C   UNL     1       9.008   3.945  -4.898  0.00  0.00    +0.002 A 
ATOM     10  C   UNL     1       9.402   4.060  -6.219  0.00  0.00    +0.000 A 
ATOM     11  C   UNL     1       8.783   3.305  -7.197  0.00  0.00    +0.003 A 
ATOM     12  C   UNL     1       7.771   2.428  -6.858  0.00  0.00    -0.043 A 
BRANCH  12  13
ATOM     13  C   UNL     1       7.101   1.601  -7.924  0.00  0.00    -0.041 C 
BRANCH  13  14
ATOM     14  N   UNL     1       5.824   2.225  -8.297  0.00  0.00    +0.382 N 
ATOM     15  C   UNL     1       6.081   3.530  -8.922  0.00  0.00    -0.095 C 
ATOM     16  H   UNL     1       5.258   2.353  -7.472  0.00  0.00    -0.081 HD
BRANCH  14  17
ATOM     17  C   UNL     1       5.115   1.358  -9.248  0.00  0.00    -0.069 C 
ATOM     18  C   UNL     1       3.785   2.008  -9.637  0.00  0.00    -0.015 C 
ATOM     19  C   UNL     1       3.047   1.105 -10.627  0.00  0.00    -0.002 C 
ATOM     20  C   UNL     1       2.779  -0.253  -9.977  0.00  0.00    -0.000 C 
ATOM     21  C   UNL     1       4.109  -0.903  -9.588  0.00  0.00    -0.002 C 
ATOM     22  C   UNL     1       4.848  -0.001  -8.598  0.00  0.00    -0.015 C 
ENDBRANCH  14  17
ENDBRANCH  13  14
ENDBRANCH  12  13
ENDBRANCH   4   7
BRANCH   1  23
ATOM     23  C   UNL     1       3.517   1.281  -2.836  0.00  0.00    +0.157 C 
ATOM     24  C   UNL     1       4.074   0.767  -1.507  0.00  0.00    +0.038 C 
BRANCH  23  26
ATOM     25  N   UNL     1       1.163   0.822  -2.232  0.00  0.00    -0.311 N 
ATOM     26  C   UNL     1       2.178   0.643  -3.100  0.00  0.00    +0.233 C 
ATOM     27  O   UNL     1       2.013  -0.032  -4.095  0.00  0.00    -0.274 OA
ATOM     28  H   UNL     1       1.295   1.361  -1.436  0.00  0.00    +0.149 HD
BRANCH  25  29
ATOM     29  C   UNL     1      -0.139   0.201  -2.488  0.00  0.00    +0.070 C 
ATOM     30  C   UNL     1      -0.133  -1.235  -1.959  0.00  0.00    +0.028 C 
BRANCH  29  32
ATOM     31  C   UNL     1      -1.323   2.399  -2.395  0.00  0.00    +0.005 C 
ATOM     32  C   UNL     1      -1.234   1.001  -1.780  0.00  0.00    +0.018 C 
ENDBRANCH  29  32
ENDBRANCH  25  29
ENDBRANCH  23  26
ENDBRANCH   1  23
TORSDOF 8
