REMARK  Name = ZINC63625887
REMARK  9 active torsions:
REMARK  status: ('A' for Active; 'I' for Inactive)
REMARK    1  A    between atoms: C_1  and  O_2
REMARK    2  A    between atoms: O_2  and  C_3
REMARK    3  A    between atoms: C_8  and  C_13
REMARK    4  A    between atoms: N_15  and  N_16
REMARK    5  A    between atoms: C_17  and  C_19
REMARK    6  A    between atoms: C_19  and  O_20
REMARK    7  A    between atoms: O_20  and  C_21
REMARK    8  A    between atoms: C_21  and  C_22
REMARK    9  A    between atoms: N_24  and  C_25
REMARK                            x       y       z     vdW  Elec       q    Type
REMARK                         _______ _______ _______ _____ _____    ______ ____
ROOT
ATOM      1  N   UNL     1      -5.383  -6.751  -2.387  0.00  0.00    -0.232 N 
ATOM      2  C   UNL     1      -5.423  -8.098  -2.427  0.00  0.00    +0.255 C 
ATOM      3  O   UNL     1      -5.048  -8.743  -1.471  0.00  0.00    -0.272 OA
ATOM      4  H   UNL     1      -5.683  -6.235  -3.152  0.00  0.00    +0.173 HD
ENDROOT
BRANCH   1   7
ATOM      5  C   UNL     1      -4.871  -4.751  -1.203  0.00  0.00    +0.255 C 
ATOM      6  O   UNL     1      -5.245  -4.105  -2.159  0.00  0.00    -0.272 OA
ATOM      7  N   UNL     1      -4.910  -6.097  -1.242  0.00  0.00    -0.232 N 
ATOM      8  H   UNL     1      -4.611  -6.614  -0.477  0.00  0.00    +0.173 HD
BRANCH   5  14
ATOM      9  C   UNL     1      -1.200  -0.637   0.010  0.00  0.00    +0.121 A 
ATOM     10  C   UNL     1      -2.375   0.135   0.020  0.00  0.00    +0.047 A 
ATOM     11  C   UNL     1      -3.607  -0.415   0.028  0.00  0.00    +0.029 A 
ATOM     12  C   UNL     1      -3.753  -1.875   0.027  0.00  0.00    +0.043 A 
ATOM     13  N   UNL     1      -4.809  -2.650   0.034  0.00  0.00    -0.370 N 
ATOM     14  C   UNL     1      -4.362  -4.047   0.029  0.00  0.00    +0.191 C 
ATOM     15  C   UNL     1      -2.851  -4.000   0.018  0.00  0.00    +0.016 C 
ATOM     16  C   UNL     1      -2.516  -2.690   0.016  0.00  0.00    -0.000 A 
ATOM     17  C   UNL     1      -1.226  -1.992   0.003  0.00  0.00    +0.055 A 
ATOM     18  H   UNL     1      -5.731  -2.350   0.042  0.00  0.00    +0.161 HD
BRANCH   9  20
ATOM     19  C   UNL     1      -0.017   1.425   0.010  0.00  0.00    +0.277 C 
ATOM     20  O   UNL     1       0.002  -0.004   0.002  0.00  0.00    -0.495 OA
ENDBRANCH   9  20
ENDBRANCH   5  14
ENDBRANCH   1   7
BRANCH   2  21
ATOM     21  C   UNL     1      -5.931  -8.801  -3.659  0.00  0.00    +0.257 C 
BRANCH  21  22
ATOM     22  O   UNL     1      -5.875 -10.215  -3.458  0.00  0.00    -0.361 OA
BRANCH  22  23
ATOM     23  C   UNL     1      -6.338 -10.979  -4.572  0.00  0.00    +0.256 C 
BRANCH  23  24
ATOM     24  C   UNL     1      -6.234 -12.448  -4.252  0.00  0.00    +0.239 C 
ATOM     25  O   UNL     1      -5.806 -12.805  -3.175  0.00  0.00    -0.273 OA
ATOM     26  N   UNL     1      -6.617 -13.365  -5.163  0.00  0.00    -0.308 N 
ATOM     27  H   UNL     1      -6.959 -13.080  -6.024  0.00  0.00    +0.149 HD
BRANCH  26  28
ATOM     28  C   UNL     1      -6.516 -14.793  -4.851  0.00  0.00    +0.035 C 
ATOM     29  C   UNL     1      -7.374 -15.109  -3.624  0.00  0.00    +0.029 C 
ATOM     30  C   UNL     1      -7.269 -16.601  -3.299  0.00  0.00    -0.008 C 
ATOM     31  C   UNL     1      -7.764 -17.419  -4.493  0.00  0.00    +0.007 C 
ATOM     32  C   UNL     1      -6.906 -17.103  -5.720  0.00  0.00    -0.008 C 
ATOM     33  C   UNL     1      -7.011 -15.612  -6.045  0.00  0.00    +0.029 C 
ATOM     34  C   UNL     1      -5.447 -17.459  -5.427  0.00  0.00    +0.007 C 
ATOM     35  C   UNL     1      -4.952 -16.641  -4.233  0.00  0.00    -0.008 C 
ATOM     36  C   UNL     1      -5.810 -16.957  -3.007  0.00  0.00    +0.007 C 
ATOM     37  C   UNL     1      -5.057 -15.149  -4.559  0.00  0.00    +0.029 C 
ENDBRANCH  26  28
ENDBRANCH  23  24
ENDBRANCH  22  23
ENDBRANCH  21  22
ENDBRANCH   2  21
TORSDOF 8
