REMARK  Name = ZINC06322076
REMARK  10 active torsions:
REMARK  status: ('A' for Active; 'I' for Inactive)
REMARK    1  A    between atoms: C_1  and  C_2
REMARK    2  A    between atoms: C_5  and  C_40
REMARK    3  A    between atoms: C_9  and  C_14
REMARK    4  A    between atoms: C_14  and  C_16
REMARK    5  A    between atoms: C_14  and  N_74
REMARK    6  A    between atoms: N_20  and  C_21
REMARK    7  A    between atoms: C_27  and  C_28
REMARK    8  A    between atoms: C_27  and  N_74
REMARK    9  A    between atoms: C_33  and  C_34
REMARK   10  A    between atoms: C_33  and  N_74
REMARK                            x       y       z     vdW  Elec       q    Type
REMARK                         _______ _______ _______ _____ _____    ______ ____
ROOT
ATOM      1  C   UNL     1       1.146   5.426  -0.866  0.00  0.00    +0.039 C 
ENDROOT
BRANCH   1  10
ATOM      2  C   UNL     1       0.806   9.703  -3.817  0.00  0.00    +0.044 C 
ATOM      3  C   UNL     1      -0.600   9.234  -3.544  0.00  0.00    -0.041 A 
ATOM      4  C   UNL     1      -1.664   9.923  -4.054  0.00  0.00    +0.004 A 
ATOM      5  C   UNL     1      -2.963   9.500  -3.808  0.00  0.00    +0.005 A 
ATOM      6  C   UNL     1      -3.205   8.378  -3.044  0.00  0.00    -0.026 A 
ATOM      7  C   UNL     1      -2.138   7.661  -2.514  0.00  0.00    +0.052 A 
ATOM      8  C   UNL     1      -0.822   8.093  -2.766  0.00  0.00    +0.002 A 
ATOM      9  C   UNL     1       0.295   7.331  -2.204  0.00  0.00    +0.018 A 
ATOM     10  C   UNL     1       0.020   6.232  -1.459  0.00  0.00    +0.011 A 
ATOM     11  C   UNL     1      -1.318   5.841  -1.236  0.00  0.00    +0.251 A 
ATOM     12  O   UNL     1      -1.543   4.850  -0.564  0.00  0.00    -0.268 OA
ATOM     13  N   UNL     1      -2.350   6.534  -1.748  0.00  0.00    -0.322 N 
ATOM     14  H   UNL     1      -3.257   6.238  -1.576  0.00  0.00    +0.169 HD
ATOM     15  C   UNL     1      -4.620   7.930  -2.785  0.00  0.00    +0.046 C 
ENDBRANCH   1  10
BRANCH   1  16
ATOM     16  C   UNL     1       0.869   5.174   0.594  0.00  0.00    +0.143 A 
ATOM     17  N   UNL     1      -0.125   4.482   1.094  0.00  0.00    -0.115 NA
ATOM     18  N   UNL     1      -0.015   4.496   2.377  0.00  0.00    -0.023 NA
ATOM     19  N   UNL     1       1.020   5.186   2.710  0.00  0.00    -0.044 NA
ATOM     20  N   UNL     1       1.592   5.621   1.638  0.00  0.00    -0.227 N 
BRANCH  20  21
ATOM     21  C   UNL     1       2.801   6.445   1.570  0.00  0.00    +0.111 C 
ATOM     22  C   UNL     1       3.966   5.698   2.222  0.00  0.00    +0.027 C 
ATOM     23  C   UNL     1       5.228   6.559   2.151  0.00  0.00    +0.002 C 
ATOM     24  C   UNL     1       4.989   7.876   2.892  0.00  0.00    +0.000 C 
ATOM     25  C   UNL     1       3.825   8.624   2.239  0.00  0.00    +0.002 C 
ATOM     26  C   UNL     1       2.562   7.763   2.310  0.00  0.00    +0.027 C 
ENDBRANCH  20  21
ENDBRANCH   1  16
BRANCH   1  27
ATOM     27  N   UNL     1       1.231   4.127  -1.567  0.00  0.00    +0.396 N 
ATOM     28  H   UNL     1       0.381   3.586  -1.370  0.00  0.00    -0.080 HD
BRANCH  27  29
ATOM     29  C   UNL     1       2.405   3.369  -1.086  0.00  0.00    -0.002 C 
BRANCH  29  30
ATOM     30  C   UNL     1       2.043   2.692   0.211  0.00  0.00    +0.089 A 
ATOM     31  C   UNL     1       1.561   1.443   0.338  0.00  0.00    +0.042 A 
ATOM     32  C   UNL     1       1.364   1.220   1.720  0.00  0.00    +0.041 A 
ATOM     33  C   UNL     1       1.738   2.345   2.355  0.00  0.00    +0.195 A 
ATOM     34  O   UNL     1       2.154   3.232   1.436  0.00  0.00    -0.470 OA
ENDBRANCH  29  30
ENDBRANCH  27  29
BRANCH  27  35
ATOM     35  C   UNL     1       1.333   4.346  -3.025  0.00  0.00    -0.045 C 
BRANCH  35  36
ATOM     36  C   UNL     1       1.349   2.989  -3.730  0.00  0.00    +0.102 C 
ATOM     37  C   UNL     1       1.153   3.171  -5.252  0.00  0.00    +0.032 C 
ATOM     38  C   UNL     1       0.279   1.965  -5.664  0.00  0.00    +0.030 C 
ATOM     39  C   UNL     1       0.050   1.198  -4.343  0.00  0.00    +0.160 C 
ATOM     40  O   UNL     1       0.225   2.188  -3.306  0.00  0.00    -0.378 OA
ENDBRANCH  35  36
ENDBRANCH  27  35
ENDBRANCH   1  27
TORSDOF 8
