REMARK  Name = ZINC37338221
REMARK  4 active torsions:
REMARK  status: ('A' for Active; 'I' for Inactive)
REMARK    1  A    between atoms: C_3  and  C_11
REMARK    2  A    between atoms: C_6  and  C_7
REMARK    3  A    between atoms: N_8  and  O_9
REMARK    4  A    between atoms: N_13  and  C_14
REMARK                            x       y       z     vdW  Elec       q    Type
REMARK                         _______ _______ _______ _____ _____    ______ ____
ROOT
ATOM      1  C   UNL     1      -0.017   1.391   0.021  0.00  0.00    +0.012 A 
ATOM      2  C   UNL     1       1.166   2.096   0.006  0.00  0.00    +0.014 A 
ATOM      3  C   UNL     1       2.385   1.414  -0.007  0.00  0.00    +0.037 A 
ATOM      4  C   UNL     1       2.404   0.018  -0.005  0.00  0.00    +0.014 A 
ATOM      5  C   UNL     1       1.220  -0.686   0.010  0.00  0.00    +0.012 A 
ATOM      6  C   UNL     1       0.003  -0.005   0.024  0.00  0.00    +0.018 A 
ENDROOT
BRANCH   6   7
ATOM      7  C   UNL     1      -1.269  -0.762   0.040  0.00  0.00    +0.162 C 
ATOM      8  N   UNL     1      -2.404  -0.127   0.053  0.00  0.00    -0.072 NA
ATOM      9  N   UNL     1      -1.250  -2.147   0.042  0.00  0.00    -0.340 N 
ATOM     10  H   UNL     1      -0.404  -2.621   0.033  0.00  0.00    +0.144 HD
ATOM     11  H   UNL     1      -2.084  -2.643   0.053  0.00  0.00    +0.144 HD
BRANCH   8  12
ATOM     12  O   UNL     1      -3.621  -0.852   0.069  0.00  0.00    -0.408 OA
ATOM     13  H   UNL     1      -4.410  -0.294   0.078  0.00  0.00    +0.328 HD
ENDBRANCH   8  12
ENDBRANCH   6   7
BRANCH   3  14
ATOM     14  C   UNL     1       3.655   2.171  -0.024  0.00  0.00    +0.248 C 
ATOM     15  O   UNL     1       3.638   3.386  -0.026  0.00  0.00    -0.270 OA
ATOM     16  N   UNL     1       4.831   1.512  -0.036  0.00  0.00    -0.282 N 
ATOM     17  H   UNL     1       4.846   0.545   0.033  0.00  0.00    +0.155 HD
BRANCH  16  18
ATOM     18  C   UNL     1       6.029   2.224  -0.150  0.00  0.00    +0.034 A 
ATOM     19  C   UNL     1       7.093   1.688  -0.865  0.00  0.00    +0.024 A 
ATOM     20  C   UNL     1       8.275   2.393  -0.975  0.00  0.00    +0.016 A 
ATOM     21  C   UNL     1       8.400   3.633  -0.375  0.00  0.00    +0.013 A 
ATOM     22  C   UNL     1       7.343   4.170   0.338  0.00  0.00    +0.016 A 
ATOM     23  C   UNL     1       6.157   3.472   0.446  0.00  0.00    +0.024 A 
ATOM     24  I   UNL     1      10.196   4.699  -0.545  0.00  0.00    -0.044 I 
ENDBRANCH  16  18
ENDBRANCH   3  14
TORSDOF 4
