REMARK  Name = ZINC20421519
REMARK  8 active torsions:
REMARK  status: ('A' for Active; 'I' for Inactive)
REMARK    1  A    between atoms: C_4  and  C_7
REMARK    2  A    between atoms: C_7  and  C_8
REMARK    3  A    between atoms: C_7  and  N_14
REMARK    4  A    between atoms: N_17  and  C_20
REMARK    5  A    between atoms: C_20  and  C_21
REMARK    6  A    between atoms: C_21  and  O_23
REMARK    7  A    between atoms: C_21  and  O_24
REMARK    8  A    between atoms: O_24  and  C_25
REMARK                            x       y       z     vdW  Elec       q    Type
REMARK                         _______ _______ _______ _____ _____    ______ ____
ROOT
ATOM      1  N   UNL     1      -4.554  -2.627   2.175  0.00  0.00    +0.389 N 
ATOM      2  C   UNL     1      -5.808  -1.865   2.257  0.00  0.00    -0.062 C 
ATOM      3  C   UNL     1      -5.761  -0.702   1.264  0.00  0.00    +0.066 C 
ATOM      4  N   UNL     1      -4.607   0.155   1.571  0.00  0.00    -0.300 NA
ATOM      5  C   UNL     1      -3.353  -0.607   1.489  0.00  0.00    +0.066 C 
ATOM      6  C   UNL     1      -3.400  -1.770   2.482  0.00  0.00    -0.062 C 
ATOM      7  H   UNL     1      -4.443  -2.989   1.142  0.00  0.00    -0.080 HD
ENDROOT
BRANCH   1   8
ATOM      8  C   UNL     1      -4.590  -3.798   3.061  0.00  0.00    -0.007 C 
BRANCH   8  12
ATOM      9  C   UNL     1      -7.614  -6.502   1.721  0.00  0.00    +0.000 A 
ATOM     10  C   UNL     1      -7.402  -6.317   3.075  0.00  0.00    +0.000 A 
ATOM     11  C   UNL     1      -6.424  -5.442   3.508  0.00  0.00    +0.002 A 
ATOM     12  C   UNL     1      -5.657  -4.752   2.588  0.00  0.00    -0.057 A 
ATOM     13  C   UNL     1      -5.872  -4.933   1.235  0.00  0.00    +0.002 A 
ATOM     14  C   UNL     1      -6.847  -5.812   0.801  0.00  0.00    +0.000 A 
ENDBRANCH   8  12
BRANCH   8  15
ATOM     15  C   UNL     1      -3.251  -4.489   3.035  0.00  0.00    -0.057 A 
ATOM     16  C   UNL     1      -2.580  -4.652   1.837  0.00  0.00    +0.002 A 
ATOM     17  C   UNL     1      -1.349  -5.281   1.815  0.00  0.00    +0.000 A 
ATOM     18  C   UNL     1      -0.795  -5.757   2.988  0.00  0.00    +0.000 A 
ATOM     19  C   UNL     1      -1.468  -5.599   4.185  0.00  0.00    +0.000 A 
ATOM     20  C   UNL     1      -2.696  -4.965   4.208  0.00  0.00    +0.002 A 
ENDBRANCH   8  15
ENDBRANCH   1   8
BRANCH   4  21
ATOM     21  C   UNL     1      -4.571   1.326   0.686  0.00  0.00    +0.159 C 
BRANCH  21  22
ATOM     22  C   UNL     1      -3.635   2.383   1.276  0.00  0.00    +0.319 C 
BRANCH  22  23
ATOM     23  O   UNL     1      -4.050   2.697   2.607  0.00  0.00    -0.357 OA
ATOM     24  H   UNL     1      -3.494   3.442   3.195  0.00  0.00    +0.214 HD
ENDBRANCH  22  23
BRANCH  22  25
ATOM     25  O   UNL     1      -2.299   1.876   1.300  0.00  0.00    -0.462 OA
BRANCH  25  26
ATOM     26  C   UNL     1      -1.322   2.731   1.701  0.00  0.00    +0.125 A 
ATOM     27  C   UNL     1      -1.643   4.030   2.068  0.00  0.00    +0.047 A 
ATOM     28  C   UNL     1      -0.648   4.900   2.469  0.00  0.00    +0.025 A 
ATOM     29  C   UNL     1       0.668   4.476   2.510  0.00  0.00    +0.059 A 
ATOM     30  C   UNL     1       0.991   3.178   2.150  0.00  0.00    +0.063 A 
ATOM     31  C   UNL     1      -0.003   2.304   1.748  0.00  0.00    +0.067 A 
ATOM     32 CL   UNL     1       2.643   2.647   2.204  0.00  0.00    -0.082 Cl
ATOM     33 CL   UNL     1       1.917   5.571   3.015  0.00  0.00    -0.082 Cl
ENDBRANCH  25  26
ENDBRANCH  22  25
ENDBRANCH  21  22
ENDBRANCH   4  21
TORSDOF 8
