REMARK  Name = ZINC39868922
REMARK  12 active torsions:
REMARK  status: ('A' for Active; 'I' for Inactive)
REMARK    1  A    between atoms: C_1  and  C_2
REMARK    2  A    between atoms: C_2  and  C_3
REMARK    3  A    between atoms: C_3  and  C_4
REMARK    4  A    between atoms: C_4  and  O_5
REMARK    5  A    between atoms: O_5  and  C_6
REMARK    6  A    between atoms: C_9  and  C_13
REMARK    7  A    between atoms: N_15  and  C_16
REMARK    8  A    between atoms: C_17  and  C_25
REMARK    9  A    between atoms: N_27  and  C_28
REMARK   10  A    between atoms: C_28  and  C_29
REMARK   11  A    between atoms: C_29  and  O_30
REMARK   12  A    between atoms: O_30  and  C_31
REMARK                            x       y       z     vdW  Elec       q    Type
REMARK                         _______ _______ _______ _____ _____    ______ ____
ROOT
ATOM      1  C   UNL     1       1.903  -8.069   2.993  0.00  0.00    +0.249 C 
ATOM      2  O   UNL     1       1.042  -8.687   3.590  0.00  0.00    -0.270 OA
ATOM      3  N   UNL     1       2.965  -8.719   2.477  0.00  0.00    -0.275 N 
ATOM      4  H   UNL     1       3.651  -8.226   2.001  0.00  0.00    +0.156 HD
ENDROOT
BRANCH   3   5
ATOM      5  C   UNL     1       3.076 -10.092   2.626  0.00  0.00    +0.085 A 
ATOM      6  C   UNL     1       4.091 -10.919   2.172  0.00  0.00    +0.069 A 
ATOM      7  C   UNL     1       3.971 -12.338   2.460  0.00  0.00    -0.023 A 
ATOM      8  C   UNL     1       2.858 -12.669   3.150  0.00  0.00    -0.004 A 
ATOM      9  S   UNL     1       2.015 -11.135   3.406  0.00  0.00    -0.077 S 
ATOM     10  C   UNL     1       2.450 -14.039   3.595  0.00  0.00    +0.043 C 
ATOM     11  C   UNL     1       3.293 -15.067   2.826  0.00  0.00    +0.005 C 
ATOM     12  C   UNL     1       4.765 -14.648   2.889  0.00  0.00    +0.005 C 
ATOM     13  C   UNL     1       4.985 -13.392   2.043  0.00  0.00    +0.037 C 
BRANCH   6  14
ATOM     14  C   UNL     1       5.237 -10.385   1.430  0.00  0.00    +0.247 C 
ATOM     15  O   UNL     1       6.234 -10.023   2.028  0.00  0.00    -0.270 OA
ATOM     16  N   UNL     1       5.188 -10.295   0.086  0.00  0.00    -0.309 N 
ATOM     17  H   UNL     1       4.394 -10.584  -0.390  0.00  0.00    +0.149 HD
BRANCH  16  18
ATOM     18  C   UNL     1       6.333  -9.761  -0.655  0.00  0.00    +0.132 C 
BRANCH  18  19
ATOM     19  C   UNL     1       6.019  -9.767  -2.152  0.00  0.00    +0.178 C 
BRANCH  19  20
ATOM     20  O   UNL     1       4.944  -8.865  -2.417  0.00  0.00    -0.381 OA
ATOM     21  C   UNL     1       4.570  -8.795  -3.795  0.00  0.00    +0.194 C 
ENDBRANCH  19  20
ENDBRANCH  18  19
ENDBRANCH  16  18
ENDBRANCH   6  14
ENDBRANCH   3   5
BRANCH   1  25
ATOM     22  C   UNL     1       1.563  -3.860   2.537  0.00  0.00    +0.157 A 
ATOM     23  C   UNL     1       0.577  -4.565   3.219  0.00  0.00    +0.085 A 
ATOM     24  C   UNL     1       0.684  -5.931   3.369  0.00  0.00    +0.036 A 
ATOM     25  C   UNL     1       1.784  -6.607   2.834  0.00  0.00    +0.040 A 
ATOM     26  C   UNL     1       2.773  -5.894   2.150  0.00  0.00    +0.036 A 
ATOM     27  C   UNL     1       2.656  -4.529   1.999  0.00  0.00    +0.085 A 
ATOM     28 CL   UNL     1       3.879  -3.644   1.141  0.00  0.00    -0.080 Cl
ATOM     29 CL   UNL     1      -0.789  -3.724   3.882  0.00  0.00    -0.080 Cl
BRANCH  22  30
ATOM     30  O   UNL     1       1.454  -2.514   2.391  0.00  0.00    -0.489 OA
BRANCH  30  31
ATOM     31  C   UNL     1       0.763  -2.041   1.233  0.00  0.00    +0.229 C 
BRANCH  31  32
ATOM     32  C   UNL     1       0.742  -0.511   1.242  0.00  0.00    +0.041 C 
BRANCH  32  34
ATOM     33  C   UNL     1      -0.019   1.526   0.010  0.00  0.00    +0.004 C 
ATOM     34  C   UNL     1       0.002  -0.004   0.002  0.00  0.00    -0.000 C 
ENDBRANCH  32  34
ENDBRANCH  31  32
ENDBRANCH  30  31
ENDBRANCH  22  30
ENDBRANCH   1  25
TORSDOF 10
