REMARK  Name = ZINC01811564
REMARK  14 active torsions:
REMARK  status: ('A' for Active; 'I' for Inactive)
REMARK    1  A    between atoms: C_1  and  C_2
REMARK    2  A    between atoms: C_2  and  C_3
REMARK    3  A    between atoms: C_8  and  C_25
REMARK    4  A    between atoms: C_9  and  C_20
REMARK    5  A    between atoms: C_12  and  C_15
REMARK    6  A    between atoms: C_13  and  O_14
REMARK    7  A    between atoms: C_15  and  N_62
REMARK    8  A    between atoms: C_16  and  C_17
REMARK    9  A    between atoms: C_16  and  N_62
REMARK   10  A    between atoms: C_18  and  C_19
REMARK   11  A    between atoms: C_18  and  N_62
REMARK   12  A    between atoms: C_20  and  O_22
REMARK   13  A    between atoms: O_22  and  C_23
REMARK   14  A    between atoms: C_23  and  C_24
REMARK                            x       y       z     vdW  Elec       q    Type
REMARK                         _______ _______ _______ _____ _____    ______ ____
ROOT
ATOM      1  C   UNL     1       4.199   1.190  -0.090  0.00  0.00    -0.005 A 
ATOM      2  C   UNL     1       3.045   1.860  -0.378  0.00  0.00    +0.022 A 
ATOM      3  C   UNL     1       1.865   1.147  -0.603  0.00  0.00    +0.065 A 
ATOM      4  C   UNL     1       0.605   1.843  -0.915  0.00  0.00    +0.203 A 
ATOM      5  O   UNL     1       0.548   3.057  -0.988  0.00  0.00    -0.286 OA
ATOM      6  C   UNL     1      -0.588   0.996  -1.137  0.00  0.00    +0.104 A 
ATOM      7  C   UNL     1      -0.449  -0.374  -1.039  0.00  0.00    +0.225 A 
ATOM      8  O   UNL     1       0.726  -0.952  -0.751  0.00  0.00    -0.447 OA
ATOM      9  C   UNL     1       1.860  -0.259  -0.534  0.00  0.00    +0.144 A 
ATOM     10  C   UNL     1       3.043  -0.924  -0.240  0.00  0.00    +0.021 A 
ATOM     11  C   UNL     1       4.204  -0.203  -0.020  0.00  0.00    +0.125 A 
ENDROOT
BRANCH   6  12
ATOM     12  C   UNL     1      -1.893   1.600  -1.461  0.00  0.00    +0.117 A 
ATOM     13  N   UNL     1      -3.024   1.005  -1.780  0.00  0.00    -0.239 NA
ATOM     14  C   UNL     1      -4.147   1.684  -2.048  0.00  0.00    +0.079 A 
ATOM     15  C   UNL     1      -5.420   1.167  -2.397  0.00  0.00    +0.029 A 
ATOM     16  C   UNL     1      -6.465   1.999  -2.647  0.00  0.00    +0.002 A 
ATOM     17  C   UNL     1      -6.333   3.379  -2.573  0.00  0.00    +0.001 A 
ATOM     18  C   UNL     1      -5.109   3.926  -2.236  0.00  0.00    +0.017 A 
ATOM     19  C   UNL     1      -4.045   3.095  -1.981  0.00  0.00    +0.040 A 
ATOM     20  S   UNL     1      -2.343   3.329  -1.529  0.00  0.00    -0.067 S 
ENDBRANCH   6  12
BRANCH   1  22
ATOM     21  C   UNL     1       6.274   2.040  -1.148  0.00  0.00    +0.009 C 
ATOM     22  C   UNL     1       5.472   1.958   0.153  0.00  0.00    +0.035 C 
ENDBRANCH   1  22
BRANCH  11  23
ATOM     23  O   UNL     1       5.358  -0.857   0.267  0.00  0.00    -0.506 OA
ATOM     24  H   UNL     1       5.502  -1.004   1.212  0.00  0.00    +0.292 HD
ENDBRANCH  11  23
BRANCH   7  25
ATOM     25  C   UNL     1      -1.633  -1.230  -1.259  0.00  0.00    +0.376 C 
ATOM     26  O   UNL     1      -2.385  -1.476  -0.337  0.00  0.00    -0.241 OA
BRANCH  25  27
ATOM     27  O   UNL     1      -1.879  -1.740  -2.482  0.00  0.00    -0.459 OA
BRANCH  27  28
ATOM     28  C   UNL     1      -3.059  -2.572  -2.625  0.00  0.00    +0.229 C 
ATOM     29  C   UNL     1      -3.171  -3.055  -4.072  0.00  0.00    +0.048 C 
ENDBRANCH  27  28
ENDBRANCH  25  27
ENDBRANCH   7  25
BRANCH  10  30
ATOM     30  C   UNL     1       3.063  -2.429  -0.161  0.00  0.00    -0.036 C 
BRANCH  30  31
ATOM     31  N   UNL     1       3.391  -2.972  -1.496  0.00  0.00    +0.382 N 
ATOM     32  H   UNL     1       4.244  -2.516  -1.841  0.00  0.00    -0.081 HD
BRANCH  31  33
ATOM     33  C   UNL     1       3.629  -4.428  -1.404  0.00  0.00    -0.082 C 
ATOM     34  C   UNL     1       5.023  -4.662  -0.820  0.00  0.00    -0.017 C 
ENDBRANCH  31  33
BRANCH  31  35
ATOM     35  C   UNL     1       2.285  -2.700  -2.438  0.00  0.00    -0.082 C 
ATOM     36  C   UNL     1       2.749  -3.043  -3.855  0.00  0.00    -0.017 C 
ENDBRANCH  31  35
ENDBRANCH  30  31
ENDBRANCH  10  30
TORSDOF 10
