REMARK  Name = ZINC65968416
REMARK  6 active torsions:
REMARK  status: ('A' for Active; 'I' for Inactive)
REMARK    1  A    between atoms: C_1  and  C_2
REMARK    2  A    between atoms: C_2  and  C_3
REMARK    3  A    between atoms: C_2  and  N_16
REMARK    4  A    between atoms: N_5  and  C_6
REMARK    5  A    between atoms: C_9  and  S_12
REMARK    6  A    between atoms: S_12  and  N_15
REMARK                            x       y       z     vdW  Elec       q    Type
REMARK                         _______ _______ _______ _____ _____    ______ ____
ROOT
ATOM      1  C   UNL     1      -1.593  -0.774  -0.032  0.00  0.00    +0.203 C 
ATOM      2  O   UNL     1      -1.930  -1.620  -0.834  0.00  0.00    -0.277 OA
ATOM      3  N   UNL     1      -2.499  -0.252   0.818  0.00  0.00    -0.287 N 
ATOM      4  H   UNL     1      -2.218   0.376   1.501  0.00  0.00    +0.155 HD
ENDROOT
BRANCH   3   5
ATOM      5  C   UNL     1      -3.846  -0.617   0.715  0.00  0.00    +0.033 A 
ATOM      6  C   UNL     1      -4.630  -0.716   1.858  0.00  0.00    +0.025 A 
ATOM      7  C   UNL     1      -5.959  -1.076   1.753  0.00  0.00    +0.030 A 
ATOM      8  C   UNL     1      -6.510  -1.339   0.512  0.00  0.00    +0.105 A 
ATOM      9  C   UNL     1      -5.732  -1.242  -0.627  0.00  0.00    +0.030 A 
ATOM     10  C   UNL     1      -4.404  -0.876  -0.530  0.00  0.00    +0.025 A 
BRANCH   8  11
ATOM     11  S   UNL     1      -8.206  -1.798   0.383  0.00  0.00    +0.056 S 
ATOM     12  O   UNL     1      -8.340  -2.520  -0.834  0.00  0.00    -0.153 OA
ATOM     13  O   UNL     1      -8.575  -2.348   1.640  0.00  0.00    -0.153 OA
BRANCH  11  14
ATOM     14  N   UNL     1      -9.079  -0.402   0.203  0.00  0.00    -0.204 NA
ATOM     15  H   UNL     1      -9.909  -0.411  -0.298  0.00  0.00    +0.144 HD
ATOM     16  H   UNL     1      -8.760   0.424   0.599  0.00  0.00    +0.144 HD
ENDBRANCH  11  14
ENDBRANCH   8  11
ENDBRANCH   3   5
BRANCH   1  18
ATOM     17  C   UNL     1       0.040   0.820  -1.002  0.00  0.00    -0.004 C 
ATOM     18  C   UNL     1      -0.161  -0.307   0.013  0.00  0.00    +0.017 C 
BRANCH  18  19
ATOM     19  N   UNL     1       0.730  -1.428  -0.317  0.00  0.00    +0.389 N 
ATOM     20  C   UNL     1       0.383  -2.534   0.525  0.00  0.00    -0.074 C 
ATOM     21  C   UNL     1       1.454  -3.563   0.715  0.00  0.00    -0.027 C 
ATOM     22  C   UNL     1       2.220  -3.915  -0.542  0.00  0.00    +0.005 C 
ATOM     23  C   UNL     1       3.396  -2.997  -0.824  0.00  0.00    -0.012 C 
ATOM     24  C   UNL     1       4.271  -2.829   0.420  0.00  0.00    +0.007 C 
ATOM     25  C   UNL     1       3.397  -2.264   1.541  0.00  0.00    -0.012 C 
ATOM     26  C   UNL     1       2.348  -3.318   1.909  0.00  0.00    +0.005 C 
ATOM     27  C   UNL     1       2.723  -0.973   1.128  0.00  0.00    -0.012 C 
ATOM     28  C   UNL     1       2.088  -0.958  -0.231  0.00  0.00    -0.067 C 
ATOM     29  C   UNL     1       2.952  -1.618  -1.301  0.00  0.00    -0.012 C 
ATOM     30  H   UNL     1       0.551  -1.695  -1.273  0.00  0.00    -0.080 HD
ENDBRANCH  18  19
ENDBRANCH   1  18
TORSDOF 5
