REMARK  Name = ZINC67455802
REMARK  10 active torsions:
REMARK  status: ('A' for Active; 'I' for Inactive)
REMARK    1  A    between atoms: C_1  and  C_2
REMARK    2  A    between atoms: C_2  and  C_3
REMARK    3  A    between atoms: C_2  and  C_4
REMARK    4  A    between atoms: C_2  and  N_5
REMARK    5  A    between atoms: C_6  and  C_8
REMARK    6  A    between atoms: C_8  and  N_9
REMARK    7  A    between atoms: N_12  and  C_13
REMARK    8  A    between atoms: C_13  and  C_14
REMARK    9  A    between atoms: N_19  and  C_20
REMARK   10  A    between atoms: C_20  and  C_21
REMARK                            x       y       z     vdW  Elec       q    Type
REMARK                         _______ _______ _______ _____ _____    ______ ____
ROOT
ATOM      1  N   UNL     1       3.916   0.281  -2.347  0.00  0.00    -0.291 N 
ATOM      2  C   UNL     1       4.661  -0.135  -3.390  0.00  0.00    +0.300 C 
ATOM      3  O   UNL     1       4.167  -0.840  -4.248  0.00  0.00    -0.253 OA
ATOM      4  N   UNL     1       5.955   0.231  -3.481  0.00  0.00    -0.301 N 
ATOM      5  H   UNL     1       4.310   0.844  -1.662  0.00  0.00    +0.151 HD
ATOM      6  H   UNL     1       6.350   0.793  -2.796  0.00  0.00    +0.150 HD
ENDROOT
BRANCH   1   7
ATOM      7  C   UNL     1       2.509  -0.116  -2.248  0.00  0.00    +0.201 C 
BRANCH   7   9
ATOM      8  N   UNL     1       0.613   0.244  -0.700  0.00  0.00    -0.309 N 
ATOM      9  C   UNL     1       1.907   0.477  -1.000  0.00  0.00    +0.231 C 
ATOM     10  O   UNL     1       2.585   1.164  -0.266  0.00  0.00    -0.274 OA
ATOM     11  H   UNL     1       0.071  -0.305  -1.286  0.00  0.00    +0.149 HD
BRANCH   8  13
ATOM     12  C   UNL     1       0.124   2.346   0.451  0.00  0.00    +0.031 C 
ATOM     13  C   UNL     1       0.028   0.820   0.513  0.00  0.00    +0.026 C 
ATOM     14  C   UNL     1       0.789   0.311   1.739  0.00  0.00    +0.031 C 
ATOM     15  C   UNL     1      -1.441   0.405   0.617  0.00  0.00    +0.031 C 
ENDBRANCH   8  13
ENDBRANCH   7   9
ENDBRANCH   1   7
BRANCH   4  16
ATOM     16  C   UNL     1       6.766  -0.222  -4.614  0.00  0.00    +0.090 C 
BRANCH  16  17
ATOM     17  C   UNL     1       8.187   0.330  -4.478  0.00  0.00    -0.051 C 
ATOM     18  C   UNL     1       9.001   0.002  -5.747  0.00  0.00    -0.016 C 
ATOM     19  C   UNL     1       8.893   1.307  -6.579  0.00  0.00    -0.020 C 
ATOM     20  C   UNL     1       8.914   2.388  -5.469  0.00  0.00    -0.078 C 
ATOM     21  N   UNL     1       8.145   1.798  -4.349  0.00  0.00    +0.383 N 
ATOM     22  H   UNL     1       7.187   2.115  -4.389  0.00  0.00    -0.081 HD
BRANCH  21  23
ATOM     23  C   UNL     1       8.743   2.199  -3.069  0.00  0.00    -0.075 C 
BRANCH  23  24
ATOM     24  C   UNL     1       8.572   3.707  -2.876  0.00  0.00    -0.028 C 
ATOM     25  C   UNL     1       9.316   4.148  -1.613  0.00  0.00    +0.002 C 
ATOM     26  C   UNL     1       9.145   5.656  -1.421  0.00  0.00    +0.000 C 
ATOM     27  C   UNL     1       7.658   5.987  -1.279  0.00  0.00    +0.000 C 
ATOM     28  C   UNL     1       6.914   5.546  -2.541  0.00  0.00    +0.000 C 
ATOM     29  C   UNL     1       7.085   4.038  -2.734  0.00  0.00    +0.002 C 
ENDBRANCH  23  24
ENDBRANCH  21  23
ENDBRANCH  16  17
ENDBRANCH   4  16
TORSDOF 7
