REMARK  Name = ZINC32185170
REMARK  6 active torsions:
REMARK  status: ('A' for Active; 'I' for Inactive)
REMARK    1  A    between atoms: C_6  and  C_7
REMARK    2  A    between atoms: C_7  and  C_9
REMARK    3  A    between atoms: C_7  and  O_18
REMARK    4  A    between atoms: C_9  and  N_10
REMARK    5  A    between atoms: N_10  and  C_11
REMARK    6  A    between atoms: C_11  and  C_12
REMARK                            x       y       z     vdW  Elec       q    Type
REMARK                         _______ _______ _______ _____ _____    ______ ____
ROOT
ATOM      1  C   UNL     1       0.002  -0.004   0.002  0.00  0.00    +0.128 C 
ENDROOT
BRANCH   1   7
ATOM      2  C   UNL     1       1.836   0.166  -1.693  0.00  0.00    +0.007 A 
ATOM      3  C   UNL     1       2.486  -0.283  -2.827  0.00  0.00    +0.015 A 
ATOM      4  C   UNL     1       2.001  -1.381  -3.513  0.00  0.00    +0.018 A 
ATOM      5  C   UNL     1       0.869  -2.034  -3.061  0.00  0.00    +0.015 A 
ATOM      6  C   UNL     1       0.222  -1.588  -1.923  0.00  0.00    +0.007 A 
ATOM      7  C   UNL     1       0.707  -0.490  -1.238  0.00  0.00    -0.021 A 
ATOM      8 BR   UNL     1       2.886  -1.991  -5.069  0.00  0.00    -0.050 Br
ENDBRANCH   1   7
BRANCH   1   9
ATOM      9  O   UNL     1      -0.017   1.425   0.010  0.00  0.00    -0.389 OA
ATOM     10  H   UNL     1      -0.493   1.964   0.842  0.00  0.00    +0.210 HD
ENDBRANCH   1   9
BRANCH   1  11
ATOM     11  C   UNL     1       0.742  -0.511   1.242  0.00  0.00    -0.046 C 
BRANCH  11  12
ATOM     12  N   UNL     1      -0.010  -0.139   2.447  0.00  0.00    +0.383 N 
ATOM     13  H   UNL     1      -0.104   0.956   2.498  0.00  0.00    -0.086 HD
ATOM     14  H   UNL     1      -1.012  -0.591   2.408  0.00  0.00    -0.086 HD
BRANCH  12  15
ATOM     15  C   UNL     1       0.672  -0.610   3.660  0.00  0.00    -0.051 C 
BRANCH  15  16
ATOM     16  C   UNL     1      -0.140  -0.205   4.892  0.00  0.00    +0.101 C 
ATOM     17  C   UNL     1       0.568  -0.695   6.170  0.00  0.00    +0.032 C 
ATOM     18  C   UNL     1       0.818   0.597   6.985  0.00  0.00    +0.030 C 
ATOM     19  C   UNL     1      -0.222   1.572   6.375  0.00  0.00    +0.160 C 
ATOM     20  O   UNL     1      -0.224   1.227   4.972  0.00  0.00    -0.378 OA
ENDBRANCH  15  16
ENDBRANCH  12  15
ENDBRANCH  11  12
ENDBRANCH   1  11
TORSDOF 6
