REMARK  Name = ZINC35210326
REMARK  16 active torsions:
REMARK  status: ('A' for Active; 'I' for Inactive)
REMARK    1  A    between atoms: C_1  and  C_2
REMARK    2  A    between atoms: C_2  and  N_3
REMARK    3  A    between atoms: N_3  and  C_4
REMARK    4  A    between atoms: N_3  and  C_6
REMARK    5  A    between atoms: C_4  and  C_5
REMARK    6  A    between atoms: C_6  and  C_7
REMARK    7  A    between atoms: C_7  and  N_8
REMARK    8  A    between atoms: C_9  and  C_11
REMARK    9  A    between atoms: C_13  and  N_20
REMARK   10  A    between atoms: C_16  and  N_17
REMARK   11  A    between atoms: N_17  and  C_18
REMARK   12  A    between atoms: N_17  and  C_19
REMARK   13  A    between atoms: N_23  and  C_24
REMARK   14  A    between atoms: C_29  and  O_30
REMARK   15  A    between atoms: O_30  and  C_31
REMARK   16  A    between atoms: C_31  and  C_32
REMARK                            x       y       z     vdW  Elec       q    Type
REMARK                         _______ _______ _______ _____ _____    ______ ____
ROOT
ATOM      1  C   UNL     1      -3.139  -5.785  -1.906  0.00  0.00    +0.059 A 
ATOM      2  C   UNL     1      -2.122  -6.742  -1.928  0.00  0.00    +0.038 A 
ATOM      3  C   UNL     1      -2.438  -8.080  -2.082  0.00  0.00    +0.036 A 
ATOM      4  C   UNL     1      -3.766  -8.474  -2.214  0.00  0.00    +0.025 A 
ATOM      5  C   UNL     1      -4.777  -7.537  -2.193  0.00  0.00    +0.025 A 
ATOM      6  C   UNL     1      -4.476  -6.190  -2.034  0.00  0.00    +0.042 A 
ENDROOT
BRANCH   3   7
ATOM      7  N   UNL     1      -1.418  -9.041  -2.105  0.00  0.00    -0.269 N 
ATOM      8  C   UNL     1      -1.540 -10.134  -2.884  0.00  0.00    +0.308 C 
ATOM      9  O   UNL     1      -2.493 -10.245  -3.631  0.00  0.00    -0.252 OA
ATOM     10  N   UNL     1      -0.607 -11.105  -2.833  0.00  0.00    -0.266 N 
ATOM     11  H   UNL     1      -0.624  -8.919  -1.561  0.00  0.00    +0.156 HD
ATOM     12  H   UNL     1       0.115 -11.051  -2.187  0.00  0.00    +0.156 HD
BRANCH  10  13
ATOM     13  C   UNL     1      -0.678 -12.193  -3.714  0.00  0.00    +0.077 A 
ATOM     14  C   UNL     1      -1.183 -12.019  -4.994  0.00  0.00    +0.027 A 
ATOM     15  C   UNL     1      -1.252 -13.092  -5.862  0.00  0.00    +0.002 A 
ATOM     16  C   UNL     1      -0.819 -14.341  -5.457  0.00  0.00    +0.004 A 
ATOM     17  C   UNL     1      -0.315 -14.523  -4.182  0.00  0.00    +0.047 A 
ATOM     18  C   UNL     1      -0.237 -13.450  -3.309  0.00  0.00    +0.142 A 
BRANCH  18  19
ATOM     19  O   UNL     1       0.264 -13.626  -2.057  0.00  0.00    -0.490 OA
BRANCH  19  20
ATOM     20  C   UNL     1       0.697 -14.943  -1.710  0.00  0.00    +0.226 C 
ATOM     21  C   UNL     1       1.225 -14.944  -0.274  0.00  0.00    +0.048 C 
ENDBRANCH  19  20
ENDBRANCH  18  19
ENDBRANCH  10  13
ENDBRANCH   3   7
BRANCH   1  23
ATOM     22  N   UNL     1      -1.524  -3.971  -1.620  0.00  0.00    -0.313 N 
ATOM     23  C   UNL     1      -2.810  -4.357  -1.743  0.00  0.00    +0.246 C 
ATOM     24  O   UNL     1      -3.698  -3.527  -1.718  0.00  0.00    -0.270 OA
ATOM     25  H   UNL     1      -0.816  -4.633  -1.640  0.00  0.00    +0.149 HD
BRANCH  22  26
ATOM     26  C   UNL     1      -1.197  -2.553  -1.458  0.00  0.00    +0.086 C 
BRANCH  26  27
ATOM     27  C   UNL     1       0.320  -2.389  -1.343  0.00  0.00    -0.060 C 
BRANCH  27  28
ATOM     28  N   UNL     1       0.648  -0.967  -1.180  0.00  0.00    +0.380 N 
ATOM     29  H   UNL     1       0.243  -0.439  -1.939  0.00  0.00    -0.082 HD
BRANCH  28  31
ATOM     30  C   UNL     1       0.328   1.028   0.204  0.00  0.00    -0.017 C 
ATOM     31  C   UNL     1       0.107  -0.482   0.097  0.00  0.00    -0.082 C 
ENDBRANCH  28  31
BRANCH  28  32
ATOM     32  C   UNL     1       2.107  -0.797  -1.189  0.00  0.00    -0.082 C 
ATOM     33  C   UNL     1       2.656  -1.170  -2.568  0.00  0.00    -0.017 C 
ENDBRANCH  28  32
ENDBRANCH  27  28
ENDBRANCH  26  27
ENDBRANCH  22  26
ENDBRANCH   1  23
BRANCH   6  34
ATOM     34  N   UNL     1      -5.497  -5.245  -2.007  0.00  0.00    -0.335 N 
ATOM     35  C   UNL     1      -6.117  -4.873  -0.733  0.00  0.00    +0.129 C 
ATOM     36  C   UNL     1      -5.952  -4.623  -3.252  0.00  0.00    +0.129 C 
ENDBRANCH   6  34
TORSDOF 11
