REMARK  Name = ZINC44169632
REMARK  5 active torsions:
REMARK  status: ('A' for Active; 'I' for Inactive)
REMARK    1  A    between atoms: C_5  and  C_7
REMARK    2  A    between atoms: C_12  and  C_15
REMARK    3  A    between atoms: N_17  and  C_18
REMARK    4  A    between atoms: C_18  and  C_19
REMARK    5  A    between atoms: C_19  and  C_20
REMARK                            x       y       z     vdW  Elec       q    Type
REMARK                         _______ _______ _______ _____ _____    ______ ____
ROOT
ATOM      1  C   UNL     1       1.213  -2.163   0.009  0.00  0.00    -0.028 C 
ATOM      2  C   UNL     1       1.469  -2.639  -1.426  0.00  0.00    +0.058 C 
ATOM      3  S   UNL     1       1.571  -4.456  -1.415  0.00  0.00    -0.163 S 
ATOM      4  C   UNL     1       0.077  -4.934  -0.493  0.00  0.00    +0.062 C 
ATOM      5  C   UNL     1       0.029  -4.115   0.802  0.00  0.00    +0.027 C 
ATOM      6  N   UNL     1      -0.069  -2.689   0.484  0.00  0.00    +0.392 N 
ATOM      7  H   UNL     1      -0.346  -2.184   1.313  0.00  0.00    -0.084 HD
ATOM      8  H   UNL     1      -0.766  -2.555  -0.232  0.00  0.00    -0.084 HD
ENDROOT
BRANCH   1  13
ATOM      9  C   UNL     1      -0.065   1.388   0.088  0.00  0.00    +0.000 A 
ATOM     10  C   UNL     1       1.116   2.107   0.094  0.00  0.00    +0.001 A 
ATOM     11  C   UNL     1       2.329   1.445   0.073  0.00  0.00    +0.020 A 
ATOM     12  C   UNL     1       2.361   0.061   0.045  0.00  0.00    +0.043 A 
ATOM     13  C   UNL     1       1.179  -0.657   0.040  0.00  0.00    -0.042 A 
ATOM     14  C   UNL     1      -0.033   0.007   0.061  0.00  0.00    +0.003 A 
ATOM     15 CL   UNL     1       3.884  -0.771   0.018  0.00  0.00    -0.083 Cl
ENDBRANCH   1  13
BRANCH   5  16
ATOM     16  C   UNL     1       1.283  -4.366   1.599  0.00  0.00    +0.200 C 
ATOM     17  O   UNL     1       1.787  -3.465   2.236  0.00  0.00    -0.278 OA
ATOM     18  N   UNL     1       1.844  -5.591   1.605  0.00  0.00    -0.316 N 
ATOM     19  H   UNL     1       1.441  -6.312   1.096  0.00  0.00    +0.149 HD
BRANCH  18  20
ATOM     20  C   UNL     1       3.063  -5.835   2.380  0.00  0.00    +0.109 C 
BRANCH  20  21
ATOM     21  C   UNL     1       3.489  -7.296   2.216  0.00  0.00    +0.061 C 
BRANCH  21  22
ATOM     22  C   UNL     1       4.743  -7.547   3.013  0.00  0.00    -0.009 A 
ATOM     23  C   UNL     1       4.869  -7.958   4.298  0.00  0.00    +0.011 A 
ATOM     24  C   UNL     1       6.135  -8.123   4.827  0.00  0.00    +0.008 A 
ATOM     25  C   UNL     1       7.213  -7.870   4.045  0.00  0.00    +0.045 A 
ATOM     26  S   UNL     1       6.447  -7.387   2.507  0.00  0.00    -0.102 S 
ENDBRANCH  21  22
ENDBRANCH  20  21
ENDBRANCH  18  20
ENDBRANCH   5  16
TORSDOF 5
