REMARK  Name = ZINC53126214
REMARK  10 active torsions:
REMARK  status: ('A' for Active; 'I' for Inactive)
REMARK    1  A    between atoms: C_1  and  C_2
REMARK    2  A    between atoms: C_2  and  C_4
REMARK    3  A    between atoms: C_2  and  N_12
REMARK    4  A    between atoms: N_12  and  C_13
REMARK    5  A    between atoms: N_12  and  C_14
REMARK    6  A    between atoms: C_14  and  C_15
REMARK    7  A    between atoms: N_17  and  C_18
REMARK    8  A    between atoms: C_18  and  C_19
REMARK    9  A    between atoms: C_22  and  S_25
REMARK   10  A    between atoms: S_25  and  N_28
REMARK                            x       y       z     vdW  Elec       q    Type
REMARK                         _______ _______ _______ _____ _____    ______ ____
ROOT
ATOM      1  C   UNL     1       2.782  -0.379   2.461  0.00  0.00    +0.197 C 
ATOM      2  O   UNL     1       2.186  -1.021   3.299  0.00  0.00    -0.278 OA
ATOM      3  N   UNL     1       4.063  -0.019   2.674  0.00  0.00    -0.313 N 
ATOM      4  H   UNL     1       4.540   0.495   2.004  0.00  0.00    +0.149 HD
ENDROOT
BRANCH   1   5
ATOM      5  C   UNL     1       2.091   0.018   1.182  0.00  0.00    +0.019 C 
BRANCH   5   6
ATOM      6  N   UNL     1       0.713  -0.491   1.192  0.00  0.00    +0.388 N 
ATOM      7  C   UNL     1       0.733  -1.960   1.184  0.00  0.00    -0.095 C 
ATOM      8  H   UNL     1       0.240  -0.165   2.022  0.00  0.00    -0.081 HD
BRANCH   6  10
ATOM      9  C   UNL     1      -0.019   1.526   0.010  0.00  0.00    -0.008 C 
ATOM     10  C   UNL     1       0.002  -0.004   0.002  0.00  0.00    -0.038 C 
BRANCH  10  11
ATOM     11  C   UNL     1      -1.412  -0.526   0.013  0.00  0.00    -0.023 A 
ATOM     12  C   UNL     1      -2.014  -0.864   1.210  0.00  0.00    +0.043 A 
ATOM     13  C   UNL     1      -3.313  -1.342   1.219  0.00  0.00    +0.124 A 
ATOM     14  C   UNL     1      -4.009  -1.483   0.030  0.00  0.00    +0.041 A 
ATOM     15  C   UNL     1      -3.406  -1.145  -1.166  0.00  0.00    +0.041 A 
ATOM     16  C   UNL     1      -2.109  -0.661  -1.176  0.00  0.00    +0.125 A 
ATOM     17  F   UNL     1      -1.521  -0.326  -2.345  0.00  0.00    -0.205 F 
ATOM     18  F   UNL     1      -3.902  -1.673   2.389  0.00  0.00    -0.205 F 
ENDBRANCH  10  11
ENDBRANCH   6  10
ENDBRANCH   5   6
ENDBRANCH   1   5
BRANCH   3  19
ATOM     19  C   UNL     1       4.736  -0.404   3.917  0.00  0.00    +0.139 C 
BRANCH  19  20
ATOM     20  C   UNL     1       6.149   0.117   3.906  0.00  0.00    -0.030 A 
ATOM     21  C   UNL     1       7.168  -0.656   3.381  0.00  0.00    +0.007 A 
ATOM     22  C   UNL     1       8.464  -0.178   3.372  0.00  0.00    +0.029 A 
ATOM     23  C   UNL     1       8.743   1.075   3.886  0.00  0.00    +0.105 A 
ATOM     24  C   UNL     1       7.725   1.849   4.410  0.00  0.00    +0.029 A 
ATOM     25  C   UNL     1       6.427   1.372   4.416  0.00  0.00    +0.007 A 
BRANCH  23  26
ATOM     26  S   UNL     1      10.396   1.684   3.875  0.00  0.00    +0.056 S 
ATOM     27  O   UNL     1      10.478   2.655   4.909  0.00  0.00    -0.153 OA
ATOM     28  O   UNL     1      11.248   0.547   3.828  0.00  0.00    -0.153 OA
BRANCH  26  29
ATOM     29  N   UNL     1      10.610   2.494   2.446  0.00  0.00    -0.204 NA
ATOM     30  H   UNL     1       9.880   2.554   1.809  0.00  0.00    +0.144 HD
ATOM     31  H   UNL     1      11.464   2.908   2.247  0.00  0.00    +0.144 HD
ENDBRANCH  26  29
ENDBRANCH  23  26
ENDBRANCH  19  20
ENDBRANCH   3  19
TORSDOF 8
