REMARK  Name = ZINC36638009
REMARK  11 active torsions:
REMARK  status: ('A' for Active; 'I' for Inactive)
REMARK    1  A    between atoms: C_1  and  C_2
REMARK    2  A    between atoms: C_2  and  N_3
REMARK    3  A    between atoms: N_3  and  C_4
REMARK    4  A    between atoms: N_3  and  C_6
REMARK    5  A    between atoms: C_4  and  C_5
REMARK    6  A    between atoms: C_6  and  C_7
REMARK    7  A    between atoms: C_7  and  N_8
REMARK    8  A    between atoms: C_12  and  O_18
REMARK    9  A    between atoms: O_18  and  C_19
REMARK   10  A    between atoms: C_19  and  C_20
REMARK   11  A    between atoms: C_21  and  C_23
REMARK                            x       y       z     vdW  Elec       q    Type
REMARK                         _______ _______ _______ _____ _____    ______ ____
ROOT
ATOM      1  N   UNL     1      -2.495  -4.237   0.158  0.00  0.00    -0.248 N 
ATOM      2  C   UNL     1      -2.208  -5.160   1.149  0.00  0.00    +0.168 A 
ATOM      3  N   UNL     1      -2.659  -6.384   1.289  0.00  0.00    -0.221 NA
ATOM      4  C   UNL     1      -2.290  -7.181   2.317  0.00  0.00    +0.122 A 
ATOM      5  C   UNL     1      -2.699  -8.512   2.584  0.00  0.00    +0.147 A 
ATOM      6  C   UNL     1      -2.224  -9.184   3.685  0.00  0.00    +0.048 A 
ATOM      7  C   UNL     1      -1.334  -8.589   4.567  0.00  0.00    +0.005 A 
ATOM      8  C   UNL     1      -0.914  -7.292   4.335  0.00  0.00    +0.017 A 
ATOM      9  C   UNL     1      -1.383  -6.611   3.238  0.00  0.00    +0.044 A 
ATOM     10  S   UNL     1      -1.125  -4.989   2.560  0.00  0.00    -0.052 S 
ATOM     11  C   UNL     1      -3.348  -4.557  -0.835  0.00  0.00    +0.259 C 
ATOM     12  O   UNL     1      -4.184  -5.423  -0.662  0.00  0.00    -0.269 OA
ENDROOT
BRANCH  11  13
ATOM     13  C   UNL     1      -3.268  -3.860  -2.128  0.00  0.00    +0.122 A 
ATOM     14  C   UNL     1      -3.548  -4.514  -3.326  0.00  0.00    +0.032 A 
ATOM     15  C   UNL     1      -3.419  -3.785  -4.524  0.00  0.00    +0.026 A 
ATOM     16  C   UNL     1      -3.902  -4.335  -5.793  0.00  0.00    -0.007 A 
ATOM     17  C   UNL     1      -4.487  -5.601  -5.868  0.00  0.00    +0.009 A 
ATOM     18  C   UNL     1      -4.924  -6.073  -7.072  0.00  0.00    +0.001 A 
ATOM     19  C   UNL     1      -4.794  -5.309  -8.227  0.00  0.00    +0.001 A 
ATOM     20  C   UNL     1      -4.228  -4.070  -8.188  0.00  0.00    +0.008 A 
ATOM     21  C   UNL     1      -3.769  -3.554  -6.966  0.00  0.00    -0.017 A 
ATOM     22  C   UNL     1      -3.179  -2.277  -6.887  0.00  0.00    +0.012 A 
ATOM     23  C   UNL     1      -2.727  -1.784  -5.707  0.00  0.00    +0.047 A 
ATOM     24  C   UNL     1      -2.827  -2.514  -4.519  0.00  0.00    +0.140 A 
ATOM     25  O   UNL     1      -2.331  -2.006  -3.366  0.00  0.00    -0.422 OA
ATOM     26  C   UNL     1      -2.894  -2.438  -2.212  0.00  0.00    +0.350 A 
ATOM     27  O   UNL     1      -3.082  -1.681  -1.277  0.00  0.00    -0.244 OA
ENDBRANCH  11  13
BRANCH   1  28
ATOM     28  C   UNL     1      -1.871  -2.912   0.188  0.00  0.00    +0.097 C 
BRANCH  28  29
ATOM     29  C   UNL     1      -2.660  -1.997   1.127  0.00  0.00    -0.059 C 
BRANCH  29  30
ATOM     30  N   UNL     1      -2.096  -2.082   2.481  0.00  0.00    +0.380 N 
ATOM     31  H   UNL     1      -2.025  -3.051   2.755  0.00  0.00    -0.082 HD
BRANCH  30  33
ATOM     32  C   UNL     1      -0.123  -1.668   3.871  0.00  0.00    -0.017 C 
ATOM     33  C   UNL     1      -0.761  -1.470   2.495  0.00  0.00    -0.082 C 
ENDBRANCH  30  33
BRANCH  30  34
ATOM     34  C   UNL     1      -2.972  -1.370   3.421  0.00  0.00    -0.082 C 
ATOM     35  C   UNL     1      -4.305  -2.111   3.538  0.00  0.00    -0.017 C 
ENDBRANCH  30  34
ENDBRANCH  29  30
ENDBRANCH  28  29
ENDBRANCH   1  28
BRANCH   5  36
ATOM     36  O   UNL     1      -3.570  -9.130   1.742  0.00  0.00    -0.490 OA
BRANCH  36  37
ATOM     37  C   UNL     1      -3.944 -10.470   2.066  0.00  0.00    +0.226 C 
ATOM     38  C   UNL     1      -4.923 -10.995   1.013  0.00  0.00    +0.048 C 
ENDBRANCH  36  37
ENDBRANCH   5  36
TORSDOF 8
