REMARK  Name = ZINC11841379
REMARK  10 active torsions:
REMARK  status: ('A' for Active; 'I' for Inactive)
REMARK    1  A    between atoms: C_1  and  O_2
REMARK    2  A    between atoms: O_2  and  C_3
REMARK    3  A    between atoms: C_7  and  C_11
REMARK    4  A    between atoms: C_8  and  O_9
REMARK    5  A    between atoms: O_9  and  C_10
REMARK    6  A    between atoms: C_11  and  N_72
REMARK    7  A    between atoms: C_18  and  C_20
REMARK    8  A    between atoms: N_22  and  C_23
REMARK    9  A    between atoms: C_23  and  C_24
REMARK   10  A    between atoms: C_24  and  C_29
REMARK                            x       y       z     vdW  Elec       q    Type
REMARK                         _______ _______ _______ _____ _____    ______ ____
ROOT
ATOM      1  C   UNL     1      -1.849  -3.027  -5.024  0.00  0.00    -0.078 C 
ATOM      2  C   UNL     1      -1.598  -3.929  -3.811  0.00  0.00    -0.011 C 
ATOM      3  C   UNL     1      -0.213  -3.607  -3.239  0.00  0.00    -0.021 C 
ATOM      4  C   UNL     1       0.924  -3.621  -4.266  0.00  0.00    -0.011 C 
ATOM      5  C   UNL     1       0.524  -2.737  -5.452  0.00  0.00    -0.078 C 
ATOM      6  C   UNL     1       0.100  -4.078  -1.821  0.00  0.00    +0.020 C 
ATOM      7  C   UNL     1      -0.132  -2.592  -2.100  0.00  0.00    +0.082 C 
ATOM      8  N   UNL     1      -0.758  -3.230  -6.003  0.00  0.00    +0.382 N 
ATOM      9  H   UNL     1      -0.671  -4.234  -6.200  0.00  0.00    -0.081 HD
ENDROOT
BRANCH   7  10
ATOM     10  C   UNL     1       1.069  -1.681  -2.064  0.00  0.00    +0.217 C 
ATOM     11  O   UNL     1       2.170  -2.138  -1.839  0.00  0.00    -0.275 OA
ATOM     12  N   UNL     1       0.919  -0.360  -2.283  0.00  0.00    -0.314 N 
ATOM     13  H   UNL     1       0.038   0.005  -2.463  0.00  0.00    +0.149 HD
BRANCH  12  14
ATOM     14  C   UNL     1       2.086   0.525  -2.248  0.00  0.00    +0.115 C 
BRANCH  14  15
ATOM     15  C   UNL     1       1.627   1.979  -2.378  0.00  0.00    +0.011 C 
ATOM     16  C   UNL     1       0.610   2.315  -1.268  0.00  0.00    +0.013 C 
ATOM     17  C   UNL     1       1.464   2.969  -0.154  0.00  0.00    +0.001 C 
ATOM     18  C   UNL     1       2.489   3.808  -0.957  0.00  0.00    +0.001 C 
ATOM     19  C   UNL     1       2.822   2.929  -2.180  0.00  0.00    +0.013 C 
BRANCH  15  20
ATOM     20  C   UNL     1       1.007   2.205  -3.732  0.00  0.00    -0.040 A 
ATOM     21  C   UNL     1       0.428   3.424  -4.033  0.00  0.00    +0.004 A 
ATOM     22  C   UNL     1      -0.146   3.630  -5.274  0.00  0.00    +0.000 A 
ATOM     23  C   UNL     1      -0.132   2.619  -6.217  0.00  0.00    +0.000 A 
ATOM     24  C   UNL     1       0.447   1.401  -5.917  0.00  0.00    +0.000 A 
ATOM     25  C   UNL     1       1.016   1.194  -4.675  0.00  0.00    +0.004 A 
ENDBRANCH  15  20
ENDBRANCH  14  15
ENDBRANCH  12  14
ENDBRANCH   7  10
BRANCH   8  26
ATOM     26  C   UNL     1      -1.071  -2.520  -7.260  0.00  0.00    -0.039 C 
BRANCH  26  31
ATOM     27  C   UNL     1       0.751  -4.493  -9.927  0.00  0.00    +0.162 A 
ATOM     28  C   UNL     1       1.803  -3.641 -10.223  0.00  0.00    +0.049 A 
ATOM     29  C   UNL     1       1.921  -2.433  -9.562  0.00  0.00    +0.004 A 
ATOM     30  C   UNL     1       0.988  -2.069  -8.608  0.00  0.00    +0.005 A 
ATOM     31  C   UNL     1      -0.060  -2.917  -8.304  0.00  0.00    -0.019 A 
ATOM     32  C   UNL     1      -0.184  -4.130  -8.963  0.00  0.00    +0.163 A 
BRANCH  27  34
ATOM     33  C   UNL     1       1.631  -5.989 -11.553  0.00  0.00    +0.277 C 
ATOM     34  O   UNL     1       0.634  -5.682 -10.576  0.00  0.00    -0.491 OA
ENDBRANCH  27  34
BRANCH  32  35
ATOM     35  O   UNL     1      -1.218  -4.963  -8.669  0.00  0.00    -0.491 OA
ATOM     36  C   UNL     1      -2.419  -4.799  -9.427  0.00  0.00    +0.277 C 
ENDBRANCH  32  35
ENDBRANCH  26  31
ENDBRANCH   8  26
TORSDOF 8
