REMARK  Name = ZINC01587936
REMARK  13 active torsions:
REMARK  status: ('A' for Active; 'I' for Inactive)
REMARK    1  A    between atoms: C_1  and  C_2
REMARK    2  A    between atoms: C_2  and  O_3
REMARK    3  A    between atoms: O_3  and  C_4
REMARK    4  A    between atoms: C_4  and  C_6
REMARK    5  A    between atoms: C_8  and  C_26
REMARK    6  A    between atoms: C_17  and  C_18
REMARK    7  A    between atoms: C_17  and  N_69
REMARK    8  A    between atoms: C_28  and  O_36
REMARK    9  A    between atoms: C_29  and  O_34
REMARK   10  A    between atoms: C_30  and  O_32
REMARK   11  A    between atoms: O_32  and  C_33
REMARK   12  A    between atoms: O_34  and  C_35
REMARK   13  A    between atoms: O_36  and  C_37
REMARK                            x       y       z     vdW  Elec       q    Type
REMARK                         _______ _______ _______ _____ _____    ______ ____
ROOT
ATOM      1  C   UNL     1       2.386  -1.195   6.016  0.00  0.00    +0.135 C 
ATOM      2  C   UNL     1       1.799   0.136   6.492  0.00  0.00    +0.068 C 
ATOM      3  C   UNL     1       0.608  -0.124   7.381  0.00  0.00    +0.006 A 
ATOM      4  C   UNL     1      -0.286   0.910   7.613  0.00  0.00    +0.057 A 
ATOM      5  C   UNL     1      -1.388   0.713   8.426  0.00  0.00    +0.167 A 
ATOM      6  C   UNL     1      -1.599  -0.532   9.015  0.00  0.00    +0.170 A 
ATOM      7  C   UNL     1      -0.707  -1.563   8.781  0.00  0.00    +0.095 A 
ATOM      8  C   UNL     1       0.399  -1.362   7.962  0.00  0.00    +0.126 A 
ATOM      9  O   UNL     1       1.245  -2.404   7.751  0.00  0.00    -0.502 OA
ATOM     10  C   UNL     1       2.544  -2.115   7.233  0.00  0.00    +0.094 C 
ATOM     11  C   UNL     1       3.381  -1.413   8.304  0.00  0.00    +0.035 C 
ATOM     12  O   UNL     1      -2.739  -0.472   9.764  0.00  0.00    -0.452 OA
ATOM     13  C   UNL     1      -3.443   0.695   9.300  0.00  0.00    +0.466 C 
ATOM     14  O   UNL     1      -2.397   1.552   8.806  0.00  0.00    -0.453 OA
ENDROOT
BRANCH  10  19
ATOM     15  C   UNL     1       3.269  -4.323   7.960  0.00  0.00    -0.073 C 
ATOM     16  C   UNL     1       3.480  -5.687   7.257  0.00  0.00    -0.020 C 
ATOM     17  C   UNL     1       2.605  -5.561   5.988  0.00  0.00    -0.020 C 
ATOM     18  C   UNL     1       2.439  -4.047   5.763  0.00  0.00    -0.073 C 
ATOM     19  N   UNL     1       3.206  -3.391   6.824  0.00  0.00    +0.406 N 
ATOM     20  H   UNL     1       4.155  -3.186   6.489  0.00  0.00    -0.076 HD
ENDBRANCH  10  19
BRANCH   2  21
ATOM     21  C   UNL     1       1.366   0.949   5.299  0.00  0.00    -0.032 A 
ATOM     22  C   UNL     1       1.931   2.189   5.069  0.00  0.00    +0.054 A 
ATOM     23  C   UNL     1       1.535   2.941   3.973  0.00  0.00    +0.165 A 
ATOM     24  C   UNL     1       0.569   2.445   3.105  0.00  0.00    +0.204 A 
ATOM     25  C   UNL     1       0.000   1.200   3.343  0.00  0.00    +0.165 A 
ATOM     26  C   UNL     1       0.405   0.452   4.438  0.00  0.00    +0.054 A 
BRANCH  25  27
ATOM     27  O   UNL     1      -0.949   0.712   2.500  0.00  0.00    -0.491 OA
ATOM     28  C   UNL     1      -1.490  -0.574   2.806  0.00  0.00    +0.277 C 
ENDBRANCH  25  27
BRANCH  24  29
ATOM     29  O   UNL     1       0.178   3.179   2.028  0.00  0.00    -0.488 OA
ATOM     30  C   UNL     1       0.903   2.984   0.812  0.00  0.00    +0.277 C 
ENDBRANCH  24  29
BRANCH  23  31
ATOM     31  O   UNL     1       2.090   4.161   3.748  0.00  0.00    -0.491 OA
ATOM     32  C   UNL     1       3.076   4.607   4.681  0.00  0.00    +0.277 C 
ENDBRANCH  23  31
ENDBRANCH   2  21
BRANCH   1  33
ATOM     33  C   UNL     1       3.731  -0.958   5.380  0.00  0.00    +0.313 C 
ATOM     34  O   UNL     1       4.734  -1.369   5.915  0.00  0.00    -0.250 OA
BRANCH  33  35
ATOM     35  O   UNL     1       3.817  -0.289   4.219  0.00  0.00    -0.465 OA
BRANCH  35  37
ATOM     36  C   UNL     1       5.042   0.678   2.350  0.00  0.00    +0.048 C 
ATOM     37  C   UNL     1       5.145  -0.098   3.664  0.00  0.00    +0.229 C 
ENDBRANCH  35  37
ENDBRANCH  33  35
ENDBRANCH   1  33
TORSDOF 8
