REMARK  Name = ZINC08793185
REMARK  8 active torsions:
REMARK  status: ('A' for Active; 'I' for Inactive)
REMARK    1  A    between atoms: C_1  and  C_2
REMARK    2  A    between atoms: C_2  and  C_3
REMARK    3  A    between atoms: C_2  and  N_51
REMARK    4  A    between atoms: C_9  and  N_14
REMARK    5  A    between atoms: C_10  and  C_11
REMARK    6  A    between atoms: C_15  and  C_17
REMARK    7  A    between atoms: C_18  and  C_19
REMARK    8  A    between atoms: C_22  and  N_25
REMARK                            x       y       z     vdW  Elec       q    Type
REMARK                         _______ _______ _______ _____ _____    ______ ____
ROOT
ATOM      1  C   UNL     1       4.444   2.896  -4.867  0.00  0.00    -0.073 C 
ATOM      2  C   UNL     1       4.073   1.817  -3.846  0.00  0.00    +0.018 C 
ATOM      3  C   UNL     1       2.699   2.152  -3.278  0.00  0.00    -0.027 A 
ATOM      4  C   UNL     1       2.194   3.399  -3.416  0.00  0.00    -0.021 A 
ATOM      5  S   UNL     1       0.610   3.333  -2.633  0.00  0.00    -0.079 S 
ATOM      6  C   UNL     1       0.620   1.678  -2.119  0.00  0.00    +0.085 A 
ATOM      7  C   UNL     1       1.848   1.213  -2.573  0.00  0.00    +0.068 A 
ATOM      8  C   UNL     1       2.858   4.557  -4.094  0.00  0.00    -0.035 C 
ATOM      9  N   UNL     1       4.296   4.229  -4.247  0.00  0.00    +0.384 N 
ATOM     10  H   UNL     1       4.736   4.216  -3.319  0.00  0.00    -0.081 HD
ENDROOT
BRANCH   7  11
ATOM     11  C   UNL     1       2.266  -0.174  -2.349  0.00  0.00    +0.244 C 
ATOM     12  O   UNL     1       1.995  -1.032  -3.169  0.00  0.00    -0.270 OA
ATOM     13  N   UNL     1       2.951  -0.499  -1.235  0.00  0.00    -0.325 N 
ATOM     14  H   UNL     1       3.168   0.184  -0.582  0.00  0.00    +0.145 HD
ATOM     15  H   UNL     1       3.228  -1.417  -1.087  0.00  0.00    +0.145 HD
ENDBRANCH   7  11
BRANCH   6  16
ATOM     16  N   UNL     1      -0.360   0.986  -1.428  0.00  0.00    -0.276 N 
ATOM     17  C   UNL     1      -1.501   1.609  -1.072  0.00  0.00    +0.241 C 
ATOM     18  O   UNL     1      -1.667   2.781  -1.352  0.00  0.00    -0.270 OA
ATOM     19  H   UNL     1      -0.228   0.051  -1.205  0.00  0.00    +0.156 HD
BRANCH  17  20
ATOM     20  C   UNL     1      -2.540   0.875  -0.347  0.00  0.00    +0.068 C 
ATOM     21  C   UNL     1      -3.619   1.529   0.129  0.00  0.00    +0.013 C 
BRANCH  21  22
ATOM     22  C   UNL     1      -3.644   3.001   0.138  0.00  0.00    -0.025 A 
ATOM     23  C   UNL     1      -2.520   3.720   0.555  0.00  0.00    +0.010 A 
ATOM     24  C   UNL     1      -2.549   5.099   0.555  0.00  0.00    +0.033 A 
ATOM     25  C   UNL     1      -3.690   5.770   0.153  0.00  0.00    +0.126 A 
ATOM     26  C   UNL     1      -4.809   5.065  -0.256  0.00  0.00    +0.033 A 
ATOM     27  C   UNL     1      -4.793   3.686  -0.267  0.00  0.00    +0.010 A 
BRANCH  25  28
ATOM     28  N   UNL     1      -3.715   7.250   0.161  0.00  0.00    +0.056 N 
ATOM     29  O   UNL     1      -4.718   7.844  -0.192  0.00  0.00    -0.126 OA
ATOM     30  O   UNL     1      -2.732   7.874   0.520  0.00  0.00    -0.126 OA
ENDBRANCH  25  28
ENDBRANCH  21  22
ENDBRANCH  17  20
ENDBRANCH   6  16
BRANCH   9  32
ATOM     31  C   UNL     1       4.672   6.638  -4.501  0.00  0.00    -0.014 C 
ATOM     32  C   UNL     1       4.963   5.252  -5.081  0.00  0.00    -0.074 C 
ATOM     33  C   UNL     1       6.471   4.999  -5.064  0.00  0.00    -0.014 C 
ENDBRANCH   9  32
TORSDOF 6
