REMARK  Name = ZINC20763171
REMARK  11 active torsions:
REMARK  status: ('A' for Active; 'I' for Inactive)
REMARK    1  A    between atoms: C_1  and  C_2
REMARK    2  A    between atoms: C_2  and  O_3
REMARK    3  A    between atoms: O_3  and  C_4
REMARK    4  A    between atoms: C_8  and  C_11
REMARK    5  A    between atoms: C_9  and  O_10
REMARK    6  A    between atoms: C_14  and  C_29
REMARK    7  A    between atoms: C_16  and  C_19
REMARK    8  A    between atoms: C_22  and  O_27
REMARK    9  A    between atoms: C_23  and  O_25
REMARK   10  A    between atoms: O_25  and  C_26
REMARK   11  A    between atoms: O_27  and  C_28
REMARK                            x       y       z     vdW  Elec       q    Type
REMARK                         _______ _______ _______ _____ _____    ______ ____
ROOT
ATOM      1  C   UNL     1      -3.581   2.056   0.891  0.00  0.00    -0.028 C 
ATOM      2  C   UNL     1      -3.294   3.161   1.911  0.00  0.00    +0.044 C 
ATOM      3  C   UNL     1      -2.017   3.864   1.543  0.00  0.00    +0.040 C 
ATOM      4  N   UNL     1      -1.168   3.383   0.714  0.00  0.00    -0.299 NA
ATOM      5  C   UNL     1      -1.333   2.112   0.020  0.00  0.00    +0.081 C 
ATOM      6  N   UNL     1      -2.344   1.284   0.688  0.00  0.00    +0.401 N 
ATOM      7  H   UNL     1      -1.953   0.955   1.662  0.00  0.00    -0.081 HD
ATOM      8  H   UNL     1      -2.558   0.404   0.063  0.00  0.00    -0.081 HD
ENDROOT
BRANCH   3   9
ATOM      9  C   UNL     1      -1.728   5.170   2.167  0.00  0.00    -0.004 A 
ATOM     10  C   UNL     1      -2.631   5.730   3.073  0.00  0.00    +0.011 A 
ATOM     11  C   UNL     1      -2.353   6.948   3.656  0.00  0.00    +0.016 A 
ATOM     12  C   UNL     1      -1.185   7.621   3.338  0.00  0.00    +0.018 A 
ATOM     13  C   UNL     1      -0.287   7.073   2.437  0.00  0.00    +0.016 A 
ATOM     14  C   UNL     1      -0.551   5.853   1.851  0.00  0.00    +0.011 A 
ATOM     15 BR   UNL     1      -0.816   9.294   4.136  0.00  0.00    -0.050 Br
ENDBRANCH   3   9
BRANCH   1  20
ATOM     16  C   UNL     1      -6.997   0.644   1.710  0.00  0.00    +0.162 A 
ATOM     17  C   UNL     1      -6.655  -0.521   2.378  0.00  0.00    +0.049 A 
ATOM     18  C   UNL     1      -5.325  -0.847   2.563  0.00  0.00    +0.004 A 
ATOM     19  C   UNL     1      -4.332  -0.016   2.077  0.00  0.00    +0.006 A 
ATOM     20  C   UNL     1      -4.666   1.150   1.414  0.00  0.00    -0.016 A 
ATOM     21  C   UNL     1      -5.998   1.483   1.226  0.00  0.00    +0.160 A 
BRANCH  21  22
ATOM     22  O   UNL     1      -6.328   2.627   0.570  0.00  0.00    -0.503 OA
ATOM     23  H   UNL     1      -5.537   3.290   0.187  0.00  0.00    +0.292 HD
ENDBRANCH  21  22
BRANCH  16  24
ATOM     24  O   UNL     1      -8.305   0.966   1.527  0.00  0.00    -0.489 OA
BRANCH  24  26
ATOM     25  C   UNL     1     -10.681   0.585   1.751  0.00  0.00    +0.048 C 
ATOM     26  C   UNL     1      -9.276   0.058   2.051  0.00  0.00    +0.226 C 
ENDBRANCH  24  26
ENDBRANCH  16  24
ENDBRANCH   1  20
BRANCH   5  27
ATOM     27  C   UNL     1      -0.017   1.378   0.010  0.00  0.00    -0.037 A 
ATOM     28  C   UNL     1       0.002  -0.004   0.002  0.00  0.00    +0.007 A 
ATOM     29  C   UNL     1       1.207  -0.682  -0.013  0.00  0.00    +0.049 A 
ATOM     30  C   UNL     1       2.399   0.024  -0.020  0.00  0.00    +0.161 A 
ATOM     31  C   UNL     1       2.380   1.415  -0.013  0.00  0.00    +0.162 A 
ATOM     32  C   UNL     1       1.169   2.089   0.002  0.00  0.00    +0.053 A 
BRANCH  31  33
ATOM     33  O   UNL     1       3.548   2.113  -0.020  0.00  0.00    -0.491 OA
ATOM     34  C   UNL     1       3.452   3.539  -0.012  0.00  0.00    +0.277 C 
ENDBRANCH  31  33
BRANCH  30  35
ATOM     35  O   UNL     1       3.585  -0.641  -0.035  0.00  0.00    -0.491 OA
ATOM     36  C   UNL     1       3.528  -2.069  -0.042  0.00  0.00    +0.277 C 
ENDBRANCH  30  35
ENDBRANCH   5  27
TORSDOF 8
