REMARK  Name = ZINC34830044
REMARK  6 active torsions:
REMARK  status: ('A' for Active; 'I' for Inactive)
REMARK    1  A    between atoms: C_4  and  C_7
REMARK    2  A    between atoms: N_16  and  C_17
REMARK    3  A    between atoms: C_17  and  C_18
REMARK    4  A    between atoms: C_18  and  C_19
REMARK    5  A    between atoms: C_28  and  C_30
REMARK    6  A    between atoms: C_34  and  N_36
REMARK                            x       y       z     vdW  Elec       q    Type
REMARK                         _______ _______ _______ _____ _____    ______ ____
ROOT
ATOM      1  C   UNL     1       3.400  -2.203   4.433  0.00  0.00    +0.214 C 
ATOM      2  O   UNL     1       3.512  -1.018   4.668  0.00  0.00    -0.276 OA
ATOM      3  N   UNL     1       3.098  -3.062   5.427  0.00  0.00    -0.300 N 
ATOM      4  C   UNL     1       2.899  -2.613   6.760  0.00  0.00    +0.109 C 
ATOM      5  C   UNL     1       4.212  -2.442   7.593  0.00  0.00    +0.038 C 
ATOM      6  C   UNL     1       5.169  -3.612   7.195  0.00  0.00    +0.109 C 
ATOM      7  N   UNL     1       4.522  -4.858   6.974  0.00  0.00    -0.296 N 
ATOM      8  C   UNL     1       4.185  -5.204   5.569  0.00  0.00    +0.127 C 
ATOM      9  C   UNL     1       2.953  -4.519   5.176  0.00  0.00    +0.126 C 
ATOM     10  C   UNL     1       4.228  -5.689   7.994  0.00  0.00    +0.247 C 
ATOM     11  O   UNL     1       4.517  -5.379   9.133  0.00  0.00    -0.270 OA
ENDROOT
BRANCH  10  12
ATOM     12  C   UNL     1       3.553  -6.977   7.727  0.00  0.00    +0.039 A 
ATOM     13  C   UNL     1       3.782  -8.074   8.558  0.00  0.00    +0.013 A 
ATOM     14  C   UNL     1       3.149  -9.273   8.304  0.00  0.00    +0.003 A 
ATOM     15  C   UNL     1       2.288  -9.389   7.226  0.00  0.00    +0.033 A 
ATOM     16  C   UNL     1       2.057  -8.305   6.398  0.00  0.00    +0.127 A 
ATOM     17  C   UNL     1       2.679  -7.099   6.645  0.00  0.00    +0.045 A 
BRANCH  16  18
ATOM     18  N   UNL     1       1.135  -8.439   5.247  0.00  0.00    +0.056 N 
ATOM     19  O   UNL     1       0.586  -9.494   5.033  0.00  0.00    -0.126 OA
ATOM     20  O   UNL     1       0.932  -7.493   4.523  0.00  0.00    -0.126 OA
ENDBRANCH  16  18
ENDBRANCH  10  12
BRANCH   1  21
ATOM     21  C   UNL     1       3.598  -2.714   3.029  0.00  0.00    +0.077 C 
BRANCH  21  22
ATOM     22  C   UNL     1       3.928  -1.543   2.102  0.00  0.00    -0.068 C 
BRANCH  22  31
ATOM     23  C   UNL     1       4.319  -0.904  -0.172  0.00  0.00    -0.006 C 
ATOM     24  C   UNL     1       4.620  -1.433  -1.571  0.00  0.00    -0.047 A 
ATOM     25  C   UNL     1       4.481  -0.682  -2.735  0.00  0.00    +0.010 A 
ATOM     26  C   UNL     1       4.770  -1.235  -3.936  0.00  0.00    +0.045 A 
ATOM     27  S   UNL     1       5.267  -2.888  -3.471  0.00  0.00    -0.101 S 
ATOM     28  C   UNL     1       5.055  -2.716  -1.723  0.00  0.00    -0.010 A 
ATOM     29  C   UNL     1       5.286  -3.709  -0.631  0.00  0.00    +0.024 C 
ATOM     30  C   UNL     1       5.283  -2.942   0.702  0.00  0.00    -0.072 C 
ATOM     31  N   UNL     1       4.121  -2.042   0.733  0.00  0.00    +0.388 N 
ATOM     32  H   UNL     1       3.299  -2.554   0.448  0.00  0.00    -0.080 HD
BRANCH  23  36
ATOM     33  C   UNL     1       0.774   1.477  -0.278  0.00  0.00    +0.000 A 
ATOM     34  C   UNL     1       2.015   2.086  -0.271  0.00  0.00    +0.000 A 
ATOM     35  C   UNL     1       3.162   1.315  -0.237  0.00  0.00    +0.002 A 
ATOM     36  C   UNL     1       3.068  -0.064  -0.209  0.00  0.00    -0.057 A 
ATOM     37  C   UNL     1       1.827  -0.672  -0.214  0.00  0.00    +0.002 A 
ATOM     38  C   UNL     1       0.679   0.099  -0.250  0.00  0.00    +0.000 A 
ENDBRANCH  23  36
ENDBRANCH  22  31
ENDBRANCH  21  22
ENDBRANCH   1  21
TORSDOF 6
