REMARK  Name = ZINC39939882
REMARK  5 active torsions:
REMARK  status: ('A' for Active; 'I' for Inactive)
REMARK    1  A    between atoms: C_13  and  O_15
REMARK    2  A    between atoms: O_15  and  C_16
REMARK    3  A    between atoms: C_16  and  C_17
REMARK    4  A    between atoms: CA_18  and  C_29
REMARK    5  A    between atoms: CA_22  and  N_26
REMARK                            x       y       z     vdW  Elec       q    Type
REMARK                         _______ _______ _______ _____ _____    ______ ____
ROOT
ATOM      1  C   UNL     1       4.528  -4.667  -2.716  0.00  0.00    +0.266 C 
ENDROOT
BRANCH   1   2
ATOM      2  C   UNL     1       4.904  -5.827  -3.601  0.00  0.00    +0.006 C 
ATOM      3  CA  UNL     1       6.166  -5.867  -4.000  0.00  0.00    +0.129 C 
ATOM      4  N   UNL     1       6.613  -6.879  -4.867  0.00  0.00    -0.255 N 
ATOM      5  C   UNL     1       5.930  -8.163  -5.171  0.00  0.00    +0.134 C 
ATOM      6  CA  UNL     1       6.771  -8.199  -6.429  0.00  0.00    +0.045 C 
ATOM      7  C   UNL     1       7.577  -7.130  -5.741  0.00  0.00    +0.209 C 
ATOM      8  O   UNL     1       8.686  -6.673  -5.919  0.00  0.00    -0.277 OA
ATOM      9  S   UNL     1       4.166  -7.758  -5.403  0.00  0.00    -0.135 S 
ATOM     10  C   UNL     1       3.807  -6.792  -3.915  0.00  0.00    +0.107 C 
BRANCH   6  11
ATOM     11  N   UNL     1       7.494  -9.462  -6.630  0.00  0.00    +0.387 N 
ATOM     12  H1  UNL     1       6.833 -10.221  -6.693  0.00  0.00    -0.089 HD
ATOM     13  H2  UNL     1       8.030  -9.411  -7.484  0.00  0.00    -0.089 HD
ATOM     14  H3  UNL     1       8.116  -9.621  -5.852  0.00  0.00    -0.089 HD
ENDBRANCH   6  11
BRANCH   3  15
ATOM     15  C   UNL     1       7.111  -4.840  -3.531  0.00  0.00    +0.401 C 
ATOM     16  O   UNL     1       6.757  -4.019  -2.695  0.00  0.00    -0.239 OA
ATOM     17  OXT UNL     1       8.249  -4.806  -3.978  0.00  0.00    -0.239 OA
ENDBRANCH   3  15
ENDBRANCH   1   2
BRANCH   1  18
ATOM     18  O   UNL     1       3.124  -4.703  -2.453  0.00  0.00    -0.457 OA
BRANCH  18  30
ATOM     19  C   UNL     1       0.266   1.743  -0.444  0.00  0.00    +0.001 A 
ATOM     20  C   UNL     1       1.498   2.387  -0.268  0.00  0.00    +0.002 A 
ATOM     21  C   UNL     1       2.651   1.694  -0.132  0.00  0.00    +0.026 A 
ATOM     22  C   UNL     1       2.615   0.227  -0.171  0.00  0.00    +0.046 A 
ATOM     23  N   UNL     1       3.566  -0.673  -0.099  0.00  0.00    -0.358 N 
ATOM     24  C   UNL     1       2.961  -1.994  -0.063  0.00  0.00    +0.255 C 
ATOM     25  C   UNL     1       1.493  -1.785  -0.393  0.00  0.00    +0.117 C 
ATOM     26  C   UNL     1       1.295  -0.425  -0.370  0.00  0.00    +0.025 A 
ATOM     27  C   UNL     1       0.152   0.396  -0.495  0.00  0.00    +0.012 A 
ATOM     28  N   UNL     1       0.705  -2.799  -0.757  0.00  0.00    -0.145 NA
ATOM     29  N   UNL     1       1.309  -3.800  -1.323  0.00  0.00    -0.092 NA
ATOM     30  C   UNL     1       2.636  -3.784  -1.587  0.00  0.00    +0.335 C 
ATOM     31  N   UNL     1       3.480  -2.935  -1.054  0.00  0.00    -0.200 NA
ATOM     32  H   UNL     1       4.518  -0.488  -0.074  0.00  0.00    +0.162 HD
ENDBRANCH  18  30
ENDBRANCH   1  18
TORSDOF 5
