REMARK  Name = ZINC49233989
REMARK  12 active torsions:
REMARK  status: ('A' for Active; 'I' for Inactive)
REMARK    1  A    between atoms: C_1  and  C_2
REMARK    2  A    between atoms: C_2  and  C_3
REMARK    3  A    between atoms: C_2  and  C_4
REMARK    4  A    between atoms: C_4  and  C_6
REMARK    5  A    between atoms: C_4  and  N_10
REMARK    6  A    between atoms: C_6  and  N_7
REMARK    7  A    between atoms: N_7  and  C_8
REMARK    8  A    between atoms: N_7  and  C_9
REMARK    9  A    between atoms: N_10  and  C_11
REMARK   10  A    between atoms: C_11  and  C_12
REMARK   11  A    between atoms: C_11  and  C_13
REMARK   12  A    between atoms: C_11  and  C_20
REMARK                            x       y       z     vdW  Elec       q    Type
REMARK                         _______ _______ _______ _____ _____    ______ ____
ROOT
ATOM      1  N   UNL     1       2.405  -3.101   1.044  0.00  0.00    +0.393 N 
ATOM      2  H   UNL     1       2.616  -2.528   1.847  0.00  0.00    -0.084 HD
ATOM      3  H   UNL     1       3.261  -3.483   0.670  0.00  0.00    -0.084 HD
ENDROOT
BRANCH   1   4
ATOM      4  C   UNL     1       1.744  -2.284   0.019  0.00  0.00    +0.059 C 
ATOM      5  C   UNL     1       0.332  -1.923   0.486  0.00  0.00    +0.006 C 
BRANCH   4   6
ATOM      6  C   UNL     1       2.536  -1.021  -0.205  0.00  0.00    -0.048 A 
ATOM      7  C   UNL     1       3.697  -0.798   0.512  0.00  0.00    +0.004 A 
ATOM      8  C   UNL     1       4.424   0.359   0.307  0.00  0.00    +0.015 A 
ATOM      9  C   UNL     1       3.991   1.294  -0.617  0.00  0.00    +0.018 A 
ATOM     10  C   UNL     1       2.829   1.070  -1.334  0.00  0.00    +0.015 A 
ATOM     11  C   UNL     1       2.106  -0.090  -1.131  0.00  0.00    +0.004 A 
ATOM     12 BR   UNL     1       4.985   2.878  -0.897  0.00  0.00    -0.050 Br
ENDBRANCH   4   6
BRANCH   4  13
ATOM     13  C   UNL     1       1.664  -3.061  -1.269  0.00  0.00    +0.349 C 
ATOM     14  O   UNL     1       2.011  -4.230  -1.299  0.00  0.00    -0.248 OA
ATOM     15  O   UNL     1       1.251  -2.523  -2.282  0.00  0.00    -0.248 OA
ENDBRANCH   4  13
ENDBRANCH   1   4
BRANCH   1  16
ATOM     16  C   UNL     1       1.514  -4.198   1.446  0.00  0.00    -0.084 C 
BRANCH  16  18
ATOM     17  C   UNL     1       0.045  -5.068   3.271  0.00  0.00    +0.005 C 
ATOM     18  C   UNL     1       0.933  -3.902   2.830  0.00  0.00    -0.033 C 
ATOM     19  C   UNL     1       2.073  -3.721   3.834  0.00  0.00    +0.005 C 
ENDBRANCH  16  18
BRANCH  16  20
ATOM     20  C   UNL     1       0.375  -4.327   0.432  0.00  0.00    -0.095 C 
BRANCH  20  21
ATOM     21  N   UNL     1       0.203  -5.739   0.067  0.00  0.00    +0.375 N 
ATOM     22  C   UNL     1      -0.079  -6.527   1.274  0.00  0.00    -0.097 C 
ATOM     23  C   UNL     1      -0.917  -5.869  -0.875  0.00  0.00    -0.097 C 
ATOM     24  H   UNL     1       1.048  -6.080  -0.367  0.00  0.00    -0.083 HD
ENDBRANCH  20  21
ENDBRANCH  16  20
ENDBRANCH   1  16
TORSDOF 7
