REMARK  Name = ZINC39631115
REMARK  11 active torsions:
REMARK  status: ('A' for Active; 'I' for Inactive)
REMARK    1  A    between atoms: C_1  and  C_2
REMARK    2  A    between atoms: C_2  and  C_4
REMARK    3  A    between atoms: C_2  and  N_11
REMARK    4  A    between atoms: C_4  and  C_5
REMARK    5  A    between atoms: C_5  and  C_6
REMARK    6  A    between atoms: C_6  and  C_7
REMARK    7  A    between atoms: C_7  and  C_8
REMARK    8  A    between atoms: C_7  and  C_9
REMARK    9  A    between atoms: C_7  and  O_10
REMARK   10  A    between atoms: C_12  and  C_14
REMARK   11  A    between atoms: C_25  and  C_27
REMARK                            x       y       z     vdW  Elec       q    Type
REMARK                         _______ _______ _______ _____ _____    ______ ____
ROOT
ATOM      1  C   UNL     1      -2.931  -3.601  -1.817  0.00  0.00    +0.100 C 
ATOM      2  C   UNL     1      -2.279  -4.493  -0.738  0.00  0.00    +0.121 C 
ATOM      3  N   UNL     1      -3.108  -4.284   0.472  0.00  0.00    -0.296 N 
ATOM      4  C   UNL     1      -4.498  -4.219  -0.040  0.00  0.00    +0.115 C 
ATOM      5  C   UNL     1      -4.388  -3.426  -1.358  0.00  0.00    -0.004 C 
ATOM      6  C   UNL     1      -5.343  -4.000  -2.400  0.00  0.00    -0.010 C 
ATOM      7  C   UNL     1      -6.787  -3.763  -1.948  0.00  0.00    -0.082 C 
ATOM      8  N   UNL     1      -7.020  -2.323  -1.782  0.00  0.00    +0.379 N 
ATOM      9  C   UNL     1      -6.162  -1.797  -0.713  0.00  0.00    -0.082 C 
ATOM     10  C   UNL     1      -4.692  -1.951  -1.112  0.00  0.00    -0.010 C 
ATOM     11  C   UNL     1      -2.693  -4.177   1.750  0.00  0.00    +0.248 C 
ATOM     12  O   UNL     1      -3.503  -4.010   2.640  0.00  0.00    -0.270 OA
ATOM     13  H   UNL     1      -6.807  -1.847  -2.646  0.00  0.00    -0.086 HD
ATOM     14  H   UNL     1      -7.987  -2.165  -1.544  0.00  0.00    -0.086 HD
ENDROOT
BRANCH  11  15
ATOM     15  C   UNL     1      -1.252  -4.262   2.068  0.00  0.00    +0.055 A 
ATOM     16  C   UNL     1      -0.385  -3.240   1.677  0.00  0.00    +0.014 A 
ATOM     17  C   UNL     1       0.958  -3.326   1.978  0.00  0.00    +0.001 A 
ATOM     18  C   UNL     1       1.448  -4.422   2.665  0.00  0.00    +0.001 A 
ATOM     19  C   UNL     1       0.597  -5.439   3.056  0.00  0.00    +0.021 A 
ATOM     20  C   UNL     1      -0.752  -5.364   2.767  0.00  0.00    +0.053 A 
ATOM     21 CL   UNL     1      -1.822  -6.638   3.264  0.00  0.00    -0.083 Cl
ENDBRANCH  11  15
BRANCH   1  23
ATOM     22  N   UNL     1      -2.303  -1.526  -3.009  0.00  0.00    -0.312 N 
ATOM     23  C   UNL     1      -2.238  -2.264  -1.883  0.00  0.00    +0.218 C 
ATOM     24  O   UNL     1      -1.622  -1.853  -0.922  0.00  0.00    -0.275 OA
ATOM     25  H   UNL     1      -2.855  -1.819  -3.750  0.00  0.00    +0.149 HD
BRANCH  22  27
ATOM     26  C   UNL     1      -2.327   0.857  -2.459  0.00  0.00    +0.028 C 
ATOM     27  C   UNL     1      -1.539  -0.280  -3.112  0.00  0.00    +0.070 C 
BRANCH  27  28
ATOM     28  C   UNL     1      -1.297   0.049  -4.587  0.00  0.00    +0.022 C 
BRANCH  28  29
ATOM     29  C   UNL     1      -1.479  -1.216  -5.428  0.00  0.00    +0.005 C 
BRANCH  29  30
ATOM     30  C   UNL     1      -1.110  -0.919  -6.883  0.00  0.00    +0.034 C 
BRANCH  30  31
ATOM     31  C   UNL     1      -1.161  -2.214  -7.697  0.00  0.00    +0.061 C 
ATOM     32  C   UNL     1      -2.529  -2.875  -7.516  0.00  0.00    +0.041 C 
ATOM     33  C   UNL     1      -0.941  -1.895  -9.177  0.00  0.00    +0.041 C 
BRANCH  31  34
ATOM     34  O   UNL     1      -0.139  -3.103  -7.243  0.00  0.00    -0.389 OA
ATOM     35  H   UNL     1       0.757  -2.748  -7.328  0.00  0.00    +0.210 HD
ENDBRANCH  31  34
ENDBRANCH  30  31
ENDBRANCH  29  30
ENDBRANCH  28  29
ENDBRANCH  27  28
ENDBRANCH  22  27
ENDBRANCH   1  23
TORSDOF 8
