REMARK  Name = ZINC58231138
REMARK  6 active torsions:
REMARK  status: ('A' for Active; 'I' for Inactive)
REMARK    1  A    between atoms: C_4  and  O_10
REMARK    2  A    between atoms: C_5  and  N_7
REMARK    3  A    between atoms: O_10  and  C_11
REMARK    4  A    between atoms: C_11  and  C_12
REMARK    5  A    between atoms: C_18  and  C_20
REMARK    6  A    between atoms: C_20  and  N_21
REMARK                            x       y       z     vdW  Elec       q    Type
REMARK                         _______ _______ _______ _____ _____    ______ ____
ROOT
ATOM      1  C   UNL     1       5.981  -0.737  -0.062  0.00  0.00    +0.256 C 
ATOM      2  O   UNL     1       5.839  -1.941  -0.067  0.00  0.00    -0.272 OA
ATOM      3  N   UNL     1       7.218  -0.204  -0.072  0.00  0.00    -0.260 N 
ATOM      4  C   UNL     1       8.334  -1.035  -0.088  0.00  0.00    +0.188 A 
ATOM      5  N   UNL     1       8.389  -2.352  -0.102  0.00  0.00    -0.126 NA
ATOM      6  N   UNL     1       9.489  -2.974  -0.115  0.00  0.00    -0.147 NA
ATOM      7  C   UNL     1      10.614  -2.287  -0.116  0.00  0.00    +0.086 A 
ATOM      8  S   UNL     1       9.968  -0.621  -0.103  0.00  0.00    -0.037 S 
ATOM      9  H   UNL     1       7.332   0.760  -0.068  0.00  0.00    +0.157 HD
ENDROOT
BRANCH   1  10
ATOM     10  C   UNL     1       4.772   0.164  -0.045  0.00  0.00    +0.325 C 
BRANCH  10  11
ATOM     11  O   UNL     1       3.586  -0.632  -0.037  0.00  0.00    -0.480 OA
BRANCH  11  15
ATOM     12  C   UNL     1      -0.017   1.378   0.010  0.00  0.00    +0.002 A 
ATOM     13  C   UNL     1       1.170   2.088   0.002  0.00  0.00    +0.004 A 
ATOM     14  C   UNL     1       2.377   1.417  -0.013  0.00  0.00    +0.048 A 
ATOM     15  C   UNL     1       2.399   0.030  -0.021  0.00  0.00    +0.151 A 
ATOM     16  C   UNL     1       1.207  -0.680  -0.013  0.00  0.00    +0.168 A 
ATOM     17  C   UNL     1       0.002  -0.004   0.002  0.00  0.00    +0.036 A 
BRANCH  16  18
ATOM     18  N   UNL     1       1.226  -2.160  -0.022  0.00  0.00    +0.060 N 
ATOM     19  O   UNL     1       0.188  -2.778  -0.015  0.00  0.00    -0.126 OA
ATOM     20  O   UNL     1       2.281  -2.750  -0.036  0.00  0.00    -0.126 OA
ENDBRANCH  16  18
ENDBRANCH  11  15
ENDBRANCH  10  11
ENDBRANCH   1  10
BRANCH   7  21
ATOM     21  C   UNL     1      12.041  -2.771  -0.131  0.00  0.00    -0.020 C 
BRANCH  21  22
ATOM     22  N   UNL     1      12.495  -2.914  -1.521  0.00  0.00    +0.382 N 
ATOM     23  H   UNL     1      11.909  -3.581  -1.999  0.00  0.00    -0.090 HD
ATOM     24  H   UNL     1      12.438  -2.021  -1.987  0.00  0.00    -0.090 HD
ATOM     25  H   UNL     1      13.451  -3.237  -1.531  0.00  0.00    -0.090 HD
ENDBRANCH  21  22
ENDBRANCH   7  21
TORSDOF 6
