REMARK  Name = ZINC63161775
REMARK  7 active torsions:
REMARK  status: ('A' for Active; 'I' for Inactive)
REMARK    1  A    between atoms: C_1  and  C_2
REMARK    2  A    between atoms: N_7  and  C_8
REMARK    3  A    between atoms: C_8  and  C_9
REMARK    4  A    between atoms: C_8  and  C_10
REMARK    5  A    between atoms: C_10  and  N_11
REMARK    6  A    between atoms: N_14  and  C_15
REMARK    7  A    between atoms: C_17  and  C_23
REMARK                            x       y       z     vdW  Elec       q    Type
REMARK                         _______ _______ _______ _____ _____    ______ ____
ROOT
ATOM      1  N   UNL     1       0.630   2.061   1.003  0.00  0.00    -0.301 N 
ATOM      2  C   UNL     1       0.466   3.398   1.023  0.00  0.00    +0.304 C 
ATOM      3  O   UNL     1       0.548   4.006   2.073  0.00  0.00    -0.253 OA
ATOM      4  N   UNL     1       0.212   4.063  -0.122  0.00  0.00    -0.265 N 
ATOM      5  H   UNL     1       0.648   1.587   0.157  0.00  0.00    +0.150 HD
ATOM      6  H   UNL     1       0.142   3.578  -0.959  0.00  0.00    +0.157 HD
ENDROOT
BRANCH   4   7
ATOM      7  C   UNL     1       0.050   5.456  -0.103  0.00  0.00    +0.100 A 
ATOM      8  C   UNL     1      -0.920   6.050  -0.863  0.00  0.00    +0.042 A 
ATOM      9  C   UNL     1      -1.062   7.444  -0.825  0.00  0.00    +0.073 A 
ATOM     10  C   UNL     1      -0.245   8.187  -0.043  0.00  0.00    +0.098 A 
ATOM     11  N   UNL     1       0.720   7.598   0.712  0.00  0.00    -0.327 N 
ATOM     12  H   UNL     1       1.297   8.147   1.266  0.00  0.00    +0.168 HD
ATOM     13  C   UNL     1       0.881   6.261   0.705  0.00  0.00    +0.270 A 
ATOM     14  O   UNL     1       1.748   5.746   1.393  0.00  0.00    -0.266 OA
BRANCH   9  15
ATOM     15  C   UNL     1      -2.125   8.116  -1.655  0.00  0.00    +0.419 C 
ATOM     16  F   UNL     1      -2.071   9.499  -1.452  0.00  0.00    -0.166 F 
ATOM     17  F   UNL     1      -1.906   7.835  -3.008  0.00  0.00    -0.166 F 
ATOM     18  F   UNL     1      -3.384   7.638  -1.277  0.00  0.00    -0.166 F 
ENDBRANCH   9  15
ENDBRANCH   4   7
BRANCH   1  19
ATOM     19  C   UNL     1       0.780   1.323   2.260  0.00  0.00    +0.090 C 
BRANCH  19  20
ATOM     20  C   UNL     1       0.806  -0.179   1.969  0.00  0.00    -0.054 C 
ATOM     21  C   UNL     1       0.869  -0.953   3.288  0.00  0.00    -0.012 C 
BRANCH  20  28
ATOM     22  C   UNL     1       0.941  -2.190   0.015  0.00  0.00    -0.013 C 
ATOM     23  C   UNL     1      -0.325  -1.969   0.845  0.00  0.00    -0.071 C 
ATOM     24  C   UNL     1      -1.553  -2.346   0.013  0.00  0.00    -0.016 C 
ATOM     25  C   UNL     1      -2.817  -2.123   0.849  0.00  0.00    -0.003 C 
ATOM     26  C   UNL     1      -2.858  -0.665   1.315  0.00  0.00    -0.019 C 
ATOM     27  C   UNL     1      -1.582  -0.350   2.099  0.00  0.00    -0.078 C 
ATOM     28  N   UNL     1      -0.411  -0.557   1.238  0.00  0.00    +0.384 N 
ATOM     29  H   UNL     1      -0.496   0.016   0.412  0.00  0.00    -0.081 HD
ENDBRANCH  20  28
ENDBRANCH  19  20
ENDBRANCH   1  19
TORSDOF 5
