REMARK  Name = ZINC35190627
REMARK  9 active torsions:
REMARK  status: ('A' for Active; 'I' for Inactive)
REMARK    1  A    between atoms: C_4  and  C_7
REMARK    2  A    between atoms: C_7  and  C_8
REMARK    3  A    between atoms: C_8  and  C_9
REMARK    4  A    between atoms: N_11  and  C_12
REMARK    5  A    between atoms: C_12  and  C_13
REMARK    6  A    between atoms: C_13  and  C_14
REMARK    7  A    between atoms: C_14  and  C_15
REMARK    8  A    between atoms: C_15  and  N_16
REMARK    9  A    between atoms: N_16  and  C_17
REMARK                            x       y       z     vdW  Elec       q    Type
REMARK                         _______ _______ _______ _____ _____    ______ ____
ROOT
ATOM      1  C   UNL     1       9.161  -3.752   3.943  0.00  0.00    +0.020 C 
ENDROOT
BRANCH   1   2
ATOM      2  C   UNL     1       7.825  -3.005   3.960  0.00  0.00    +0.020 C 
BRANCH   2   3
ATOM      3  C   UNL     1       7.365  -2.749   2.524  0.00  0.00    +0.104 C 
BRANCH   3   6
ATOM      4  C   UNL     1       5.487  -1.699   1.381  0.00  0.00    +0.213 C 
ATOM      5  O   UNL     1       6.005  -1.990   0.324  0.00  0.00    -0.276 OA
ATOM      6  N   UNL     1       6.087  -2.034   2.541  0.00  0.00    -0.315 N 
ATOM      7  H   UNL     1       5.672  -1.801   3.386  0.00  0.00    +0.149 HD
BRANCH   4   8
ATOM      8  C   UNL     1       4.171  -0.963   1.399  0.00  0.00    +0.100 C 
BRANCH   8   9
ATOM      9  C   UNL     1       3.711  -0.707  -0.038  0.00  0.00    +0.044 C 
BRANCH   9  13
ATOM     10  C   UNL     1      -0.017   1.378   0.010  0.00  0.00    +0.000 A 
ATOM     11  C   UNL     1       1.171   2.086   0.002  0.00  0.00    +0.000 A 
ATOM     12  C   UNL     1       2.377   1.411  -0.013  0.00  0.00    +0.003 A 
ATOM     13  C   UNL     1       2.396   0.029  -0.020  0.00  0.00    -0.047 A 
ATOM     14  C   UNL     1       1.208  -0.679  -0.012  0.00  0.00    +0.003 A 
ATOM     15  C   UNL     1       0.002  -0.004   0.002  0.00  0.00    +0.000 A 
ENDBRANCH   9  13
ENDBRANCH   8   9
ENDBRANCH   4   8
ENDBRANCH   3   6
ENDBRANCH   2   3
ENDBRANCH   1   2
BRANCH   1  16
ATOM     16  C   UNL     1       9.621  -4.008   5.379  0.00  0.00    +0.101 C 
BRANCH  16  17
ATOM     17  N   UNL     1      10.899  -4.723   5.362  0.00  0.00    -0.343 N 
ATOM     18  H   UNL     1      11.314  -4.956   4.516  0.00  0.00    +0.146 HD
BRANCH  17  19
ATOM     19  C   UNL     1      11.517  -5.068   6.555  0.00  0.00    +0.038 A 
ATOM     20  C   UNL     1      10.941  -4.751   7.776  0.00  0.00    +0.041 A 
ATOM     21  C   UNL     1      11.584  -5.110   8.952  0.00  0.00    +0.085 A 
ATOM     22  N   UNL     1      12.732  -5.746   8.948  0.00  0.00    -0.361 N 
ATOM     23  C   UNL     1      13.345  -6.083   7.808  0.00  0.00    +0.050 A 
ATOM     24  C   UNL     1      12.752  -5.758   6.564  0.00  0.00    +0.019 A 
ATOM     25  C   UNL     1      13.396  -6.119   5.372  0.00  0.00    +0.013 A 
ATOM     26  C   UNL     1      14.584  -6.783   5.422  0.00  0.00    +0.021 A 
ATOM     27  C   UNL     1      15.168  -7.109   6.645  0.00  0.00    +0.043 A 
ATOM     28  C   UNL     1      14.574  -6.763   7.821  0.00  0.00    +0.046 A 
ATOM     29 CL   UNL     1      16.683  -7.957   6.669  0.00  0.00    -0.083 Cl
ATOM     30  H   UNL     1      13.147  -5.978   9.794  0.00  0.00    +0.165 HD
ENDBRANCH  17  19
ENDBRANCH  16  17
ENDBRANCH   1  16
TORSDOF 9
