REMARK  Name = ZINC14740419
REMARK  8 active torsions:
REMARK  status: ('A' for Active; 'I' for Inactive)
REMARK    1  A    between atoms: C_1  and  N_2
REMARK    2  A    between atoms: C_5  and  C_7
REMARK    3  A    between atoms: N_9  and  C_10
REMARK    4  A    between atoms: C_10  and  C_11
REMARK    5  A    between atoms: C_17  and  N_57
REMARK    6  A    between atoms: C_21  and  C_22
REMARK    7  A    between atoms: C_21  and  N_57
REMARK    8  A    between atoms: C_22  and  O_28
REMARK                            x       y       z     vdW  Elec       q    Type
REMARK                         _______ _______ _______ _____ _____    ______ ____
ROOT
ATOM      1  C   UNL     1      -0.731  -5.061   1.058  0.00  0.00    +0.172 C 
ATOM      2  N   UNL     1       0.245  -3.969   1.076  0.00  0.00    -0.270 N 
ATOM      3  C   UNL     1      -0.036  -2.679   0.827  0.00  0.00    +0.043 A 
ATOM      4  C   UNL     1       1.124  -1.986   0.938  0.00  0.00    +0.004 A 
ATOM      5  C   UNL     1       2.108  -2.933   1.268  0.00  0.00    +0.150 A 
ATOM      6  N   UNL     1       1.501  -4.105   1.333  0.00  0.00    -0.166 NA
ATOM      7  C   UNL     1       1.256  -0.503   0.734  0.00  0.00    +0.023 C 
ATOM      8  C   UNL     1       0.002  -0.004   0.002  0.00  0.00    -0.067 C 
ATOM      9  C   UNL     1      -1.248  -0.535   0.709  0.00  0.00    -0.009 C 
ATOM     10  C   UNL     1      -1.362  -2.049   0.487  0.00  0.00    +0.054 C 
ENDROOT
BRANCH   5  11
ATOM     11  C   UNL     1       3.543  -2.669   1.499  0.00  0.00    +0.265 C 
ATOM     12  O   UNL     1       3.976  -1.537   1.408  0.00  0.00    -0.268 OA
ATOM     13  N   UNL     1       4.373  -3.684   1.810  0.00  0.00    -0.305 N 
ATOM     14  H   UNL     1       4.029  -4.588   1.883  0.00  0.00    +0.149 HD
BRANCH  13  15
ATOM     15  C   UNL     1       5.797  -3.423   2.039  0.00  0.00    +0.147 C 
BRANCH  15  16
ATOM     16  C   UNL     1       6.498  -4.715   2.369  0.00  0.00    +0.007 A 
ATOM     17  C   UNL     1       7.084  -5.606   1.532  0.00  0.00    +0.013 A 
ATOM     18  C   UNL     1       7.678  -6.735   2.063  0.00  0.00    +0.008 A 
ATOM     19  C   UNL     1       7.648  -6.924   3.405  0.00  0.00    +0.045 A 
ATOM     20  S   UNL     1       6.767  -5.474   3.962  0.00  0.00    -0.100 S 
ENDBRANCH  15  16
ENDBRANCH  13  15
ENDBRANCH   5  11
BRANCH   8  21
ATOM     21  N   UNL     1      -0.013   1.471   0.017  0.00  0.00    +0.383 N 
ATOM     22  H   UNL     1       0.950   1.820  -0.053  0.00  0.00    -0.085 HD
ATOM     23  H   UNL     1      -0.432   1.796   0.897  0.00  0.00    -0.085 HD
BRANCH  21  24
ATOM     24  C   UNL     1      -0.802   1.987  -1.117  0.00  0.00    -0.047 C 
BRANCH  24  25
ATOM     25  C   UNL     1      -0.799   3.516  -1.075  0.00  0.00    +0.051 C 
ATOM     26  C   UNL     1      -1.304   3.990   0.289  0.00  0.00    +0.033 C 
ATOM     27  C   UNL     1      -1.301   5.519   0.332  0.00  0.00    +0.003 C 
ATOM     28  C   UNL     1      -2.218   6.061  -0.767  0.00  0.00    +0.000 C 
ATOM     29  C   UNL     1      -1.714   5.588  -2.132  0.00  0.00    +0.003 C 
ATOM     30  C   UNL     1      -1.716   4.058  -2.174  0.00  0.00    +0.033 C 
BRANCH  25  31
ATOM     31  O   UNL     1       0.530   3.997  -1.285  0.00  0.00    -0.390 OA
ATOM     32  H   UNL     1       1.167   3.692  -0.624  0.00  0.00    +0.210 HD
ENDBRANCH  25  31
ENDBRANCH  24  25
ENDBRANCH  21  24
ENDBRANCH   8  21
TORSDOF 7
