REMARK  Name = ZINC37791740
REMARK  4 active torsions:
REMARK  status: ('A' for Active; 'I' for Inactive)
REMARK    1  A    between atoms: C_3  and  O_18
REMARK    2  A    between atoms: C_6  and  N_7
REMARK    3  A    between atoms: C_8  and  C_10
REMARK    4  A    between atoms: C_13  and  C_15
REMARK                            x       y       z     vdW  Elec       q    Type
REMARK                         _______ _______ _______ _____ _____    ______ ____
ROOT
ATOM      1  N   UNL     1      -1.372  -0.511   0.012  0.00  0.00    -0.312 N 
ATOM      2  C   UNL     1      -1.643  -1.734  -0.485  0.00  0.00    +0.217 C 
ATOM      3  O   UNL     1      -0.749  -2.415  -0.941  0.00  0.00    -0.275 OA
ATOM      4  H   UNL     1      -2.087   0.033   0.377  0.00  0.00    +0.149 HD
ENDROOT
BRANCH   1  10
ATOM      5  C   UNL     1      -0.019   1.526   0.010  0.00  0.00    +0.025 C 
ATOM      6  C   UNL     1       1.417   2.055  -0.000  0.00  0.00    +0.033 C 
ATOM      7  C   UNL     1       2.157   1.548   1.239  0.00  0.00    +0.115 C 
ATOM      8  C   UNL     1       2.178   0.019   1.231  0.00  0.00    +0.033 C 
ATOM      9  C   UNL     1       0.742  -0.511   1.242  0.00  0.00    +0.025 C 
ATOM     10  C   UNL     1       0.002  -0.004   0.002  0.00  0.00    +0.073 C 
BRANCH   7  11
ATOM     11  O   UNL     1       3.497   2.043   1.229  0.00  0.00    -0.392 OA
ATOM     12  H   UNL     1       4.027   1.761   1.988  0.00  0.00    +0.210 HD
ENDBRANCH   7  11
ENDBRANCH   1  10
BRANCH   2  13
ATOM     13  C   UNL     1      -3.057  -2.256  -0.474  0.00  0.00    +0.090 C 
ATOM     14  C   UNL     1      -3.763  -2.410  -1.823  0.00  0.00    +0.029 C 
ATOM     15  C   UNL     1      -3.300  -3.650  -1.055  0.00  0.00    +0.115 C 
BRANCH  15  16
ATOM     16  C   UNL     1      -4.359  -4.501  -0.403  0.00  0.00    +0.360 C 
ATOM     17  O   UNL     1      -4.979  -5.316  -1.064  0.00  0.00    -0.246 OA
ATOM     18  O   UNL     1      -4.596  -4.374   0.787  0.00  0.00    -0.246 OA
ENDBRANCH  15  16
ENDBRANCH   2  13
TORSDOF 4
