REMARK  Name = ZINC09128627
REMARK  9 active torsions:
REMARK  status: ('A' for Active; 'I' for Inactive)
REMARK    1  A    between atoms: C_1  and  C_2
REMARK    2  A    between atoms: C_4  and  C_26
REMARK    3  A    between atoms: C_5  and  N_9
REMARK    4  A    between atoms: C_10  and  C_12
REMARK    5  A    between atoms: C_12  and  O_13
REMARK    6  A    between atoms: O_13  and  C_14
REMARK    7  A    between atoms: C_14  and  C_16
REMARK    8  A    between atoms: C_16  and  O_17
REMARK    9  A    between atoms: O_17  and  C_18
REMARK                            x       y       z     vdW  Elec       q    Type
REMARK                         _______ _______ _______ _____ _____    ______ ____
ROOT
ATOM      1  C   UNL     1       5.998  -2.727  -1.324  0.00  0.00    +0.328 C 
ENDROOT
BRANCH   1   3
ATOM      2  N   UNL     1       6.483  -4.815  -0.089  0.00  0.00    -0.281 N 
ATOM      3  C   UNL     1       6.133  -4.226  -1.250  0.00  0.00    +0.255 C 
ATOM      4  O   UNL     1       5.928  -4.903  -2.236  0.00  0.00    -0.272 OA
ATOM      5  H   UNL     1       6.718  -4.271   0.679  0.00  0.00    +0.155 HD
BRANCH   2  10
ATOM      6  C   UNL     1       6.581 -10.475   0.306  0.00  0.00    +0.044 C 
ATOM      7  C   UNL     1       6.554  -8.972   0.202  0.00  0.00    -0.049 A 
ATOM      8  C   UNL     1       7.710  -8.282  -0.117  0.00  0.00    +0.008 A 
ATOM      9  C   UNL     1       7.689  -6.904  -0.214  0.00  0.00    -0.028 A 
ATOM     10  C   UNL     1       6.507  -6.211   0.008  0.00  0.00    +0.055 A 
ATOM     11  C   UNL     1       5.348  -6.906   0.333  0.00  0.00    +0.063 A 
ATOM     12  C   UNL     1       5.375  -8.285   0.424  0.00  0.00    +0.025 A 
ATOM     13 CL   UNL     1       3.869  -6.045   0.619  0.00  0.00    -0.082 Cl
ATOM     14  C   UNL     1       8.949  -6.154  -0.562  0.00  0.00    +0.046 C 
ENDBRANCH   2  10
ENDBRANCH   1   3
BRANCH   1  15
ATOM     15  O   UNL     1       5.615  -2.342  -2.671  0.00  0.00    -0.453 OA
BRANCH  15  16
ATOM     16  C   UNL     1       5.452  -1.030  -2.906  0.00  0.00    +0.346 C 
ATOM     17  O   UNL     1       5.623  -0.231  -2.016  0.00  0.00    -0.247 OA
BRANCH  16  18
ATOM     18  C   UNL     1       5.055  -0.555  -4.280  0.00  0.00    +0.349 C 
BRANCH  18  19
ATOM     19  O   UNL     1       4.945   0.870  -4.277  0.00  0.00    -0.480 OA
BRANCH  19  20
ATOM     20  C   UNL     1       4.593   1.464  -5.448  0.00  0.00    +0.135 A 
ATOM     21  C   UNL     1       4.358   0.691  -6.576  0.00  0.00    +0.048 A 
ATOM     22  C   UNL     1       4.005   1.296  -7.766  0.00  0.00    +0.023 A 
ATOM     23  C   UNL     1       3.876   2.672  -7.832  0.00  0.00    +0.042 A 
ATOM     24  C   UNL     1       4.110   3.446  -6.709  0.00  0.00    +0.039 A 
ATOM     25  C   UNL     1       4.468   2.844  -5.517  0.00  0.00    +0.061 A 
ATOM     26 BR   UNL     1       4.788   3.901  -3.982  0.00  0.00    -0.046 Br
ATOM     27 CL   UNL     1       3.426   3.430  -9.328  0.00  0.00    -0.084 Cl
ENDBRANCH  19  20
ENDBRANCH  18  19
ENDBRANCH  16  18
ENDBRANCH  15  16
ENDBRANCH   1  15
TORSDOF 7
