REMARK  Name = ZINC58338636
REMARK  9 active torsions:
REMARK  status: ('A' for Active; 'I' for Inactive)
REMARK    1  A    between atoms: C_1  and  C_2
REMARK    2  A    between atoms: C_7  and  N_8
REMARK    3  A    between atoms: C_9  and  C_11
REMARK    4  A    between atoms: C_11  and  N_12
REMARK    5  A    between atoms: N_12  and  C_13
REMARK    6  A    between atoms: N_12  and  C_14
REMARK    7  A    between atoms: C_14  and  C_15
REMARK    8  A    between atoms: N_17  and  C_18
REMARK    9  A    between atoms: C_23  and  C_24
REMARK                            x       y       z     vdW  Elec       q    Type
REMARK                         _______ _______ _______ _____ _____    ______ ____
ROOT
ATOM      1  N   UNL     1      -0.243  -0.901   5.993  0.00  0.00    +0.389 N 
ATOM      2  C   UNL     1       1.029  -1.632   6.079  0.00  0.00    -0.095 C 
ATOM      3  H   UNL     1      -0.996  -1.554   5.832  0.00  0.00    -0.081 HD
ENDROOT
BRANCH   1   4
ATOM      4  C   UNL     1      -0.182   0.058   4.882  0.00  0.00    +0.019 C 
BRANCH   4   6
ATOM      5  N   UNL     1       0.010  -0.010   2.417  0.00  0.00    -0.287 N 
ATOM      6  C   UNL     1      -0.062  -0.689   3.579  0.00  0.00    +0.201 C 
ATOM      7  O   UNL     1      -0.030  -1.901   3.576  0.00  0.00    -0.278 OA
ATOM      8  H   UNL     1       0.051   0.959   2.423  0.00  0.00    +0.155 HD
BRANCH   5  15
ATOM      9  C   UNL     1      -1.297   1.167   0.181  0.00  0.00    +0.046 C 
ATOM     10  C   UNL     1      -0.599  -0.165   0.085  0.00  0.00    -0.028 A 
ATOM     11  C   UNL     1      -0.576  -0.848  -1.115  0.00  0.00    +0.020 A 
ATOM     12  C   UNL     1       0.065  -2.071  -1.204  0.00  0.00    +0.018 A 
ATOM     13  C   UNL     1       0.683  -2.614  -0.091  0.00  0.00    +0.017 A 
ATOM     14  C   UNL     1       0.664  -1.934   1.111  0.00  0.00    +0.024 A 
ATOM     15  C   UNL     1       0.027  -0.703   1.201  0.00  0.00    +0.036 A 
ATOM     16 BR   UNL     1       0.093  -3.004  -2.849  0.00  0.00    -0.050 Br
ENDBRANCH   5  15
ENDBRANCH   4   6
ENDBRANCH   1   4
BRANCH   1  17
ATOM     17  C   UNL     1      -0.480  -0.180   7.250  0.00  0.00    +0.019 C 
BRANCH  17  18
ATOM     18  C   UNL     1      -0.665  -1.170   8.371  0.00  0.00    +0.201 C 
ATOM     19  O   UNL     1      -0.605  -2.360   8.144  0.00  0.00    -0.278 OA
ATOM     20  N   UNL     1      -0.896  -0.734   9.625  0.00  0.00    -0.286 N 
ATOM     21  H   UNL     1      -1.009   0.214   9.795  0.00  0.00    +0.155 HD
BRANCH  20  22
ATOM     22  C   UNL     1      -0.974  -1.645  10.676  0.00  0.00    +0.045 A 
ATOM     23  C   UNL     1      -1.534  -2.899  10.472  0.00  0.00    +0.024 A 
ATOM     24  C   UNL     1      -1.611  -3.800  11.515  0.00  0.00    +0.002 A 
ATOM     25  C   UNL     1      -1.131  -3.462  12.770  0.00  0.00    +0.001 A 
ATOM     26  C   UNL     1      -0.572  -2.222  12.991  0.00  0.00    +0.015 A 
ATOM     27  C   UNL     1      -0.482  -1.302  11.944  0.00  0.00    +0.058 A 
BRANCH  27  28
ATOM     28  C   UNL     1       0.120   0.025  12.171  0.00  0.00    +0.243 C 
ATOM     29  O   UNL     1       0.112   0.857  11.285  0.00  0.00    -0.270 OA
ATOM     30  N   UNL     1       0.681   0.315  13.362  0.00  0.00    -0.325 N 
ATOM     31  H   UNL     1       0.688  -0.348  14.070  0.00  0.00    +0.145 HD
ATOM     32  H   UNL     1       1.077   1.188  13.512  0.00  0.00    +0.145 HD
ENDBRANCH  27  28
ENDBRANCH  20  22
ENDBRANCH  17  18
ENDBRANCH   1  17
TORSDOF 7
