REMARK  Name = ZINC02126772
REMARK  8 active torsions:
REMARK  status: ('A' for Active; 'I' for Inactive)
REMARK    1  A    between atoms: C_1  and  C_2
REMARK    2  A    between atoms: C_2  and  C_3
REMARK    3  A    between atoms: C_17  and  C_19
REMARK    4  A    between atoms: C_19  and  C_20
REMARK    5  A    between atoms: N_25  and  C_28
REMARK    6  A    between atoms: C_28  and  C_29
REMARK    7  A    between atoms: C_34  and  O_35
REMARK    8  A    between atoms: O_35  and  C_36
REMARK                            x       y       z     vdW  Elec       q    Type
REMARK                         _______ _______ _______ _____ _____    ______ ____
ROOT
ATOM      1  C   UNL     1       5.585   3.255   2.154  0.00  0.00    -0.026 A 
ATOM      2  C   UNL     1       6.679   2.950   1.371  0.00  0.00    +0.005 A 
ATOM      3  C   UNL     1       6.633   1.885   0.491  0.00  0.00    +0.001 A 
ATOM      4  C   UNL     1       5.482   1.121   0.393  0.00  0.00    +0.004 A 
ATOM      5  C   UNL     1       4.388   1.422   1.173  0.00  0.00    -0.027 A 
ATOM      6  C   UNL     1       4.424   2.491   2.063  0.00  0.00    +0.039 A 
ATOM      7  N   UNL     1       3.205   2.599   2.737  0.00  0.00    -0.286 N 
ATOM      8  C   UNL     1       2.327   1.653   2.354  0.00  0.00    +0.211 C 
ATOM      9  O   UNL     1       1.197   1.504   2.768  0.00  0.00    -0.277 OA
ATOM     10  C   UNL     1       3.020   0.816   1.313  0.00  0.00    +0.050 C 
ATOM     11  C   UNL     1       2.257   0.832  -0.016  0.00  0.00    +0.088 C 
ATOM     12  C   UNL     1       1.435  -0.487  -0.012  0.00  0.00    +0.073 C 
ATOM     13  C   UNL     1       1.758  -1.150   1.344  0.00  0.00    -0.049 C 
ATOM     14  C   UNL     1       0.002  -0.004   0.002  0.00  0.00    +0.224 C 
ATOM     15  O   UNL     1      -0.978  -0.718   0.006  0.00  0.00    -0.275 OA
ATOM     16  N   UNL     1      -0.016   1.334   0.009  0.00  0.00    -0.237 N 
ATOM     17  C   UNL     1       1.193   1.906   0.001  0.00  0.00    +0.225 C 
ATOM     18  O   UNL     1       1.404   3.100   0.006  0.00  0.00    -0.275 OA
ATOM     19  H   UNL     1       3.014   3.277   3.404  0.00  0.00    +0.155 HD
ATOM     20  N   UNL     1       3.064  -0.580   1.705  0.00  0.00    +0.394 N 
ATOM     21  H   UNL     1       3.220  -0.661   2.717  0.00  0.00    -0.083 HD
ATOM     22  H   UNL     1       3.816  -1.067   1.203  0.00  0.00    -0.083 HD
ENDROOT
BRANCH   1  24
ATOM     23  C   UNL     1       6.043   3.913   4.501  0.00  0.00    +0.009 C 
ATOM     24  C   UNL     1       5.646   4.417   3.111  0.00  0.00    +0.033 C 
ENDBRANCH   1  24
BRANCH  13  25
ATOM     25  C   UNL     1       1.852  -2.669   1.186  0.00  0.00    +0.080 C 
BRANCH  25  26
ATOM     26  C   UNL     1       2.046  -3.304   2.538  0.00  0.00    +0.209 C 
ATOM     27  O   UNL     1       2.104  -2.611   3.531  0.00  0.00    -0.276 OA
ATOM     28  N   UNL     1       2.155  -4.643   2.644  0.00  0.00    -0.329 N 
ATOM     29  H   UNL     1       2.109  -5.198   1.850  0.00  0.00    +0.145 HD
ATOM     30  H   UNL     1       2.280  -5.052   3.515  0.00  0.00    +0.145 HD
ENDBRANCH  25  26
ENDBRANCH  13  25
BRANCH  16  31
ATOM     31  C   UNL     1      -1.259   2.109   0.020  0.00  0.00    +0.155 C 
BRANCH  31  32
ATOM     32  C   UNL     1      -1.678   2.368   1.444  0.00  0.00    +0.012 A 
ATOM     33  C   UNL     1      -2.660   1.591   2.028  0.00  0.00    +0.009 A 
ATOM     34  C   UNL     1      -3.044   1.827   3.334  0.00  0.00    +0.001 A 
ATOM     35  C   UNL     1      -2.447   2.841   4.061  0.00  0.00    +0.004 A 
ATOM     36  C   UNL     1      -1.465   3.621   3.482  0.00  0.00    +0.046 A 
ATOM     37  C   UNL     1      -1.074   3.382   2.172  0.00  0.00    +0.125 A 
BRANCH  37  38
ATOM     38  O   UNL     1      -0.103   4.144   1.602  0.00  0.00    -0.495 OA
ATOM     39  C   UNL     1       0.474   5.171   2.411  0.00  0.00    +0.277 C 
ENDBRANCH  37  38
ENDBRANCH  31  32
ENDBRANCH  16  31
TORSDOF 6
