REMARK  Name = ZINC65639385
REMARK  9 active torsions:
REMARK  status: ('A' for Active; 'I' for Inactive)
REMARK    1  A    between atoms: C_1  and  C_2
REMARK    2  A    between atoms: C_2  and  C_3
REMARK    3  A    between atoms: C_2  and  N_4
REMARK    4  A    between atoms: C_7  and  C_9
REMARK    5  A    between atoms: C_9  and  N_10
REMARK    6  A    between atoms: C_11  and  C_13
REMARK    7  A    between atoms: N_15  and  C_16
REMARK    8  A    between atoms: C_19  and  N_22
REMARK    9  A    between atoms: C_23  and  C_25
REMARK                            x       y       z     vdW  Elec       q    Type
REMARK                         _______ _______ _______ _____ _____    ______ ____
ROOT
ATOM      1  C   UNL     1       0.545  -5.531   6.378  0.00  0.00    +0.303 C 
ATOM      2  O   UNL     1       1.095  -4.707   7.079  0.00  0.00    -0.265 OA
ATOM      3  N   UNL     1       0.166  -6.714   6.900  0.00  0.00    -0.278 N 
ATOM      4  H   UNL     1      -0.333  -7.346   6.358  0.00  0.00    +0.155 HD
ENDROOT
BRANCH   3   5
ATOM      5  C   UNL     1       0.491  -7.032   8.222  0.00  0.00    +0.034 A 
ATOM      6  C   UNL     1       0.800  -8.342   8.567  0.00  0.00    +0.025 A 
ATOM      7  C   UNL     1       1.121  -8.655   9.872  0.00  0.00    +0.025 A 
ATOM      8  C   UNL     1       1.136  -7.660  10.841  0.00  0.00    +0.034 A 
ATOM      9  C   UNL     1       0.827  -6.350  10.497  0.00  0.00    +0.025 A 
ATOM     10  C   UNL     1       0.512  -6.035   9.191  0.00  0.00    +0.025 A 
BRANCH   8  11
ATOM     11  N   UNL     1       1.462  -7.977  12.165  0.00  0.00    -0.279 N 
ATOM     12  C   UNL     1       2.382  -8.927  12.423  0.00  0.00    +0.284 C 
ATOM     13  O   UNL     1       2.869  -9.566  11.509  0.00  0.00    -0.266 OA
ATOM     14  H   UNL     1       1.025  -7.513  12.896  0.00  0.00    +0.155 HD
BRANCH  12  15
ATOM     15  C   UNL     1       2.798  -9.189  13.805  0.00  0.00    +0.189 A 
ATOM     16  C   UNL     1       3.720 -10.113  14.204  0.00  0.00    +0.054 A 
ATOM     17  C   UNL     1       3.804 -10.022  15.602  0.00  0.00    +0.042 A 
ATOM     18  C   UNL     1       2.940  -9.058  15.990  0.00  0.00    +0.196 A 
ATOM     19  O   UNL     1       2.340  -8.555  14.904  0.00  0.00    -0.458 OA
ENDBRANCH  12  15
ENDBRANCH   8  11
ENDBRANCH   3   5
BRANCH   1  21
ATOM     20  N   UNL     1       0.668  -4.051   4.415  0.00  0.00    -0.307 N 
ATOM     21  C   UNL     1       0.288  -5.234   4.937  0.00  0.00    +0.299 C 
ATOM     22  O   UNL     1      -0.262  -6.059   4.236  0.00  0.00    -0.265 OA
ATOM     23  H   UNL     1       1.107  -3.393   4.975  0.00  0.00    +0.149 HD
BRANCH  20  24
ATOM     24  C   UNL     1       0.416  -3.760   3.001  0.00  0.00    +0.106 C 
BRANCH  24  28
ATOM     25  N   UNL     1       0.669  -0.538   1.164  0.00  0.00    +0.381 N 
ATOM     26  C   UNL     1      -0.042  -0.133   2.397  0.00  0.00    -0.078 C 
ATOM     27  C   UNL     1       0.124  -1.280   3.411  0.00  0.00    -0.015 C 
ATOM     28  C   UNL     1       0.940  -2.362   2.667  0.00  0.00    -0.012 C 
ATOM     29  C   UNL     1       0.687  -2.023   1.177  0.00  0.00    -0.074 C 
ATOM     30  H   UNL     1       1.611  -0.178   1.171  0.00  0.00    -0.081 HD
BRANCH  25  32
ATOM     31  C   UNL     1      -0.061   1.480  -0.016  0.00  0.00    -0.014 C 
ATOM     32  C   UNL     1      -0.052  -0.050  -0.019  0.00  0.00    -0.075 C 
ATOM     33  C   UNL     1       0.646  -0.553  -1.285  0.00  0.00    -0.014 C 
ENDBRANCH  25  32
ENDBRANCH  24  28
ENDBRANCH  20  24
ENDBRANCH   1  21
TORSDOF 7
