REMARK  Name = ZINC63974415
REMARK  8 active torsions:
REMARK  status: ('A' for Active; 'I' for Inactive)
REMARK    1  A    between atoms: C_1  and  C_2
REMARK    2  A    between atoms: C_2  and  C_3
REMARK    3  A    between atoms: C_2  and  C_4
REMARK    4  A    between atoms: C_2  and  C_5
REMARK    5  A    between atoms: C_8  and  C_11
REMARK    6  A    between atoms: C_15  and  S_29
REMARK    7  A    between atoms: N_17  and  N_18
REMARK    8  A    between atoms: C_19  and  C_20
REMARK                            x       y       z     vdW  Elec       q    Type
REMARK                         _______ _______ _______ _____ _____    ______ ____
ROOT
ATOM      1  C   UNL     1       2.603  -1.711  -4.692  0.00  0.00    +0.206 C 
ATOM      2  N   UNL     1       1.713  -1.945  -5.853  0.00  0.00    -0.229 NA
ATOM      3  N   UNL     1       2.592  -1.798  -7.023  0.00  0.00    -0.225 NA
ATOM      4  C   UNL     1       3.493  -0.684  -6.626  0.00  0.00    +0.231 C 
ATOM      5  N   UNL     1       3.736  -0.909  -5.185  0.00  0.00    -0.205 N 
ATOM      6  H   UNL     1       0.964  -1.270  -5.876  0.00  0.00    +0.143 HD
ATOM      7  H   UNL     1       3.116  -2.644  -7.191  0.00  0.00    +0.143 HD
ENDROOT
BRANCH   1  11
ATOM      8  C   UNL     1       0.506   0.429  -1.647  0.00  0.00    -0.042 A 
ATOM      9  C   UNL     1      -0.175  -0.452  -2.467  0.00  0.00    +0.004 A 
ATOM     10  C   UNL     1       0.504  -1.144  -3.452  0.00  0.00    +0.007 A 
ATOM     11  C   UNL     1       1.863  -0.956  -3.619  0.00  0.00    -0.010 A 
ATOM     12  C   UNL     1       2.544  -0.074  -2.800  0.00  0.00    +0.007 A 
ATOM     13  C   UNL     1       1.865   0.622  -1.817  0.00  0.00    +0.004 A 
BRANCH   8  15
ATOM     14  C   UNL     1      -0.102   2.688  -0.824  0.00  0.00    +0.015 C 
ATOM     15  C   UNL     1      -0.233   1.184  -0.573  0.00  0.00    -0.013 C 
ATOM     16  C   UNL     1       0.363   0.841   0.794  0.00  0.00    +0.015 C 
ATOM     17  C   UNL     1      -1.711   0.791  -0.599  0.00  0.00    +0.015 C 
ENDBRANCH   8  15
ENDBRANCH   1  11
BRANCH   5  18
ATOM     18  N   UNL     1       4.740  -0.486  -4.495  0.00  0.00    -0.188 NA
ATOM     19  C   UNL     1       5.616   0.325  -5.040  0.00  0.00    +0.136 C 
BRANCH  19  20
ATOM     20  C   UNL     1       6.775   0.674  -4.341  0.00  0.00    +0.000 C 
ATOM     21  C   UNL     1       7.796   1.523  -4.771  0.00  0.00    +0.004 A 
ATOM     22  C   UNL     1       7.989   2.256  -5.962  0.00  0.00    +0.010 A 
ATOM     23  C   UNL     1       9.103   3.017  -6.111  0.00  0.00    +0.001 A 
ATOM     24  C   UNL     1      10.074   3.097  -5.110  0.00  0.00    +0.002 A 
ATOM     25  C   UNL     1       9.954   2.420  -3.942  0.00  0.00    +0.026 A 
ATOM     26  C   UNL     1       8.816   1.603  -3.714  0.00  0.00    +0.043 A 
ATOM     27  N   UNL     1       8.470   0.859  -2.682  0.00  0.00    -0.380 N 
ATOM     28  C   UNL     1       7.181   0.217  -2.958  0.00  0.00    +0.150 C 
ATOM     29  H   UNL     1       8.986   0.754  -1.867  0.00  0.00    +0.160 HD
ENDBRANCH  19  20
ENDBRANCH   5  18
BRANCH   4  30
ATOM     30  S   UNL     1       5.049  -0.765  -7.554  0.00  0.00    -0.138 S 
ATOM     31  H   UNL     1       4.670  -0.628  -8.837  0.00  0.00    +0.105 HD
ENDBRANCH   4  30
TORSDOF 5
