REMARK  Name = ZINC38682609
REMARK  10 active torsions:
REMARK  status: ('A' for Active; 'I' for Inactive)
REMARK    1  A    between atoms: C_1  and  S_2
REMARK    2  A    between atoms: S_2  and  C_3
REMARK    3  A    between atoms: C_6  and  C_9
REMARK    4  A    between atoms: C_14  and  O_23
REMARK    5  A    between atoms: C_18  and  N_22
REMARK    6  A    between atoms: C_19  and  C_20
REMARK    7  A    between atoms: O_23  and  C_24
REMARK    8  A    between atoms: C_24  and  C_26
REMARK    9  A    between atoms: C_26  and  C_27
REMARK   10  A    between atoms: C_26  and  C_33
REMARK                            x       y       z     vdW  Elec       q    Type
REMARK                         _______ _______ _______ _____ _____    ______ ____
ROOT
ATOM      1  C   UNL     1      -6.686  -0.661   0.830  0.00  0.00    +0.098 C 
ATOM      2  C   UNL     1      -6.815  -1.655   1.954  0.00  0.00    +0.008 A 
ATOM      3  C   UNL     1      -6.642  -1.232   3.260  0.00  0.00    +0.012 A 
ATOM      4  C   UNL     1      -6.757  -2.129   4.303  0.00  0.00    +0.047 A 
ATOM      5  C   UNL     1      -7.046  -3.462   4.043  0.00  0.00    +0.135 A 
ATOM      6  C   UNL     1      -7.220  -3.888   2.736  0.00  0.00    +0.093 A 
ATOM      7  C   UNL     1      -7.104  -2.984   1.688  0.00  0.00    +0.138 A 
ATOM      8  O   UNL     1      -7.277  -3.418   0.415  0.00  0.00    -0.441 OA
ATOM      9  C   UNL     1      -7.554  -2.537  -0.561  0.00  0.00    +0.199 C 
ATOM     10  C   UNL     1      -7.297  -1.218  -0.425  0.00  0.00    +0.098 C 
ENDROOT
BRANCH   1  14
ATOM     11  C   UNL     1      -2.550   0.172   0.144  0.00  0.00    +0.008 A 
ATOM     12  C   UNL     1      -3.417   1.197   0.507  0.00  0.00    +0.015 A 
ATOM     13  C   UNL     1      -4.752   0.924   0.728  0.00  0.00    +0.005 A 
ATOM     14  C   UNL     1      -5.228  -0.367   0.588  0.00  0.00    -0.035 A 
ATOM     15  C   UNL     1      -4.369  -1.389   0.227  0.00  0.00    +0.005 A 
ATOM     16  C   UNL     1      -3.034  -1.123  -0.001  0.00  0.00    +0.015 A 
BRANCH  11  18
ATOM     17  C   UNL     1      -0.700   2.298   0.166  0.00  0.00    +0.090 C 
ATOM     18  S   UNL     1      -0.846   0.516  -0.139  0.00  0.00    -0.129 S 
ENDBRANCH  11  18
ENDBRANCH   1  14
BRANCH   9  19
ATOM     19  N   UNL     1      -8.113  -2.992  -1.729  0.00  0.00    -0.328 N 
ATOM     20  H   UNL     1      -8.302  -3.936  -1.841  0.00  0.00    +0.145 HD
ATOM     21  H   UNL     1      -8.319  -2.368  -2.443  0.00  0.00    +0.145 HD
ENDBRANCH   9  19
BRANCH  10  22
ATOM     22  C   UNL     1      -7.616  -0.331  -1.504  0.00  0.00    +0.101 C 
ATOM     23  N   UNL     1      -7.869   0.372  -2.359  0.00  0.00    -0.191 NA
ENDBRANCH  10  22
BRANCH   5  24
ATOM     24  O   UNL     1      -7.159  -4.346   5.068  0.00  0.00    -0.425 OA
BRANCH  24  25
ATOM     25  C   UNL     1      -6.165  -5.231   5.250  0.00  0.00    +0.324 C 
ATOM     26  O   UNL     1      -5.166  -5.164   4.573  0.00  0.00    -0.249 OA
BRANCH  25  27
ATOM     27  C   UNL     1      -6.295  -6.305   6.298  0.00  0.00    +0.158 C 
BRANCH  27  28
ATOM     28  C   UNL     1      -7.494  -7.164   5.991  0.00  0.00    -0.029 A 
ATOM     29  C   UNL     1      -7.705  -7.621   4.703  0.00  0.00    +0.005 A 
ATOM     30  C   UNL     1      -8.806  -8.409   4.421  0.00  0.00    +0.000 A 
ATOM     31  C   UNL     1      -9.694  -8.741   5.427  0.00  0.00    +0.000 A 
ATOM     32  C   UNL     1      -9.482  -8.284   6.715  0.00  0.00    +0.000 A 
ATOM     33  C   UNL     1      -8.380  -7.500   6.998  0.00  0.00    +0.005 A 
ENDBRANCH  27  28
BRANCH  27  34
ATOM     34  C   UNL     1      -5.052  -7.159   6.299  0.00  0.00    -0.029 A 
ATOM     35  C   UNL     1      -4.740  -7.926   5.192  0.00  0.00    +0.005 A 
ATOM     36  C   UNL     1      -3.600  -8.708   5.193  0.00  0.00    +0.000 A 
ATOM     37  C   UNL     1      -2.774  -8.724   6.301  0.00  0.00    +0.000 A 
ATOM     38  C   UNL     1      -3.086  -7.957   7.407  0.00  0.00    +0.000 A 
ATOM     39  C   UNL     1      -4.223  -7.171   7.405  0.00  0.00    +0.005 A 
ENDBRANCH  27  34
ENDBRANCH  25  27
ENDBRANCH  24  25
ENDBRANCH   5  24
TORSDOF 9
