REMARK  Name = ZINC36558775
REMARK  14 active torsions:
REMARK  status: ('A' for Active; 'I' for Inactive)
REMARK    1  A    between atoms: C_1  and  C_2
REMARK    2  A    between atoms: C_2  and  C_3
REMARK    3  A    between atoms: C_3  and  C_4
REMARK    4  A    between atoms: C_4  and  N_5
REMARK    5  A    between atoms: C_6  and  C_8
REMARK    6  A    between atoms: C_8  and  C_10
REMARK    7  A    between atoms: C_8  and  N_19
REMARK    8  A    between atoms: C_11  and  O_18
REMARK    9  A    between atoms: C_13  and  O_17
REMARK   10  A    between atoms: C_15  and  O_16
REMARK   11  A    between atoms: N_19  and  C_20
REMARK   12  A    between atoms: C_20  and  C_21
REMARK   13  A    between atoms: C_24  and  C_26
REMARK   14  A    between atoms: C_27  and  C_29
REMARK                            x       y       z     vdW  Elec       q    Type
REMARK                         _______ _______ _______ _____ _____    ______ ____
ROOT
ATOM      1  C   UNL     1      -3.803  -4.490   0.263  0.00  0.00    +0.200 C 
ENDROOT
BRANCH   1   2
ATOM      2  C   UNL     1      -3.995  -3.967   1.663  0.00  0.00    +0.065 A 
ATOM      3  C   UNL     1      -3.427  -4.636   2.737  0.00  0.00    +0.129 A 
ATOM      4  C   UNL     1      -3.604  -4.154   4.025  0.00  0.00    +0.091 A 
ATOM      5  C   UNL     1      -4.348  -3.003   4.239  0.00  0.00    +0.124 A 
ATOM      6  C   UNL     1      -4.915  -2.334   3.165  0.00  0.00    +0.091 A 
ATOM      7  C   UNL     1      -4.734  -2.813   1.876  0.00  0.00    +0.129 A 
BRANCH   7   8
ATOM      8  O   UNL     1      -5.286  -2.155   0.823  0.00  0.00    -0.506 OA
ATOM      9  H   UNL     1      -6.179  -2.450   0.599  0.00  0.00    +0.292 HD
ENDBRANCH   7   8
BRANCH   5  10
ATOM     10  O   UNL     1      -4.522  -2.532   5.502  0.00  0.00    -0.507 OA
ATOM     11  H   UNL     1      -3.840  -1.907   5.786  0.00  0.00    +0.292 HD
ENDBRANCH   5  10
BRANCH   3  12
ATOM     12  O   UNL     1      -2.698  -5.763   2.527  0.00  0.00    -0.506 OA
ATOM     13  H   UNL     1      -1.746  -5.610   2.464  0.00  0.00    +0.292 HD
ENDBRANCH   3  12
ENDBRANCH   1   2
BRANCH   1  15
ATOM     14  N   UNL     1      -1.478  -3.663   0.082  0.00  0.00    -0.313 N 
ATOM     15  C   UNL     1      -2.333  -4.702   0.003  0.00  0.00    +0.238 C 
ATOM     16  O   UNL     1      -1.920  -5.808  -0.278  0.00  0.00    -0.273 OA
ATOM     17  H   UNL     1      -1.809  -2.779   0.306  0.00  0.00    +0.149 HD
BRANCH  14  18
ATOM     18  C   UNL     1      -0.050  -3.869  -0.171  0.00  0.00    +0.104 C 
BRANCH  18  19
ATOM     19  C   UNL     1       0.692  -2.540  -0.017  0.00  0.00    +0.018 C 
BRANCH  19  21
ATOM     20  C   UNL     1       2.925  -1.426  -0.127  0.00  0.00    +0.004 C 
ATOM     21  C   UNL     1       2.183  -2.755  -0.281  0.00  0.00    -0.002 C 
ENDBRANCH  19  21
ENDBRANCH  18  19
ENDBRANCH  14  18
ENDBRANCH   1  15
BRANCH   1  22
ATOM     22  N   UNL     1      -4.513  -5.763   0.116  0.00  0.00    -0.274 N 
ATOM     23  C   UNL     1      -4.338  -6.508  -0.994  0.00  0.00    +0.248 C 
ATOM     24  O   UNL     1      -5.022  -7.496  -1.177  0.00  0.00    -0.270 OA
BRANCH  23  25
ATOM     25  C   UNL     1      -3.314  -6.124  -1.988  0.00  0.00    +0.037 A 
ATOM     26  C   UNL     1      -2.851  -4.808  -2.044  0.00  0.00    +0.014 A 
ATOM     27  C   UNL     1      -1.895  -4.456  -2.974  0.00  0.00    +0.021 A 
ATOM     28  C   UNL     1      -1.396  -5.404  -3.851  0.00  0.00    +0.041 A 
ATOM     29  C   UNL     1      -1.851  -6.711  -3.800  0.00  0.00    +0.021 A 
ATOM     30  C   UNL     1      -2.803  -7.077  -2.871  0.00  0.00    +0.014 A 
ATOM     31 CL   UNL     1      -0.194  -4.953  -5.019  0.00  0.00    -0.084 Cl
ENDBRANCH  23  25
BRANCH  22  32
ATOM     32  C   UNL     1      -5.414  -6.226   1.174  0.00  0.00    +0.183 C 
BRANCH  32  33
ATOM     33  C   UNL     1      -6.832  -5.859   0.823  0.00  0.00    +0.122 A 
ATOM     34  C   UNL     1      -7.725  -6.660   0.214  0.00  0.00    +0.046 A 
ATOM     35  C   UNL     1      -8.920  -5.916   0.082  0.00  0.00    +0.045 A 
ATOM     36  C   UNL     1      -8.686  -4.704   0.617  0.00  0.00    +0.102 A 
ATOM     37  O   UNL     1      -7.422  -4.677   1.070  0.00  0.00    -0.463 OA
ATOM     38  C   UNL     1      -9.676  -3.571   0.701  0.00  0.00    +0.086 C 
ENDBRANCH  32  33
ENDBRANCH  22  32
ENDBRANCH   1  22
TORSDOF 12
