REMARK  Name = ZINC67542538
REMARK  7 active torsions:
REMARK  status: ('A' for Active; 'I' for Inactive)
REMARK    1  A    between atoms: C_4  and  N_11
REMARK    2  A    between atoms: C_5  and  C_7
REMARK    3  A    between atoms: C_7  and  C_8
REMARK    4  A    between atoms: N_14  and  C_15
REMARK    5  A    between atoms: C_15  and  C_16
REMARK    6  A    between atoms: N_21  and  C_22
REMARK    7  A    between atoms: C_22  and  C_23
REMARK                            x       y       z     vdW  Elec       q    Type
REMARK                         _______ _______ _______ _____ _____    ______ ____
ROOT
ATOM      1  N   UNL     1       3.622  -0.651  -0.036  0.00  0.00    -0.269 N 
ATOM      2  C   UNL     1       4.776   0.037  -0.146  0.00  0.00    +0.304 C 
ATOM      3  O   UNL     1       4.762   1.253  -0.139  0.00  0.00    -0.253 OA
ATOM      4  N   UNL     1       5.945  -0.623  -0.263  0.00  0.00    -0.301 N 
ATOM      5  H   UNL     1       3.638  -1.619   0.024  0.00  0.00    +0.156 HD
ATOM      6  H   UNL     1       5.956  -1.593  -0.268  0.00  0.00    +0.150 HD
ENDROOT
BRANCH   1  10
ATOM      7  C   UNL     1      -0.015   1.381   0.042  0.00  0.00    +0.000 A 
ATOM      8  C   UNL     1       1.104   1.945   0.627  0.00  0.00    +0.002 A 
ATOM      9  C   UNL     1       2.311   1.274   0.603  0.00  0.00    +0.023 A 
ATOM     10  C   UNL     1       2.400   0.031  -0.010  0.00  0.00    +0.038 A 
ATOM     11  C   UNL     1       1.275  -0.533  -0.597  0.00  0.00    -0.017 A 
ATOM     12  C   UNL     1       0.071   0.144  -0.570  0.00  0.00    +0.006 A 
BRANCH  11  13
ATOM     13  C   UNL     1       1.368  -1.881  -1.264  0.00  0.00    +0.132 C 
BRANCH  13  14
ATOM     14  C   UNL     1       1.195  -2.965  -0.231  0.00  0.00    +0.215 C 
ATOM     15  O   UNL     1       1.014  -2.671   0.931  0.00  0.00    -0.276 OA
ATOM     16  N   UNL     1       1.241  -4.260  -0.600  0.00  0.00    -0.329 N 
ATOM     17  H   UNL     1       1.386  -4.495  -1.530  0.00  0.00    +0.145 HD
ATOM     18  H   UNL     1       1.130  -4.958   0.064  0.00  0.00    +0.145 HD
ENDBRANCH  13  14
ENDBRANCH  11  13
ENDBRANCH   1  10
BRANCH   4  19
ATOM     19  C   UNL     1       7.199   0.125  -0.382  0.00  0.00    +0.090 C 
BRANCH  19  20
ATOM     20  C   UNL     1       8.368  -0.856  -0.499  0.00  0.00    -0.051 C 
ATOM     21  C   UNL     1       9.672  -0.085  -0.794  0.00  0.00    -0.016 C 
ATOM     22  C   UNL     1      10.408  -1.013  -1.796  0.00  0.00    -0.020 C 
ATOM     23  C   UNL     1       9.226  -1.590  -2.614  0.00  0.00    -0.078 C 
ATOM     24  N   UNL     1       8.137  -1.778  -1.627  0.00  0.00    +0.383 N 
ATOM     25  H   UNL     1       7.248  -1.573  -2.057  0.00  0.00    -0.081 HD
BRANCH  24  26
ATOM     26  C   UNL     1       8.141  -3.164  -1.140  0.00  0.00    -0.075 C 
BRANCH  26  27
ATOM     27  C   UNL     1       7.779  -4.108  -2.288  0.00  0.00    -0.028 C 
ATOM     28  C   UNL     1       6.340  -3.840  -2.734  0.00  0.00    +0.002 C 
ATOM     29  C   UNL     1       5.977  -4.784  -3.882  0.00  0.00    +0.000 C 
ATOM     30  C   UNL     1       6.102  -6.234  -3.409  0.00  0.00    +0.000 C 
ATOM     31  C   UNL     1       7.541  -6.502  -2.962  0.00  0.00    +0.000 C 
ATOM     32  C   UNL     1       7.903  -5.558  -1.814  0.00  0.00    +0.002 C 
ENDBRANCH  26  27
ENDBRANCH  24  26
ENDBRANCH  19  20
ENDBRANCH   4  19
TORSDOF 7
