REMARK  Name = ZINC54104547
REMARK  13 active torsions:
REMARK  status: ('A' for Active; 'I' for Inactive)
REMARK    1  A    between atoms: C_1  and  C_2
REMARK    2  A    between atoms: C_2  and  C_3
REMARK    3  A    between atoms: C_2  and  N_4
REMARK    4  A    between atoms: N_4  and  C_5
REMARK    5  A    between atoms: N_4  and  C_22
REMARK    6  A    between atoms: C_5  and  C_6
REMARK    7  A    between atoms: C_6  and  N_7
REMARK    8  A    between atoms: N_10  and  C_11
REMARK    9  A    between atoms: C_11  and  C_12
REMARK   10  A    between atoms: C_15  and  S_18
REMARK   11  A    between atoms: S_18  and  N_21
REMARK   12  A    between atoms: C_22  and  C_23
REMARK   13  A    between atoms: C_22  and  C_24
REMARK                            x       y       z     vdW  Elec       q    Type
REMARK                         _______ _______ _______ _____ _____    ______ ____
ROOT
ATOM      1  N   UNL     1      -3.042   2.023  -2.231  0.00  0.00    -0.301 N 
ATOM      2  C   UNL     1      -3.288   3.337  -2.405  0.00  0.00    +0.300 C 
ATOM      3  O   UNL     1      -2.849   4.148  -1.613  0.00  0.00    -0.253 OA
ATOM      4  N   UNL     1      -4.021   3.751  -3.458  0.00  0.00    -0.295 N 
ATOM      5  H   UNL     1      -3.392   1.376  -2.863  0.00  0.00    +0.150 HD
ATOM      6  H   UNL     1      -4.372   3.104  -4.090  0.00  0.00    +0.151 HD
ENDROOT
BRANCH   1   7
ATOM      7  C   UNL     1      -2.245   1.573  -1.087  0.00  0.00    +0.087 C 
BRANCH   7   8
ATOM      8  C   UNL     1      -2.116   0.048  -1.124  0.00  0.00    -0.059 C 
BRANCH   8   9
ATOM      9  N   UNL     1      -1.448  -0.416   0.099  0.00  0.00    +0.384 N 
ATOM     10  H   UNL     1      -1.932  -0.052   0.905  0.00  0.00    -0.081 HD
BRANCH   9  12
ATOM     11  C   UNL     1       0.438   0.208  -1.333  0.00  0.00    -0.014 C 
ATOM     12  C   UNL     1      -0.057   0.057   0.107  0.00  0.00    -0.074 C 
ATOM     13  C   UNL     1       0.017   1.410   0.817  0.00  0.00    -0.014 C 
ENDBRANCH   9  12
BRANCH   9  14
ATOM     14  C   UNL     1      -1.466  -1.885   0.139  0.00  0.00    -0.074 C 
ATOM     15  C   UNL     1      -0.882  -2.366   1.469  0.00  0.00    -0.014 C 
ATOM     16  C   UNL     1      -2.907  -2.381   0.005  0.00  0.00    -0.014 C 
ENDBRANCH   9  14
ENDBRANCH   8   9
ENDBRANCH   7   8
ENDBRANCH   1   7
BRANCH   4  17
ATOM     17  C   UNL     1      -4.289   5.179  -3.647  0.00  0.00    +0.141 C 
BRANCH  17  18
ATOM     18  C   UNL     1      -5.123   5.374  -4.887  0.00  0.00    -0.030 A 
ATOM     19  C   UNL     1      -4.509   5.557  -6.111  0.00  0.00    +0.007 A 
ATOM     20  C   UNL     1      -5.274   5.736  -7.248  0.00  0.00    +0.029 A 
ATOM     21  C   UNL     1      -6.654   5.730  -7.161  0.00  0.00    +0.105 A 
ATOM     22  C   UNL     1      -7.268   5.546  -5.937  0.00  0.00    +0.029 A 
ATOM     23  C   UNL     1      -6.503   5.363  -4.800  0.00  0.00    +0.007 A 
BRANCH  21  24
ATOM     24  S   UNL     1      -7.629   5.959  -8.611  0.00  0.00    +0.056 S 
ATOM     25  O   UNL     1      -8.888   6.457  -8.179  0.00  0.00    -0.153 OA
ATOM     26  O   UNL     1      -6.814   6.655  -9.543  0.00  0.00    -0.153 OA
BRANCH  24  27
ATOM     27  N   UNL     1      -7.909   4.459  -9.255  0.00  0.00    -0.204 NA
ATOM     28  H   UNL     1      -8.724   4.289  -9.752  0.00  0.00    +0.144 HD
ATOM     29  H   UNL     1      -7.258   3.751  -9.134  0.00  0.00    +0.144 HD
ENDBRANCH  24  27
ENDBRANCH  21  24
ENDBRANCH  17  18
ENDBRANCH   4  17
TORSDOF 9
