REMARK  Name = ZINC02268632
REMARK  9 active torsions:
REMARK  status: ('A' for Active; 'I' for Inactive)
REMARK    1  A    between atoms: C_1  and  C_2
REMARK    2  A    between atoms: C_2  and  C_3
REMARK    3  A    between atoms: C_3  and  C_4
REMARK    4  A    between atoms: C_4  and  C_5
REMARK    5  A    between atoms: C_5  and  C_6
REMARK    6  A    between atoms: C_6  and  C_7
REMARK    7  A    between atoms: C_11  and  C_26
REMARK    8  A    between atoms: N_13  and  C_14
REMARK    9  A    between atoms: C_24  and  O_25
REMARK                            x       y       z     vdW  Elec       q    Type
REMARK                         _______ _______ _______ _____ _____    ______ ____
ROOT
ATOM      1  C   UNL     1       1.016  -4.698   4.274  0.00  0.00    -0.005 A 
ATOM      2  C   UNL     1       0.659  -5.275   5.458  0.00  0.00    +0.018 A 
ATOM      3  C   UNL     1       1.647  -5.648   6.380  0.00  0.00    +0.019 A 
ATOM      4  C   UNL     1       1.287  -6.215   7.629  0.00  0.00    +0.030 A 
ATOM      5  C   UNL     1       2.280  -6.381   8.584  0.00  0.00    +0.097 A 
ATOM      6  C   UNL     1       3.639  -5.922   8.237  0.00  0.00    +0.212 A 
ATOM      7  N   UNL     1       4.498  -5.571   9.170  0.00  0.00    -0.325 N 
ATOM      8  O   UNL     1       3.971  -5.873   6.921  0.00  0.00    -0.438 OA
ATOM      9  C   UNL     1       3.007  -5.461   6.061  0.00  0.00    +0.141 A 
ATOM     10  C   UNL     1       3.352  -4.868   4.859  0.00  0.00    +0.092 A 
ATOM     11  C   UNL     1       2.359  -4.490   3.966  0.00  0.00    +0.124 A 
ATOM     12  H   UNL     1       4.216  -5.525  10.097  0.00  0.00    +0.169 HD
ENDROOT
BRANCH   7  13
ATOM     13  C   UNL     1       5.789  -5.270   8.832  0.00  0.00    +0.042 A 
ATOM     14  C   UNL     1       6.489  -6.086   7.940  0.00  0.00    +0.027 A 
ATOM     15  C   UNL     1       7.790  -5.777   7.604  0.00  0.00    +0.017 A 
ATOM     16  C   UNL     1       8.403  -4.661   8.147  0.00  0.00    +0.018 A 
ATOM     17  C   UNL     1       7.715  -3.848   9.032  0.00  0.00    +0.017 A 
ATOM     18  C   UNL     1       6.411  -4.142   9.373  0.00  0.00    +0.027 A 
ATOM     19 BR   UNL     1      10.187  -4.245   7.681  0.00  0.00    -0.050 Br
ENDBRANCH   7  13
BRANCH   5  20
ATOM     20  C   UNL     1       1.989  -6.991   9.892  0.00  0.00    +0.247 C 
ATOM     21  O   UNL     1       2.896  -7.237  10.664  0.00  0.00    -0.270 OA
ATOM     22  N   UNL     1       0.717  -7.277  10.234  0.00  0.00    -0.325 N 
ATOM     23  H   UNL     1       0.001  -7.148   9.592  0.00  0.00    +0.145 HD
ATOM     24  H   UNL     1       0.517  -7.613  11.122  0.00  0.00    +0.145 HD
ENDBRANCH   5  20
BRANCH  11  25
ATOM     25  O   UNL     1       2.699  -3.909   2.788  0.00  0.00    -0.506 OA
ATOM     26  H   UNL     1       2.761  -2.945   2.829  0.00  0.00    +0.292 HD
ENDBRANCH  11  25
BRANCH   1  27
ATOM     27  C   UNL     1      -0.049  -4.290   3.290  0.00  0.00    +0.039 C 
BRANCH  27  28
ATOM     28  C   UNL     1      -0.294  -2.783   3.400  0.00  0.00    +0.005 C 
BRANCH  28  29
ATOM     29  C   UNL     1      -1.376  -2.368   2.401  0.00  0.00    +0.000 C 
BRANCH  29  30
ATOM     30  C   UNL     1      -1.621  -0.862   2.511  0.00  0.00    -0.000 C 
BRANCH  30  32
ATOM     31  C   UNL     1      -2.948   1.059   1.622  0.00  0.00    +0.004 C 
ATOM     32  C   UNL     1      -2.703  -0.447   1.511  0.00  0.00    -0.003 C 
ENDBRANCH  30  32
ENDBRANCH  29  30
ENDBRANCH  28  29
ENDBRANCH  27  28
ENDBRANCH   1  27
TORSDOF 8
