REMARK  Name = ZINC63982313
REMARK  4 active torsions:
REMARK  status: ('A' for Active; 'I' for Inactive)
REMARK    1  A    between atoms: C_1  and  N_2
REMARK    2  A    between atoms: N_11  and  C_12
REMARK    3  A    between atoms: C_12  and  C_14
REMARK    4  A    between atoms: C_19  and  C_21
REMARK                            x       y       z     vdW  Elec       q    Type
REMARK                         _______ _______ _______ _____ _____    ______ ____
ROOT
ATOM      1  C   UNL     1      -0.017   1.461   0.032  0.00  0.00    +0.152 C 
ATOM      2  N   UNL     1       0.002  -0.003   0.017  0.00  0.00    -0.315 N 
ATOM      3  C   UNL     1      -1.114  -0.834   0.020  0.00  0.00    +0.068 A 
ATOM      4  C   UNL     1      -2.480  -0.584   0.037  0.00  0.00    +0.029 A 
ATOM      5  C   UNL     1      -3.371  -1.638   0.035  0.00  0.00    +0.022 A 
ATOM      6  C   UNL     1      -2.909  -2.944   0.018  0.00  0.00    +0.043 A 
ATOM      7  C   UNL     1      -1.552  -3.203   0.001  0.00  0.00    +0.047 A 
ATOM      8  C   UNL     1      -0.648  -2.150   0.002  0.00  0.00    +0.067 A 
ATOM      9  N   UNL     1       0.742  -2.092  -0.012  0.00  0.00    -0.326 N 
ATOM     10  C   UNL     1       1.114  -0.785  -0.008  0.00  0.00    +0.201 A 
ATOM     11  N   UNL     1       2.368  -0.341  -0.023  0.00  0.00    -0.145 NA
ATOM     12 CL   UNL     1      -4.040  -4.262   0.017  0.00  0.00    -0.083 Cl
ATOM     13  H   UNL     1       1.342  -2.853  -0.025  0.00  0.00    +0.169 HD
ENDROOT
BRANCH  11  14
ATOM     14  C   UNL     1       3.378  -1.200   0.062  0.00  0.00    +0.260 C 
ATOM     15  O   UNL     1       3.161  -2.396   0.058  0.00  0.00    -0.272 OA
BRANCH  14  16
ATOM     16  C   UNL     1       4.793  -0.691   0.164  0.00  0.00    +0.164 C 
ATOM     17  C   UNL     1       4.962   0.136   1.456  0.00  0.00    +0.033 C 
ATOM     18  C   UNL     1       5.574  -0.888   2.447  0.00  0.00    +0.021 C 
ATOM     19  C   UNL     1       6.481  -1.724   1.510  0.00  0.00    +0.108 C 
ATOM     20  N   UNL     1       5.727  -1.824   0.247  0.00  0.00    -0.290 N 
ATOM     21  C   UNL     1       5.870  -2.793  -0.678  0.00  0.00    +0.219 C 
ATOM     22  O   UNL     1       5.193  -2.775  -1.685  0.00  0.00    -0.275 OA
BRANCH  21  23
ATOM     23  C   UNL     1       6.871  -3.900  -0.463  0.00  0.00    +0.075 C 
ATOM     24  C   UNL     1       8.096  -3.932  -1.378  0.00  0.00    +0.013 C 
ATOM     25  C   UNL     1       6.986  -4.970  -1.550  0.00  0.00    +0.013 C 
ENDBRANCH  21  23
ENDBRANCH  14  16
ENDBRANCH  11  14
TORSDOF 3
