REMARK  Name = ZINC58988373
REMARK  9 active torsions:
REMARK  status: ('A' for Active; 'I' for Inactive)
REMARK    1  A    between atoms: C_1  and  C_2
REMARK    2  A    between atoms: C_10  and  C_35
REMARK    3  A    between atoms: C_11  and  C_12
REMARK    4  A    between atoms: C_12  and  C_13
REMARK    5  A    between atoms: N_15  and  C_16
REMARK    6  A    between atoms: C_18  and  N_23
REMARK    7  A    between atoms: C_24  and  C_26
REMARK    8  A    between atoms: C_26  and  N_27
REMARK    9  A    between atoms: C_32  and  C_34
REMARK                            x       y       z     vdW  Elec       q    Type
REMARK                         _______ _______ _______ _____ _____    ______ ____
ROOT
ATOM      1  C   UNL     1      -2.977   1.129   4.452  0.00  0.00    +0.071 A 
ATOM      2  C   UNL     1      -3.999   0.654   3.643  0.00  0.00    +0.049 A 
ATOM      3  C   UNL     1      -5.321   0.914   3.975  0.00  0.00    +0.035 A 
ATOM      4  C   UNL     1      -5.618   1.647   5.116  0.00  0.00    +0.026 A 
ATOM      5  C   UNL     1      -4.599   2.119   5.922  0.00  0.00    +0.042 A 
ATOM      6  C   UNL     1      -3.281   1.858   5.597  0.00  0.00    +0.145 A 
ATOM      7  F   UNL     1      -2.287   2.315   6.389  0.00  0.00    -0.204 F 
ENDROOT
BRANCH   1  10
ATOM      8  C   UNL     1      -1.332  -0.202   3.362  0.00  0.00    +0.222 C 
ATOM      9  O   UNL     1      -2.195  -0.996   3.053  0.00  0.00    -0.275 OA
ATOM     10  N   UNL     1      -1.642   0.869   4.120  0.00  0.00    -0.283 N 
ATOM     11  H   UNL     1      -0.940   1.459   4.435  0.00  0.00    +0.155 HD
BRANCH   8  12
ATOM     12  C   UNL     1       0.087  -0.413   2.900  0.00  0.00    +0.133 C 
BRANCH  12  23
ATOM     13  C   UNL     1      -0.314  -0.308   0.035  0.00  0.00    +0.045 C 
ATOM     14  C   UNL     1      -0.025  -1.617   0.724  0.00  0.00    -0.036 A 
ATOM     15  C   UNL     1       0.061  -2.816  -0.008  0.00  0.00    +0.002 A 
ATOM     16  C   UNL     1      -0.117  -2.837  -1.401  0.00  0.00    +0.010 A 
ATOM     17  C   UNL     1      -0.025  -4.017  -2.074  0.00  0.00    +0.001 A 
ATOM     18  C   UNL     1       0.244  -5.206  -1.398  0.00  0.00    +0.002 A 
ATOM     19  C   UNL     1       0.421  -5.222  -0.049  0.00  0.00    +0.026 A 
ATOM     20  C   UNL     1       0.334  -4.024   0.681  0.00  0.00    +0.047 A 
ATOM     21  N   UNL     1       0.505  -4.009   2.006  0.00  0.00    -0.358 N 
ATOM     22  C   UNL     1       0.426  -2.894   2.692  0.00  0.00    +0.017 A 
ATOM     23  C   UNL     1       0.165  -1.672   2.075  0.00  0.00    -0.016 A 
ATOM     24  C   UNL     1       0.626  -2.935   4.185  0.00  0.00    +0.063 C 
ATOM     25  H   UNL     1       0.692  -4.840   2.471  0.00  0.00    +0.166 HD
ENDBRANCH  12  23
ENDBRANCH   8  12
ENDBRANCH   1  10
BRANCH   3  26
ATOM     26  N   UNL     1      -6.355   0.437   3.160  0.00  0.00    -0.287 N 
ATOM     27  C   UNL     1      -7.475   1.168   2.995  0.00  0.00    +0.201 C 
ATOM     28  O   UNL     1      -7.625   2.197   3.619  0.00  0.00    -0.278 OA
ATOM     29  H   UNL     1      -6.265  -0.420   2.714  0.00  0.00    +0.155 HD
BRANCH  27  30
ATOM     30  C   UNL     1      -8.541   0.707   2.034  0.00  0.00    +0.019 C 
BRANCH  30  31
ATOM     31  N   UNL     1      -9.651   1.670   2.036  0.00  0.00    +0.387 N 
ATOM     32  C   UNL     1      -9.179   2.959   1.516  0.00  0.00    -0.078 C 
ATOM     33  C   UNL     1     -10.309   3.988   1.591  0.00  0.00    -0.019 C 
ATOM     34  C   UNL     1     -11.493   3.499   0.752  0.00  0.00    -0.003 C 
ATOM     35  C   UNL     1     -11.929   2.120   1.256  0.00  0.00    -0.016 C 
ATOM     36  C   UNL     1     -10.739   1.161   1.193  0.00  0.00    -0.071 C 
ATOM     37  C   UNL     1     -11.170  -0.219   1.695  0.00  0.00    -0.013 C 
ATOM     38  H   UNL     1      -9.987   1.792   2.979  0.00  0.00    -0.081 HD
ENDBRANCH  30  31
ENDBRANCH  27  30
ENDBRANCH   3  26
TORSDOF 6
