REMARK  Name = ZINC38546255
REMARK  9 active torsions:
REMARK  status: ('A' for Active; 'I' for Inactive)
REMARK    1  A    between atoms: C_1  and  C_2
REMARK    2  A    between atoms: C_4  and  C_15
REMARK    3  A    between atoms: C_5  and  N_7
REMARK    4  A    between atoms: C_8  and  C_10
REMARK    5  A    between atoms: C_15  and  C_17
REMARK    6  A    between atoms: C_15  and  N_25
REMARK    7  A    between atoms: C_20  and  S_23
REMARK    8  A    between atoms: S_23  and  C_24
REMARK    9  A    between atoms: C_28  and  C_31
REMARK                            x       y       z     vdW  Elec       q    Type
REMARK                         _______ _______ _______ _____ _____    ______ ____
ROOT
ATOM      1  C   UNL     1      -1.917  -3.223  -0.007  0.00  0.00    -0.004 C 
ENDROOT
BRANCH   1   2
ATOM      2  N   UNL     1      -3.115  -2.599  -0.584  0.00  0.00    +0.387 N 
ATOM      3  C   UNL     1      -2.829  -2.172  -1.958  0.00  0.00    -0.077 C 
ATOM      4  C   UNL     1      -4.048  -1.449  -2.536  0.00  0.00    -0.015 C 
ATOM      5  C   UNL     1      -5.247  -2.402  -2.535  0.00  0.00    -0.018 C 
ATOM      6  C   UNL     1      -5.490  -2.900  -1.108  0.00  0.00    -0.015 C 
ATOM      7  C   UNL     1      -4.217  -3.569  -0.583  0.00  0.00    -0.077 C 
ATOM      8  C   UNL     1      -6.488  -1.662  -3.038  0.00  0.00    +0.007 C 
ATOM      9  H   UNL     1      -3.374  -1.796  -0.031  0.00  0.00    -0.080 HD
ENDBRANCH   1   2
BRANCH   1  13
ATOM     10  C   UNL     1      -0.018   1.503   0.010  0.00  0.00    +0.051 C 
ATOM     11  C   UNL     1       0.002  -0.004   0.002  0.00  0.00    -0.011 A 
ATOM     12  C   UNL     1      -1.040  -0.870   0.002  0.00  0.00    +0.015 A 
ATOM     13  C   UNL     1      -0.784  -2.229  -0.007  0.00  0.00    -0.028 A 
ATOM     14  C   UNL     1       0.511  -2.653  -0.015  0.00  0.00    +0.074 A 
ATOM     15  S   UNL     1       1.405  -1.108  -0.018  0.00  0.00    -0.078 S 
BRANCH  14  16
ATOM     16  N   UNL     1       1.010  -3.958  -0.024  0.00  0.00    -0.273 N 
ATOM     17  C   UNL     1       2.341  -4.170  -0.031  0.00  0.00    +0.284 C 
ATOM     18  O   UNL     1       3.108  -3.225  -0.029  0.00  0.00    -0.266 OA
ATOM     19  H   UNL     1       0.398  -4.710  -0.025  0.00  0.00    +0.156 HD
BRANCH  17  20
ATOM     20  C   UNL     1       2.864  -5.540  -0.040  0.00  0.00    +0.189 A 
ATOM     21  C   UNL     1       4.182  -5.895  -0.042  0.00  0.00    +0.054 A 
ATOM     22  C   UNL     1       4.222  -7.298  -0.052  0.00  0.00    +0.042 A 
ATOM     23  C   UNL     1       2.943  -7.732  -0.055  0.00  0.00    +0.196 A 
ATOM     24  O   UNL     1       2.127  -6.670  -0.043  0.00  0.00    -0.458 OA
ENDBRANCH  17  20
ENDBRANCH  14  16
ENDBRANCH   1  13
BRANCH   1  25
ATOM     25  C   UNL     1      -2.206  -3.655   1.408  0.00  0.00    -0.057 A 
ATOM     26  C   UNL     1      -2.967  -2.847   2.233  0.00  0.00    +0.003 A 
ATOM     27  C   UNL     1      -3.234  -3.239   3.530  0.00  0.00    +0.015 A 
ATOM     28  C   UNL     1      -2.738  -4.447   4.005  0.00  0.00    +0.008 A 
ATOM     29  C   UNL     1      -1.974  -5.256   3.173  0.00  0.00    +0.015 A 
ATOM     30  C   UNL     1      -1.716  -4.860   1.875  0.00  0.00    +0.003 A 
BRANCH  28  31
ATOM     31  S   UNL     1      -3.076  -4.951   5.660  0.00  0.00    -0.129 S 
ATOM     32  C   UNL     1      -2.238  -6.553   5.810  0.00  0.00    +0.090 C 
ENDBRANCH  28  31
ENDBRANCH   1  25
TORSDOF 6
