REMARK  Name = ZINC50462979
REMARK  6 active torsions:
REMARK  status: ('A' for Active; 'I' for Inactive)
REMARK    1  A    between atoms: C_1  and  N_2
REMARK    2  A    between atoms: N_2  and  C_3
REMARK    3  A    between atoms: C_4  and  C_6
REMARK    4  A    between atoms: C_6  and  N_7
REMARK    5  A    between atoms: C_14  and  C_16
REMARK    6  A    between atoms: C_19  and  N_21
REMARK                            x       y       z     vdW  Elec       q    Type
REMARK                         _______ _______ _______ _____ _____    ______ ____
ROOT
ATOM      1  N   UNL     1       0.014  -2.667  -2.559  0.00  0.00    +0.386 N 
ATOM      2  C   UNL     1      -0.216  -4.110  -2.549  0.00  0.00    -0.077 C 
ATOM      3  C   UNL     1      -0.924  -4.512  -3.824  0.00  0.00    +0.000 C 
ATOM      4  C   UNL     1       0.116  -4.940  -4.875  0.00  0.00    +0.106 C 
ATOM      5  N   UNL     1       1.302  -4.061  -4.837  0.00  0.00    -0.303 N 
ATOM      6  C   UNL     1       1.199  -2.626  -4.678  0.00  0.00    +0.089 C 
ATOM      7  C   UNL     1       1.218  -2.260  -3.176  0.00  0.00    -0.059 C 
ATOM      8  C   UNL     1       2.525  -4.616  -4.953  0.00  0.00    +0.217 C 
ATOM      9  O   UNL     1       2.643  -5.822  -4.992  0.00  0.00    -0.275 OA
ATOM     10  H   UNL     1      -0.755  -2.228  -3.042  0.00  0.00    -0.081 HD
ENDROOT
BRANCH   8  11
ATOM     11  C   UNL     1       3.747  -3.737  -5.033  0.00  0.00    +0.059 C 
ATOM     12  C   UNL     1       4.768  -3.841  -3.899  0.00  0.00    -0.005 C 
ATOM     13  C   UNL     1       5.094  -4.420  -5.278  0.00  0.00    -0.063 C 
BRANCH  13  14
ATOM     14  N   UNL     1       6.079  -3.703  -6.099  0.00  0.00    +0.380 N 
ATOM     15  H   UNL     1       6.302  -2.821  -5.663  0.00  0.00    -0.090 HD
ATOM     16  H   UNL     1       6.916  -4.259  -6.182  0.00  0.00    -0.090 HD
ATOM     17  H   UNL     1       5.694  -3.536  -7.017  0.00  0.00    -0.090 HD
ENDBRANCH  13  14
ENDBRANCH   8  11
BRANCH   1  18
ATOM     18  C   UNL     1       0.021  -2.189  -1.170  0.00  0.00    +0.019 C 
BRANCH  18  22
ATOM     19  C   UNL     1      -0.017   1.446   0.028  0.00  0.00    +0.131 C 
ATOM     20  N   UNL     1       0.003  -0.019   0.016  0.00  0.00    -0.309 N 
ATOM     21  C   UNL     1       0.024  -0.762   1.278  0.00  0.00    +0.131 C 
ATOM     22  C   UNL     1       0.001  -0.682  -1.157  0.00  0.00    +0.199 C 
ATOM     23  O   UNL     1      -0.017  -0.067  -2.202  0.00  0.00    -0.278 OA
ENDBRANCH  18  22
ENDBRANCH   1  18
TORSDOF 4
