REMARK  Name = ZINC12372413
REMARK  7 active torsions:
REMARK  status: ('A' for Active; 'I' for Inactive)
REMARK    1  A    between atoms: C_1  and  C_2
REMARK    2  A    between atoms: C_3  and  C_22
REMARK    3  A    between atoms: C_5  and  C_7
REMARK    4  A    between atoms: C_9  and  C_20
REMARK    5  A    between atoms: C_10  and  N_19
REMARK    6  A    between atoms: C_22  and  S_23
REMARK    7  A    between atoms: S_23  and  C_24
REMARK                            x       y       z     vdW  Elec       q    Type
REMARK                         _______ _______ _______ _____ _____    ______ ____
ROOT
ATOM      1  C   UNL     1      -4.245   2.233  -2.543  0.00  0.00    +0.052 C 
ATOM      2  C   UNL     1      -4.679   2.514  -1.128  0.00  0.00    -0.009 A 
ATOM      3  C   UNL     1      -4.097   2.132   0.035  0.00  0.00    -0.027 A 
ATOM      4  C   UNL     1      -4.681   2.504   1.231  0.00  0.00    +0.017 A 
ATOM      5  C   UNL     1      -5.814   3.249   1.206  0.00  0.00    +0.003 A 
ATOM      6  S   UNL     1      -6.094   3.434  -0.547  0.00  0.00    -0.097 S 
ENDROOT
BRANCH   5   7
ATOM      7  C   UNL     1      -6.628   3.777   2.358  0.00  0.00    +0.108 C 
ATOM      8  C   UNL     1      -8.022   3.219   2.281  0.00  0.00    +0.099 C 
ATOM      9  C   UNL     1      -9.039   3.978   1.807  0.00  0.00    +0.198 C 
ATOM     10  O   UNL     1      -8.835   5.238   1.392  0.00  0.00    -0.445 OA
ATOM     11  C   UNL     1      -7.759   5.920   1.826  0.00  0.00    +0.115 C 
ATOM     12  C   UNL     1      -6.669   5.284   2.294  0.00  0.00    +0.046 C 
ATOM     13  C   UNL     1      -5.538   5.998   2.734  0.00  0.00    +0.163 C 
ATOM     14  O   UNL     1      -4.578   5.389   3.161  0.00  0.00    -0.292 OA
ATOM     15  C   UNL     1      -5.496   7.501   2.684  0.00  0.00    +0.080 C 
ATOM     16  C   UNL     1      -6.403   7.984   1.547  0.00  0.00    +0.016 C 
ATOM     17  C   UNL     1      -7.809   7.429   1.779  0.00  0.00    +0.075 C 
BRANCH   9  18
ATOM     18  N   UNL     1     -10.304   3.448   1.750  0.00  0.00    -0.328 N 
ATOM     19  H   UNL     1     -10.463   2.538   2.047  0.00  0.00    +0.145 HD
ATOM     20  H   UNL     1     -11.040   3.983   1.412  0.00  0.00    +0.145 HD
ENDBRANCH   9  18
BRANCH   8  21
ATOM     21  C   UNL     1      -8.276   1.876   2.710  0.00  0.00    +0.101 C 
ATOM     22  N   UNL     1      -8.478   0.811   3.051  0.00  0.00    -0.191 NA
ENDBRANCH   8  21
ENDBRANCH   5   7
BRANCH   3  23
ATOM     23  C   UNL     1      -2.834   1.310   0.024  0.00  0.00    +0.112 C 
BRANCH  23  24
ATOM     24  S   UNL     1      -1.394   2.413   0.022  0.00  0.00    -0.092 S 
BRANCH  24  25
ATOM     25  C   UNL     1      -0.016   1.315   0.009  0.00  0.00    +0.160 A 
ATOM     26  N   UNL     1       0.002  -0.004   0.002  0.00  0.00    -0.133 NA
ATOM     27  N   UNL     1       1.205  -0.672  -0.013  0.00  0.00    -0.125 NA
ATOM     28  C   UNL     1       2.334   0.009  -0.020  0.00  0.00    +0.180 A 
ATOM     29  S   UNL     1       1.730   1.690  -0.005  0.00  0.00    -0.025 S 
ATOM     30  N   UNL     1       3.643  -0.457  -0.035  0.00  0.00    -0.336 N 
ATOM     31  H   UNL     1       3.819  -1.411  -0.041  0.00  0.00    +0.144 HD
ATOM     32  H   UNL     1       4.382   0.172  -0.039  0.00  0.00    +0.144 HD
ENDBRANCH  24  25
ENDBRANCH  23  24
ENDBRANCH   3  23
TORSDOF 6
