REMARK  Name = ZINC49929747
REMARK  7 active torsions:
REMARK  status: ('A' for Active; 'I' for Inactive)
REMARK    1  A    between atoms: C_1  and  N_2
REMARK    2  A    between atoms: N_2  and  C_3
REMARK    3  A    between atoms: N_2  and  C_4
REMARK    4  A    between atoms: C_4  and  C_10
REMARK    5  A    between atoms: C_10  and  N_11
REMARK    6  A    between atoms: C_12  and  C_14
REMARK    7  A    between atoms: C_14  and  N_15
REMARK                            x       y       z     vdW  Elec       q    Type
REMARK                         _______ _______ _______ _____ _____    ______ ____
ROOT
ATOM      1  N   UNL     1       0.046   1.308  -2.681  0.00  0.00    -0.315 N 
ATOM      2  C   UNL     1      -0.417   1.901  -3.799  0.00  0.00    +0.231 C 
ATOM      3  O   UNL     1      -0.828   1.226  -4.718  0.00  0.00    -0.274 OA
ATOM      4  H   UNL     1       0.374   1.849  -1.946  0.00  0.00    +0.149 HD
ENDROOT
BRANCH   1   5
ATOM      5  C   UNL     1       0.054  -0.153  -2.576  0.00  0.00    +0.092 C 
BRANCH   5   6
ATOM      6  C   UNL     1       0.754  -0.568  -1.281  0.00  0.00    -0.050 C 
ATOM      7  C   UNL     1       0.877  -2.092  -1.233  0.00  0.00    -0.010 C 
ATOM      8  C   UNL     1      -0.518  -2.718  -1.282  0.00  0.00    -0.001 C 
ATOM      9  C   UNL     1      -1.336  -2.235  -0.082  0.00  0.00    -0.000 C 
ATOM     10  C   UNL     1      -1.459  -0.711  -0.130  0.00  0.00    -0.001 C 
ATOM     11  C   UNL     1      -0.064  -0.084  -0.081  0.00  0.00    -0.010 C 
BRANCH   6  13
ATOM     12  C   UNL     1       2.780  -0.393  -0.007  0.00  0.00    -0.096 C 
ATOM     13  N   UNL     1       2.094   0.033  -1.234  0.00  0.00    +0.381 N 
ATOM     14  C   UNL     1       2.867  -0.403  -2.405  0.00  0.00    -0.096 C 
ATOM     15  H   UNL     1       2.011   1.039  -1.241  0.00  0.00    -0.082 HD
ENDBRANCH   6  13
ENDBRANCH   5   6
ENDBRANCH   1   5
BRANCH   2  16
ATOM     16  C   UNL     1      -0.425   3.405  -3.907  0.00  0.00    +0.213 C 
BRANCH  16  17
ATOM     17  N   UNL     1      -0.972   3.798  -5.207  0.00  0.00    -0.215 N 
ATOM     18  C   UNL     1      -0.230   3.970  -6.321  0.00  0.00    +0.247 C 
ATOM     19  O   UNL     1       0.970   3.835  -6.432  0.00  0.00    -0.273 OA
ATOM     20  C   UNL     1      -1.210   4.368  -7.401  0.00  0.00    +0.113 C 
ATOM     21  C   UNL     1      -1.205   3.341  -8.528  0.00  0.00    +0.035 C 
ATOM     22  C   UNL     1      -2.224   3.746  -9.596  0.00  0.00    +0.003 C 
ATOM     23  C   UNL     1      -1.866   5.130 -10.142  0.00  0.00    +0.000 C 
ATOM     24  C   UNL     1      -1.898   6.153  -9.005  0.00  0.00    +0.003 C 
ATOM     25  C   UNL     1      -0.877   5.757  -7.935  0.00  0.00    +0.035 C 
ATOM     26  N   UNL     1      -2.510   4.377  -6.718  0.00  0.00    -0.285 N 
ATOM     27  C   UNL     1      -2.271   4.026  -5.440  0.00  0.00    +0.310 C 
ATOM     28  O   UNL     1      -3.136   3.929  -4.593  0.00  0.00    -0.252 OA
ATOM     29  H   UNL     1      -3.370   4.590  -7.111  0.00  0.00    +0.151 HD
ENDBRANCH  16  17
ENDBRANCH   2  16
TORSDOF 5
