REMARK  Name = ZINC66233661
REMARK  11 active torsions:
REMARK  status: ('A' for Active; 'I' for Inactive)
REMARK    1  A    between atoms: C_1  and  C_2
REMARK    2  A    between atoms: C_2  and  C_3
REMARK    3  A    between atoms: C_3  and  C_5
REMARK    4  A    between atoms: C_3  and  N_6
REMARK    5  A    between atoms: C_7  and  C_9
REMARK    6  A    between atoms: C_9  and  C_11
REMARK    7  A    between atoms: C_9  and  N_12
REMARK    8  A    between atoms: N_15  and  C_16
REMARK    9  A    between atoms: C_16  and  C_17
REMARK   10  A    between atoms: C_17  and  C_18
REMARK   11  A    between atoms: N_22  and  C_23
REMARK                            x       y       z     vdW  Elec       q    Type
REMARK                         _______ _______ _______ _____ _____    ______ ____
ROOT
ATOM      1  N   UNL     1       4.871   0.514   3.584  0.00  0.00    -0.288 N 
ATOM      2  C   UNL     1       6.197   0.366   3.776  0.00  0.00    +0.300 C 
ATOM      3  O   UNL     1       6.931   0.176   2.826  0.00  0.00    -0.253 OA
ATOM      4  N   UNL     1       6.709   0.429   5.021  0.00  0.00    -0.299 N 
ATOM      5  H   UNL     1       4.285   0.665   4.343  0.00  0.00    +0.151 HD
ATOM      6  H   UNL     1       6.123   0.581   5.779  0.00  0.00    +0.150 HD
ENDROOT
BRANCH   1   7
ATOM      7  C   UNL     1       4.314   0.445   2.231  0.00  0.00    +0.157 C 
ATOM      8  C   UNL     1       4.415   1.821   1.568  0.00  0.00    +0.038 C 
BRANCH   7  10
ATOM      9  N   UNL     1       2.148  -0.104   1.172  0.00  0.00    -0.311 N 
ATOM     10  C   UNL     1       2.869   0.026   2.303  0.00  0.00    +0.233 C 
ATOM     11  O   UNL     1       2.354  -0.193   3.379  0.00  0.00    -0.274 OA
ATOM     12  H   UNL     1       2.559   0.072   0.311  0.00  0.00    +0.149 HD
BRANCH   9  13
ATOM     13  C   UNL     1       0.742  -0.511   1.242  0.00  0.00    +0.070 C 
ATOM     14  C   UNL     1       0.655  -2.037   1.299  0.00  0.00    +0.028 C 
BRANCH  13  16
ATOM     15  C   UNL     1      -0.019   1.526   0.010  0.00  0.00    +0.005 C 
ATOM     16  C   UNL     1       0.002  -0.004   0.002  0.00  0.00    +0.018 C 
ENDBRANCH  13  16
ENDBRANCH   9  13
ENDBRANCH   7  10
ENDBRANCH   1   7
BRANCH   4  17
ATOM     17  C   UNL     1       8.150   0.269   5.230  0.00  0.00    +0.113 C 
BRANCH  17  18
ATOM     18  C   UNL     1       8.465   0.382   6.723  0.00  0.00    +0.091 C 
BRANCH  18  19
ATOM     19  C   UNL     1       9.948   0.217   6.937  0.00  0.00    +0.088 A 
ATOM     20  N   UNL     1      10.838   1.167   6.853  0.00  0.00    -0.350 N 
ATOM     21  C   UNL     1      12.053   0.657   7.105  0.00  0.00    +0.101 A 
ATOM     22  C   UNL     1      11.910  -0.658   7.355  0.00  0.00    +0.104 A 
ATOM     23  N   UNL     1      10.573  -0.937   7.254  0.00  0.00    -0.339 N 
ATOM     24  C   UNL     1       9.941  -2.244   7.449  0.00  0.00    +0.150 C 
ATOM     25  H   UNL     1      10.652   2.095   6.642  0.00  0.00    +0.166 HD
ENDBRANCH  18  19
ENDBRANCH  17  18
ENDBRANCH   4  17
TORSDOF 7
