REMARK  Name = ZINC15450014
REMARK  10 active torsions:
REMARK  status: ('A' for Active; 'I' for Inactive)
REMARK    1  A    between atoms: C_1  and  N_55
REMARK    2  A    between atoms: C_2  and  C_3
REMARK    3  A    between atoms: C_2  and  N_55
REMARK    4  A    between atoms: N_5  and  C_6
REMARK    5  A    between atoms: C_11  and  C_12
REMARK    6  A    between atoms: N_14  and  C_15
REMARK    7  A    between atoms: C_15  and  C_16
REMARK    8  A    between atoms: C_21  and  C_22
REMARK    9  A    between atoms: C_21  and  N_55
REMARK   10  A    between atoms: N_24  and  C_25
REMARK                            x       y       z     vdW  Elec       q    Type
REMARK                         _______ _______ _______ _____ _____    ______ ____
ROOT
ATOM      1  C   UNL     1       4.810   0.898  -0.293  0.00  0.00    +0.201 C 
ATOM      2  O   UNL     1       4.382  -0.237  -0.281  0.00  0.00    -0.278 OA
ATOM      3  N   UNL     1       6.126   1.120  -0.478  0.00  0.00    -0.286 N 
ATOM      4  H   UNL     1       6.480   2.021  -0.411  0.00  0.00    +0.155 HD
ENDROOT
BRANCH   3   5
ATOM      5  C   UNL     1       6.978   0.057  -0.765  0.00  0.00    +0.045 A 
ATOM      6  C   UNL     1       6.533  -1.004  -1.542  0.00  0.00    +0.024 A 
ATOM      7  C   UNL     1       7.381  -2.054  -1.830  0.00  0.00    +0.002 A 
ATOM      8  C   UNL     1       8.676  -2.065  -1.339  0.00  0.00    +0.001 A 
ATOM      9  C   UNL     1       9.134  -1.023  -0.561  0.00  0.00    +0.015 A 
ATOM     10  C   UNL     1       8.289   0.050  -0.266  0.00  0.00    +0.058 A 
BRANCH  10  11
ATOM     11  C   UNL     1       8.773   1.168   0.566  0.00  0.00    +0.246 C 
ATOM     12  O   UNL     1       8.066   2.141   0.747  0.00  0.00    -0.270 OA
ATOM     13  N   UNL     1       9.997   1.110   1.127  0.00  0.00    -0.304 N 
ATOM     14  H   UNL     1      10.560   0.334   0.983  0.00  0.00    +0.149 HD
BRANCH  13  15
ATOM     15  C   UNL     1      10.477   2.221   1.953  0.00  0.00    +0.179 C 
BRANCH  15  16
ATOM     16  C   UNL     1      11.863   1.910   2.456  0.00  0.00    +0.122 A 
ATOM     17  C   UNL     1      13.014   2.222   1.833  0.00  0.00    +0.046 A 
ATOM     18  C   UNL     1      14.065   1.746   2.652  0.00  0.00    +0.041 A 
ATOM     19  C   UNL     1      13.493   1.173   3.725  0.00  0.00    +0.195 A 
ATOM     20  O   UNL     1      12.159   1.280   3.604  0.00  0.00    -0.466 OA
ENDBRANCH  15  16
ENDBRANCH  13  15
ENDBRANCH  10  11
ENDBRANCH   3   5
BRANCH   1  21
ATOM     21  C   UNL     1       3.869   2.060  -0.103  0.00  0.00    +0.019 C 
BRANCH  21  23
ATOM     22  C   UNL     1       2.378   0.799   1.330  0.00  0.00    -0.095 C 
ATOM     23  N   UNL     1       2.495   1.539   0.056  0.00  0.00    +0.389 N 
ATOM     24  H   UNL     1       2.288   0.900  -0.721  0.00  0.00    -0.081 HD
BRANCH  23  25
ATOM     25  C   UNL     1       1.526   2.655   0.029  0.00  0.00    +0.019 C 
BRANCH  25  26
ATOM     26  C   UNL     1       0.131   2.087  -0.030  0.00  0.00    +0.201 C 
ATOM     27  O   UNL     1      -0.034   0.885  -0.032  0.00  0.00    -0.278 OA
ATOM     28  N   UNL     1      -0.932   2.914  -0.087  0.00  0.00    -0.286 N 
ATOM     29  H   UNL     1      -0.804   3.873  -0.017  0.00  0.00    +0.155 HD
BRANCH  28  30
ATOM     30  C   UNL     1      -2.219   2.388  -0.246  0.00  0.00    +0.047 A 
ATOM     31  C   UNL     1      -2.553   1.174   0.340  0.00  0.00    +0.024 A 
ATOM     32  C   UNL     1      -3.825   0.661   0.185  0.00  0.00    +0.002 A 
ATOM     33  C   UNL     1      -4.765   1.349  -0.560  0.00  0.00    +0.001 A 
ATOM     34  C   UNL     1      -4.435   2.556  -1.149  0.00  0.00    +0.017 A 
ATOM     35  C   UNL     1      -3.165   3.078  -0.994  0.00  0.00    +0.039 A 
ATOM     36 BR   UNL     1      -2.714   4.728  -1.800  0.00  0.00    -0.048 Br
ENDBRANCH  28  30
ENDBRANCH  25  26
ENDBRANCH  23  25
ENDBRANCH  21  23
ENDBRANCH   1  21
TORSDOF 9
