REMARK  Name = ZINC01481306
REMARK  8 active torsions:
REMARK  status: ('A' for Active; 'I' for Inactive)
REMARK    1  A    between atoms: C_1  and  C_2
REMARK    2  A    between atoms: C_7  and  N_30
REMARK    3  A    between atoms: C_8  and  C_13
REMARK    4  A    between atoms: N_17  and  C_21
REMARK    5  A    between atoms: C_21  and  C_22
REMARK    6  A    between atoms: C_25  and  O_28
REMARK    7  A    between atoms: O_28  and  C_29
REMARK    8  A    between atoms: N_33  and  C_36
REMARK                            x       y       z     vdW  Elec       q    Type
REMARK                         _______ _______ _______ _____ _____    ______ ____
ROOT
ATOM      1  C   UNL     1      -4.757   4.303  10.299  0.00  0.00    +0.045 C 
ATOM      2  C   UNL     1      -4.012   3.840   9.073  0.00  0.00    -0.034 A 
ATOM      3  C   UNL     1      -3.762   2.474   8.882  0.00  0.00    +0.008 A 
ATOM      4  C   UNL     1      -3.088   2.063   7.770  0.00  0.00    +0.047 A 
ATOM      5  C   UNL     1      -2.654   3.015   6.831  0.00  0.00    +0.142 A 
ATOM      6  N   UNL     1      -1.996   2.604   5.747  0.00  0.00    -0.214 NA
ATOM      7  C   UNL     1      -1.564   3.458   4.830  0.00  0.00    +0.136 A 
ATOM      8  C   UNL     1      -1.797   4.843   5.002  0.00  0.00    +0.081 A 
ATOM      9  C   UNL     1      -2.502   5.268   6.153  0.00  0.00    +0.267 A 
ATOM     10  O   UNL     1      -2.730   6.450   6.339  0.00  0.00    -0.267 OA
ATOM     11  N   UNL     1      -2.912   4.341   7.046  0.00  0.00    -0.267 N 
ATOM     12  C   UNL     1      -3.587   4.741   8.160  0.00  0.00    +0.099 A 
ENDROOT
BRANCH   8  13
ATOM     13  C   UNL     1      -1.343   5.779   4.043  0.00  0.00    +0.037 C 
ATOM     14  C   UNL     1      -0.370   6.677   4.375  0.00  0.00    +0.077 C 
ATOM     15  C   UNL     1       0.398   6.781   5.569  0.00  0.00    +0.259 C 
ATOM     16  O   UNL     1       0.236   5.997   6.488  0.00  0.00    -0.269 OA
ATOM     17  N   UNL     1       1.292   7.751   5.653  0.00  0.00    -0.251 N 
ATOM     18  C   UNL     1       1.472   8.620   4.633  0.00  0.00    +0.121 C 
ATOM     19  S   UNL     1       2.560   9.937   4.524  0.00  0.00    -0.027 S 
ATOM     20  S   UNL     1       0.291   8.039   3.425  0.00  0.00    -0.061 S 
BRANCH  17  21
ATOM     21  C   UNL     1       2.100   7.886   6.867  0.00  0.00    +0.150 C 
BRANCH  21  22
ATOM     22  C   UNL     1       3.361   7.073   6.725  0.00  0.00    -0.029 A 
ATOM     23  C   UNL     1       3.383   5.755   7.141  0.00  0.00    +0.009 A 
ATOM     24  C   UNL     1       4.536   5.006   7.006  0.00  0.00    +0.046 A 
ATOM     25  C   UNL     1       5.676   5.582   6.463  0.00  0.00    +0.120 A 
ATOM     26  C   UNL     1       5.653   6.907   6.052  0.00  0.00    +0.046 A 
ATOM     27  C   UNL     1       4.495   7.649   6.184  0.00  0.00    +0.009 A 
BRANCH  25  28
ATOM     28  O   UNL     1       6.813   4.849   6.334  0.00  0.00    -0.495 OA
ATOM     29  C   UNL     1       6.764   3.492   6.778  0.00  0.00    +0.277 C 
ENDBRANCH  25  28
ENDBRANCH  21  22
ENDBRANCH  17  21
ENDBRANCH   8  13
BRANCH   7  30
ATOM     30  N   UNL     1      -0.887   3.000   3.720  0.00  0.00    -0.318 N 
ATOM     31  C   UNL     1       0.540   2.812   4.015  0.00  0.00    +0.088 C 
ATOM     32  C   UNL     1       1.269   2.381   2.740  0.00  0.00    -0.060 C 
ATOM     33  N   UNL     1       0.670   1.138   2.232  0.00  0.00    +0.380 N 
ATOM     34  C   UNL     1      -0.758   1.327   1.938  0.00  0.00    -0.060 C 
ATOM     35  C   UNL     1      -1.486   1.758   3.213  0.00  0.00    +0.088 C 
ATOM     36  C   UNL     1       1.391   0.651   1.049  0.00  0.00    -0.096 C 
ATOM     37  H   UNL     1       0.756   0.374   3.018  0.00  0.00    -0.082 HD
ENDBRANCH   7  30
TORSDOF 5
