REMARK  Name = ZINC08989101
REMARK  7 active torsions:
REMARK  status: ('A' for Active; 'I' for Inactive)
REMARK    1  A    between atoms: C_4  and  C_7
REMARK    2  A    between atoms: C_7  and  N_8
REMARK    3  A    between atoms: C_9  and  C_28
REMARK    4  A    between atoms: C_12  and  S_13
REMARK    5  A    between atoms: S_13  and  C_14
REMARK    6  A    between atoms: C_14  and  C_15
REMARK    7  A    between atoms: N_20  and  C_21
REMARK                            x       y       z     vdW  Elec       q    Type
REMARK                         _______ _______ _______ _____ _____    ______ ____
ROOT
ATOM      1  N   UNL     1      -2.573  -1.525  -0.336  0.00  0.00    -0.298 N 
ATOM      2  C   UNL     1      -3.933  -1.316  -0.308  0.00  0.00    +0.167 A 
ATOM      3  N   UNL     1      -4.125  -0.019  -0.373  0.00  0.00    -0.128 NA
ATOM      4  N   UNL     1      -2.994   0.589  -0.433  0.00  0.00    -0.122 NA
ATOM      5  C   UNL     1      -2.011  -0.283  -0.420  0.00  0.00    +0.193 A 
ENDROOT
BRANCH   2   6
ATOM      6  C   UNL     1      -4.980  -2.356  -0.221  0.00  0.00    +0.038 A 
ATOM      7  C   UNL     1      -4.942  -3.462  -1.072  0.00  0.00    +0.013 A 
ATOM      8  C   UNL     1      -5.922  -4.429  -0.986  0.00  0.00    +0.001 A 
ATOM      9  C   UNL     1      -6.941  -4.306  -0.057  0.00  0.00    +0.001 A 
ATOM     10  C   UNL     1      -6.985  -3.213   0.790  0.00  0.00    +0.021 A 
ATOM     11  C   UNL     1      -6.007  -2.240   0.717  0.00  0.00    +0.052 A 
ATOM     12 CL   UNL     1      -6.060  -0.873   1.786  0.00  0.00    -0.083 Cl
ENDBRANCH   2   6
BRANCH   1  13
ATOM     13  C   UNL     1      -1.874  -2.812  -0.286  0.00  0.00    +0.161 C 
BRANCH  13  17
ATOM     14  C   UNL     1      -1.131  -3.871   3.785  0.00  0.00    +0.000 A 
ATOM     15  C   UNL     1      -2.293  -4.288   3.163  0.00  0.00    +0.000 A 
ATOM     16  C   UNL     1      -2.534  -3.945   1.846  0.00  0.00    +0.005 A 
ATOM     17  C   UNL     1      -1.612  -3.185   1.150  0.00  0.00    -0.028 A 
ATOM     18  C   UNL     1      -0.447  -2.773   1.770  0.00  0.00    +0.005 A 
ATOM     19  C   UNL     1      -0.209  -3.112   3.089  0.00  0.00    +0.000 A 
ENDBRANCH  13  17
ENDBRANCH   1  13
BRANCH   5  20
ATOM     20  S   UNL     1      -0.289   0.082  -0.490  0.00  0.00    -0.077 S 
BRANCH  20  21
ATOM     21  C   UNL     1      -0.354   1.889  -0.586  0.00  0.00    +0.173 C 
BRANCH  21  22
ATOM     22  C   UNL     1       1.047   2.439  -0.656  0.00  0.00    +0.231 C 
ATOM     23  O   UNL     1       1.996   1.685  -0.643  0.00  0.00    -0.274 OA
ATOM     24  N   UNL     1       1.245   3.770  -0.734  0.00  0.00    -0.239 N 
ATOM     25  C   UNL     1       2.498   4.262  -0.797  0.00  0.00    +0.310 C 
ATOM     26  O   UNL     1       3.449   3.506  -0.784  0.00  0.00    -0.252 OA
ATOM     27  N   UNL     1       2.696   5.593  -0.875  0.00  0.00    -0.267 N 
ATOM     28  H   UNL     1       0.486   4.373  -0.745  0.00  0.00    +0.159 HD
ATOM     29  H   UNL     1       1.937   6.193  -0.951  0.00  0.00    +0.156 HD
BRANCH  27  30
ATOM     30  C   UNL     1       3.997   6.110  -0.847  0.00  0.00    +0.070 A 
ATOM     31  C   UNL     1       5.058   5.351  -1.320  0.00  0.00    +0.026 A 
ATOM     32  C   UNL     1       6.340   5.865  -1.296  0.00  0.00    +0.002 A 
ATOM     33  C   UNL     1       6.570   7.132  -0.791  0.00  0.00    +0.003 A 
ATOM     34  C   UNL     1       5.517   7.890  -0.313  0.00  0.00    +0.040 A 
ATOM     35  C   UNL     1       4.230   7.383  -0.339  0.00  0.00    +0.145 A 
ATOM     36  F   UNL     1       3.201   8.124   0.128  0.00  0.00    -0.204 F 
ENDBRANCH  27  30
ENDBRANCH  21  22
ENDBRANCH  20  21
ENDBRANCH   5  20
TORSDOF 7
