REMARK  Name = ZINC45072147
REMARK  11 active torsions:
REMARK  status: ('A' for Active; 'I' for Inactive)
REMARK    1  A    between atoms: C_1  and  C_2
REMARK    2  A    between atoms: C_2  and  C_3
REMARK    3  A    between atoms: C_3  and  N_4
REMARK    4  A    between atoms: C_5  and  C_7
REMARK    5  A    between atoms: C_7  and  C_8
REMARK    6  A    between atoms: C_8  and  N_9
REMARK    7  A    between atoms: N_9  and  C_10
REMARK    8  A    between atoms: C_10  and  C_12
REMARK    9  A    between atoms: C_10  and  C_14
REMARK   10  A    between atoms: C_12  and  C_13
REMARK   11  A    between atoms: C_19  and  O_20
REMARK                            x       y       z     vdW  Elec       q    Type
REMARK                         _______ _______ _______ _____ _____    ______ ____
ROOT
ATOM      1  N   UNL     1      -3.972  -6.172   0.120  0.00  0.00    +0.384 N 
ATOM      2  H   UNL     1      -3.477  -6.547  -0.675  0.00  0.00    -0.085 HD
ATOM      3  H   UNL     1      -3.496  -6.440   0.969  0.00  0.00    -0.085 HD
ENDROOT
BRANCH   1   4
ATOM      4  C   UNL     1      -4.015  -4.707   0.025  0.00  0.00    -0.073 C 
BRANCH   4   5
ATOM      5  C   UNL     1      -2.595  -4.147   0.132  0.00  0.00    +0.077 C 
BRANCH   5   7
ATOM      6  N   UNL     1      -1.499  -1.930   0.104  0.00  0.00    -0.315 N 
ATOM      7  C   UNL     1      -2.640  -2.644   0.034  0.00  0.00    +0.211 C 
ATOM      8  O   UNL     1      -3.702  -2.076  -0.107  0.00  0.00    -0.276 OA
ATOM      9  H   UNL     1      -0.649  -2.384   0.217  0.00  0.00    +0.149 HD
BRANCH   6  10
ATOM     10  C   UNL     1      -1.542  -0.469   0.009  0.00  0.00    +0.104 C 
BRANCH  10  12
ATOM     11  C   UNL     1      -0.167   1.618   0.017  0.00  0.00    +0.005 C 
ATOM     12  C   UNL     1      -0.122   0.092   0.116  0.00  0.00    +0.015 C 
ENDBRANCH  10  12
ENDBRANCH   6  10
ENDBRANCH   5   7
ENDBRANCH   4   5
ENDBRANCH   1   4
BRANCH   1  13
ATOM     13  C   UNL     1      -5.342  -6.702   0.139  0.00  0.00    -0.038 C 
BRANCH  13  14
ATOM     14  C   UNL     1      -6.007  -6.422  -1.184  0.00  0.00    -0.019 A 
ATOM     15  C   UNL     1      -5.240  -6.255  -2.321  0.00  0.00    +0.020 A 
ATOM     16  C   UNL     1      -5.851  -5.997  -3.535  0.00  0.00    +0.018 A 
ATOM     17  C   UNL     1      -7.229  -5.907  -3.614  0.00  0.00    +0.019 A 
ATOM     18  C   UNL     1      -7.999  -6.074  -2.479  0.00  0.00    +0.047 A 
ATOM     19  C   UNL     1      -7.389  -6.337  -1.261  0.00  0.00    +0.119 A 
ATOM     20 BR   UNL     1      -4.799  -5.768  -5.091  0.00  0.00    -0.050 Br
BRANCH  19  21
ATOM     21  O   UNL     1      -8.145  -6.507  -0.144  0.00  0.00    -0.507 OA
ATOM     22  H   UNL     1      -8.320  -5.688   0.340  0.00  0.00    +0.292 HD
ENDBRANCH  19  21
ENDBRANCH  13  14
BRANCH  13  23
ATOM     23  C   UNL     1      -5.301  -8.213   0.380  0.00  0.00    -0.015 C 
ATOM     24  C   UNL     1      -4.747  -8.492   1.778  0.00  0.00    +0.002 C 
ENDBRANCH  13  23
ENDBRANCH   1  13
TORSDOF 9
