REMARK  Name = ZINC13548659
REMARK  7 active torsions:
REMARK  status: ('A' for Active; 'I' for Inactive)
REMARK    1  A    between atoms: C_1  and  C_2
REMARK    2  A    between atoms: C_8  and  C_28
REMARK    3  A    between atoms: C_11  and  C_12
REMARK    4  A    between atoms: C_11  and  O_23
REMARK    5  A    between atoms: C_13  and  C_22
REMARK    6  A    between atoms: C_14  and  C_19
REMARK    7  A    between atoms: C_17  and  C_18
REMARK                            x       y       z     vdW  Elec       q    Type
REMARK                         _______ _______ _______ _____ _____    ______ ____
ROOT
ATOM      1  C   UNL     1      -0.018   1.503   0.010  0.00  0.00    +0.089 C 
ATOM      2  C   UNL     1       0.002  -0.004   0.002  0.00  0.00    +0.136 A 
ATOM      3  C   UNL     1      -1.071  -0.827   0.013  0.00  0.00    +0.091 A 
ATOM      4  C   UNL     1      -0.505  -2.129  -0.004  0.00  0.00    +0.172 A 
ATOM      5  N   UNL     1       0.792  -1.963  -0.015  0.00  0.00    -0.063 NA
ATOM      6  O   UNL     1       1.088  -0.790  -0.012  0.00  0.00    -0.358 OA
ATOM      7  N   UNL     1      -1.193  -3.341  -0.003  0.00  0.00    -0.235 N 
ATOM      8  C   UNL     1      -2.648  -3.495  -0.093  0.00  0.00    +0.151 C 
ATOM      9  C   UNL     1      -2.928  -4.979  -0.056  0.00  0.00    +0.072 C 
ATOM     10  C   UNL     1      -4.167  -5.593  -0.114  0.00  0.00    +0.135 C 
ATOM     11  C   UNL     1      -1.682  -5.610   0.050  0.00  0.00    +0.249 C 
ATOM     12  O   UNL     1      -1.492  -6.812   0.108  0.00  0.00    -0.282 OA
ATOM     13  C   UNL     1      -0.630  -4.559   0.075  0.00  0.00    +0.293 C 
ATOM     14  O   UNL     1       0.563  -4.770   0.156  0.00  0.00    -0.266 OA
ENDROOT
BRANCH  10  15
ATOM     15  C   UNL     1      -4.264  -7.058  -0.066  0.00  0.00    +0.041 A 
ATOM     16  C   UNL     1      -4.772  -7.832   1.004  0.00  0.00    -0.010 A 
ATOM     17  C   UNL     1      -4.680  -9.139   0.629  0.00  0.00    +0.105 A 
ATOM     18  N   UNL     1      -4.124  -9.192  -0.631  0.00  0.00    -0.354 N 
ATOM     19  H   UNL     1      -3.943 -10.003  -1.132  0.00  0.00    +0.166 HD
ATOM     20  C   UNL     1      -3.871  -7.944  -1.056  0.00  0.00    +0.024 A 
ATOM     21  C   UNL     1      -3.262  -7.570  -2.383  0.00  0.00    +0.064 C 
ATOM     22  C   UNL     1      -5.316  -7.311   2.309  0.00  0.00    +0.047 C 
BRANCH  17  23
ATOM     23  C   UNL     1      -5.096 -10.296   1.433  0.00  0.00    +0.258 C 
ATOM     24  O   UNL     1      -5.578 -10.127   2.538  0.00  0.00    -0.269 OA
ATOM     25  N   UNL     1      -4.945 -11.544   0.947  0.00  0.00    -0.324 N 
ATOM     26  H   UNL     1      -4.562 -11.678   0.067  0.00  0.00    +0.145 HD
ATOM     27  H   UNL     1      -5.220 -12.307   1.478  0.00  0.00    +0.145 HD
ENDBRANCH  17  23
ENDBRANCH  10  15
BRANCH   8  28
ATOM     28  C   UNL     1      -3.150  -2.907  -1.387  0.00  0.00    -0.019 A 
ATOM     29  C   UNL     1      -2.422  -3.046  -2.559  0.00  0.00    +0.025 A 
ATOM     30  C   UNL     1      -2.916  -2.498  -3.728  0.00  0.00    +0.111 A 
ATOM     31  N   UNL     1      -4.059  -1.841  -3.733  0.00  0.00    -0.263 NA
ATOM     32  C   UNL     1      -4.775  -1.685  -2.637  0.00  0.00    +0.111 A 
ATOM     33  C   UNL     1      -4.347  -2.210  -1.433  0.00  0.00    +0.025 A 
ENDBRANCH   8  28
BRANCH  10  34
ATOM     34  O   UNL     1      -5.286  -4.845  -0.216  0.00  0.00    -0.506 OA
ATOM     35  H   UNL     1      -6.086  -5.444  -0.246  0.00  0.00    +0.292 HD
ENDBRANCH  10  34
TORSDOF 4
