REMARK  Name = ZINC09373620
REMARK  12 active torsions:
REMARK  status: ('A' for Active; 'I' for Inactive)
REMARK    1  A    between atoms: C_1  and  C_2
REMARK    2  A    between atoms: C_6  and  C_33
REMARK    3  A    between atoms: C_7  and  N_8
REMARK    4  A    between atoms: N_8  and  C_9
REMARK    5  A    between atoms: C_9  and  N_11
REMARK    6  A    between atoms: N_11  and  N_12
REMARK    7  A    between atoms: C_13  and  C_15
REMARK    8  A    between atoms: C_19  and  S_21
REMARK    9  A    between atoms: S_21  and  N_24
REMARK   10  A    between atoms: N_24  and  C_25
REMARK   11  A    between atoms: C_30  and  O_31
REMARK   12  A    between atoms: O_31  and  C_32
REMARK                            x       y       z     vdW  Elec       q    Type
REMARK                         _______ _______ _______ _____ _____    ______ ____
ROOT
ATOM      1  C   UNL     1      -2.856   6.786   0.899  0.00  0.00    +0.040 A 
ATOM      2  C   UNL     1      -1.876   7.309   1.745  0.00  0.00    +0.013 A 
ATOM      3  C   UNL     1      -2.213   8.274   2.671  0.00  0.00    +0.003 A 
ATOM      4  C   UNL     1      -3.520   8.717   2.769  0.00  0.00    +0.029 A 
ATOM      5  C   UNL     1      -4.497   8.199   1.937  0.00  0.00    +0.109 A 
ATOM      6  C   UNL     1      -4.172   7.237   1.003  0.00  0.00    +0.042 A 
ENDROOT
BRANCH   1   8
ATOM      7  N   UNL     1      -1.228   5.321  -0.198  0.00  0.00    -0.231 N 
ATOM      8  C   UNL     1      -2.501   5.754  -0.099  0.00  0.00    +0.260 C 
ATOM      9  O   UNL     1      -3.357   5.297  -0.831  0.00  0.00    -0.269 OA
ATOM     10  H   UNL     1      -0.545   5.686   0.386  0.00  0.00    +0.173 HD
BRANCH   7  11
ATOM     11  N   UNL     1      -0.892   4.344  -1.143  0.00  0.00    -0.245 N 
ATOM     12  H   UNL     1      -1.575   3.979  -1.727  0.00  0.00    +0.172 HD
BRANCH  11  13
ATOM     13  C   UNL     1       0.380   3.910  -1.242  0.00  0.00    +0.151 C 
ATOM     14  S   UNL     1       0.791   2.716  -2.397  0.00  0.00    -0.017 S 
BRANCH  13  15
ATOM     15  N   UNL     1       1.330   4.421  -0.434  0.00  0.00    -0.295 N 
ATOM     16  H   UNL     1       1.102   5.114   0.205  0.00  0.00    +0.154 HD
BRANCH  15  23
ATOM     17  C   UNL     1       1.785   1.629  -0.126  0.00  0.00    +0.045 C 
ATOM     18  C   UNL     1       2.913   2.598  -0.374  0.00  0.00    -0.029 A 
ATOM     19  C   UNL     1       4.212   2.138  -0.462  0.00  0.00    +0.005 A 
ATOM     20  C   UNL     1       5.248   3.027  -0.683  0.00  0.00    +0.001 A 
ATOM     21  C   UNL     1       4.986   4.378  -0.822  0.00  0.00    +0.005 A 
ATOM     22  C   UNL     1       3.689   4.843  -0.740  0.00  0.00    -0.029 A 
ATOM     23  C   UNL     1       2.646   3.953  -0.518  0.00  0.00    +0.038 A 
ATOM     24  C   UNL     1       3.404   6.315  -0.892  0.00  0.00    +0.045 C 
ENDBRANCH  15  23
ENDBRANCH  13  15
ENDBRANCH  11  13
ENDBRANCH   7  11
ENDBRANCH   1   8
BRANCH   5  25
ATOM     25  S   UNL     1      -6.158   8.770   2.071  0.00  0.00    +0.072 S 
ATOM     26  O   UNL     1      -6.097  10.066   2.650  0.00  0.00    -0.150 OA
ATOM     27  O   UNL     1      -6.774   8.525   0.814  0.00  0.00    -0.150 OA
BRANCH  25  28
ATOM     28  N   UNL     1      -6.923   7.795   3.170  0.00  0.00    -0.213 N 
ATOM     29  H   UNL     1      -7.703   7.283   2.904  0.00  0.00    +0.174 HD
BRANCH  28  30
ATOM     30  C   UNL     1      -6.446   7.711   4.482  0.00  0.00    +0.090 A 
ATOM     31  C   UNL     1      -5.804   8.797   5.060  0.00  0.00    +0.028 A 
ATOM     32  C   UNL     1      -5.337   8.713   6.359  0.00  0.00    +0.002 A 
ATOM     33  C   UNL     1      -5.499   7.545   7.080  0.00  0.00    +0.004 A 
ATOM     34  C   UNL     1      -6.132   6.457   6.509  0.00  0.00    +0.047 A 
ATOM     35  C   UNL     1      -6.607   6.535   5.211  0.00  0.00    +0.142 A 
BRANCH  35  36
ATOM     36  O   UNL     1      -7.230   5.465   4.647  0.00  0.00    -0.493 OA
ATOM     37  C   UNL     1      -7.360   4.292   5.453  0.00  0.00    +0.277 C 
ENDBRANCH  35  36
ENDBRANCH  28  30
ENDBRANCH  25  28
ENDBRANCH   5  25
TORSDOF 9
