REMARK  Name = ZINC15140914
REMARK  7 active torsions:
REMARK  status: ('A' for Active; 'I' for Inactive)
REMARK    1  A    between atoms: C_3  and  S_18
REMARK    2  A    between atoms: C_4  and  N_15
REMARK    3  A    between atoms: C_6  and  S_7
REMARK    4  A    between atoms: S_7  and  N_10
REMARK    5  A    between atoms: S_18  and  C_19
REMARK    6  A    between atoms: N_24  and  C_25
REMARK    7  A    between atoms: C_25  and  C_26
REMARK                            x       y       z     vdW  Elec       q    Type
REMARK                         _______ _______ _______ _____ _____    ______ ____
ROOT
ATOM      1  C   UNL     1      -1.942   1.103   1.909  0.00  0.00    +0.030 A 
ATOM      2  C   UNL     1      -2.660   1.472   3.026  0.00  0.00    +0.019 A 
ATOM      3  C   UNL     1      -2.352   2.663   3.688  0.00  0.00    +0.045 A 
ATOM      4  C   UNL     1      -1.317   3.473   3.212  0.00  0.00    +0.142 A 
ATOM      5  C   UNL     1      -0.604   3.090   2.097  0.00  0.00    +0.062 A 
ATOM      6  C   UNL     1      -0.917   1.910   1.442  0.00  0.00    +0.108 A 
ENDROOT
BRANCH   6   7
ATOM      7  S   UNL     1      -0.004   1.430   0.014  0.00  0.00    +0.061 S 
ATOM      8  O   UNL     1      -0.127   0.018  -0.092  0.00  0.00    -0.153 OA
ATOM      9  O   UNL     1       1.256   2.081   0.100  0.00  0.00    -0.153 OA
BRANCH   7  10
ATOM     10  N   UNL     1      -0.779   2.072  -1.301  0.00  0.00    -0.177 NA
ATOM     11  C   UNL     1      -1.839   1.413  -2.078  0.00  0.00    +0.109 C 
ATOM     12  C   UNL     1      -2.239   2.374  -3.216  0.00  0.00    +0.018 C 
ATOM     13  C   UNL     1      -0.986   3.277  -3.363  0.00  0.00    +0.018 C 
ATOM     14  C   UNL     1      -0.516   3.397  -1.891  0.00  0.00    +0.109 C 
ENDBRANCH   7  10
ENDBRANCH   6   7
BRANCH   4  15
ATOM     15  N   UNL     1      -0.984   4.737   3.908  0.00  0.00    +0.058 N 
ATOM     16  O   UNL     1      -0.009   5.499   3.458  0.00  0.00    -0.126 OA
ATOM     17  O   UNL     1      -1.663   5.099   4.976  0.00  0.00    -0.126 OA
ENDBRANCH   4  15
BRANCH   3  18
ATOM     18  S   UNL     1      -3.265   3.143   5.117  0.00  0.00    -0.059 S 
BRANCH  18  19
ATOM     19  C   UNL     1      -4.282   4.338   4.432  0.00  0.00    +0.165 A 
ATOM     20  N   UNL     1      -4.423   4.720   3.120  0.00  0.00    -0.133 NA
ATOM     21  N   UNL     1      -5.242   5.636   2.824  0.00  0.00    -0.125 NA
ATOM     22  C   UNL     1      -5.990   6.252   3.794  0.00  0.00    +0.182 A 
ATOM     23  S   UNL     1      -5.457   5.426   5.227  0.00  0.00    -0.024 S 
ATOM     24  N   UNL     1      -6.899   7.232   3.669  0.00  0.00    -0.320 N 
ATOM     25  H   UNL     1      -7.355   7.574   4.454  0.00  0.00    +0.148 HD
BRANCH  24  26
ATOM     26  C   UNL     1      -7.201   7.787   2.347  0.00  0.00    +0.135 C 
BRANCH  26  27
ATOM     27  C   UNL     1      -8.262   8.881   2.483  0.00  0.00    +0.135 C 
ATOM     28  C   UNL     1      -8.592   9.465   1.096  0.00  0.00    +0.035 C 
ATOM     29  C   UNL     1     -10.113   9.222   0.934  0.00  0.00    +0.031 C 
ATOM     30  C   UNL     1     -10.570   9.040   2.404  0.00  0.00    +0.160 C 
ATOM     31  O   UNL     1      -9.475   8.322   3.015  0.00  0.00    -0.375 OA
ENDBRANCH  26  27
ENDBRANCH  24  26
ENDBRANCH  18  19
ENDBRANCH   3  18
TORSDOF 7
