REMARK  Name = ZINC45896294
REMARK  10 active torsions:
REMARK  status: ('A' for Active; 'I' for Inactive)
REMARK    1  A    between atoms: C_1  and  C_2
REMARK    2  A    between atoms: C_2  and  N_3
REMARK    3  A    between atoms: C_12  and  O_13
REMARK    4  A    between atoms: C_14  and  N_15
REMARK    5  A    between atoms: N_18  and  C_19
REMARK    6  A    between atoms: C_19  and  C_25
REMARK    7  A    between atoms: C_25  and  C_26
REMARK    8  A    between atoms: C_26  and  O_28
REMARK    9  A    between atoms: O_28  and  C_29
REMARK   10  A    between atoms: C_29  and  C_30
REMARK                            x       y       z     vdW  Elec       q    Type
REMARK                         _______ _______ _______ _____ _____    ______ ____
ROOT
ATOM      1  N   UNL     1       0.186  -0.460  -2.331  0.00  0.00    -0.262 N 
ATOM      2  C   UNL     1       1.050  -0.894  -3.270  0.00  0.00    +0.305 C 
ATOM      3  O   UNL     1       0.647  -1.558  -4.206  0.00  0.00    -0.252 OA
ATOM      4  N   UNL     1       2.360  -0.594  -3.171  0.00  0.00    -0.293 N 
ATOM      5  H   UNL     1       0.495   0.126  -1.622  0.00  0.00    +0.157 HD
ATOM      6  H   UNL     1       2.692  -0.125  -2.390  0.00  0.00    +0.151 HD
ENDROOT
BRANCH   1  17
ATOM      7  N   UNL     1      -1.657   0.696  -4.131  0.00  0.00    -0.383 N 
ATOM      8  C   UNL     1      -2.062  -0.245  -3.304  0.00  0.00    +0.075 A 
ATOM      9  C   UNL     1      -3.465  -0.718  -3.301  0.00  0.00    +0.042 A 
ATOM     10  C   UNL     1      -4.410  -0.185  -4.173  0.00  0.00    +0.013 A 
ATOM     11  C   UNL     1      -5.707  -0.653  -4.139  0.00  0.00    +0.001 A 
ATOM     12  C   UNL     1      -6.068  -1.646  -3.242  0.00  0.00    +0.004 A 
ATOM     13  C   UNL     1      -5.139  -2.181  -2.374  0.00  0.00    +0.047 A 
ATOM     14  C   UNL     1      -3.828  -1.723  -2.394  0.00  0.00    +0.141 A 
ATOM     15  O   UNL     1      -2.904  -2.234  -1.552  0.00  0.00    -0.424 OA
ATOM     16  C   UNL     1      -1.628  -1.816  -1.542  0.00  0.00    +0.309 A 
ATOM     17  C   UNL     1      -1.166  -0.856  -2.379  0.00  0.00    +0.140 A 
ATOM     18  H   UNL     1      -2.244   1.004  -4.840  0.00  0.00    +0.160 HD
BRANCH   7  20
ATOM     19  C   UNL     1      -0.289   2.658  -4.640  0.00  0.00    +0.026 C 
ATOM     20  C   UNL     1      -0.321   1.277  -3.982  0.00  0.00    +0.109 C 
ENDBRANCH   7  20
BRANCH  16  21
ATOM     21  O   UNL     1      -0.766  -2.382  -0.665  0.00  0.00    -0.479 OA
ATOM     22  H   UNL     1      -1.165  -3.062  -0.105  0.00  0.00    +0.295 HD
ENDBRANCH  16  21
ENDBRANCH   1  17
BRANCH   4  23
ATOM     23  C   UNL     1       3.281  -0.974  -4.245  0.00  0.00    +0.046 C 
ATOM     24  C   UNL     1       4.700  -0.534  -3.879  0.00  0.00    +0.026 C 
ATOM     25  C   UNL     1       4.732   0.984  -3.693  0.00  0.00    +0.002 C 
ATOM     26  C   UNL     1       4.307   1.666  -4.996  0.00  0.00    +0.000 C 
ATOM     27  C   UNL     1       2.888   1.226  -5.362  0.00  0.00    +0.002 C 
ATOM     28  C   UNL     1       2.856  -0.292  -5.547  0.00  0.00    +0.026 C 
BRANCH  23  29
ATOM     29  C   UNL     1       3.250  -2.492  -4.430  0.00  0.00    +0.146 C 
BRANCH  29  30
ATOM     30  C   UNL     1       3.546  -3.165  -3.114  0.00  0.00    +0.309 C 
ATOM     31  O   UNL     1       3.652  -2.504  -2.108  0.00  0.00    -0.251 OA
BRANCH  30  32
ATOM     32  O   UNL     1       3.693  -4.498  -3.060  0.00  0.00    -0.465 OA
BRANCH  32  33
ATOM     33  C   UNL     1       3.973  -5.069  -1.780  0.00  0.00    +0.229 C 
ATOM     34  C   UNL     1       4.106  -6.587  -1.917  0.00  0.00    +0.048 C 
ENDBRANCH  32  33
ENDBRANCH  30  32
ENDBRANCH  29  30
ENDBRANCH  23  29
ENDBRANCH   4  23
TORSDOF 8
