REMARK  Name = ZINC48287352
REMARK  4 active torsions:
REMARK  status: ('A' for Active; 'I' for Inactive)
REMARK    1  A    between atoms: C_9  and  C_11
REMARK    2  A    between atoms: C_11  and  N_12
REMARK    3  A    between atoms: C_16  and  C_19
REMARK    4  A    between atoms: C_19  and  N_20
REMARK                            x       y       z     vdW  Elec       q    Type
REMARK                         _______ _______ _______ _____ _____    ______ ____
ROOT
ATOM      1  N   UNL     1       1.238  -4.622  -1.291  0.00  0.00    +0.384 N 
ATOM      2  C   UNL     1       0.323  -4.349  -2.405  0.00  0.00    -0.078 C 
ATOM      3  C   UNL     1       1.014  -4.680  -3.730  0.00  0.00    -0.018 C 
ATOM      4  C   UNL     1       1.405  -6.160  -3.740  0.00  0.00    +0.001 C 
ATOM      5  C   UNL     1       2.300  -6.450  -2.531  0.00  0.00    -0.011 C 
ATOM      6  C   UNL     1       1.561  -6.053  -1.251  0.00  0.00    -0.073 C 
ATOM      7  H   UNL     1       2.087  -4.090  -1.417  0.00  0.00    -0.081 HD
ENDROOT
BRANCH   1   8
ATOM      8  C   UNL     1       0.600  -4.230  -0.027  0.00  0.00    -0.022 C 
BRANCH   8  17
ATOM      9  C   UNL     1      -0.017   1.370   0.010  0.00  0.00    +0.104 A 
ATOM     10  C   UNL     1       1.115   2.074   0.003  0.00  0.00    +0.067 A 
ATOM     11  S   UNL     1       2.349   0.782  -0.016  0.00  0.00    -0.058 S 
ATOM     12  C   UNL     1       1.233  -0.605  -0.013  0.00  0.00    +0.180 A 
ATOM     13  N   UNL     1       0.002  -0.004   0.002  0.00  0.00    -0.262 N 
ATOM     14  C   UNL     1      -1.082  -0.836   0.007  0.00  0.00    +0.259 A 
ATOM     15  O   UNL     1      -2.210  -0.370   0.020  0.00  0.00    -0.267 OA
ATOM     16  C   UNL     1      -0.897  -2.219  -0.002  0.00  0.00    +0.092 A 
ATOM     17  C   UNL     1       0.379  -2.739  -0.017  0.00  0.00    +0.033 A 
ATOM     18  N   UNL     1       1.413  -1.902  -0.022  0.00  0.00    -0.229 NA
ENDBRANCH   8  17
ENDBRANCH   1   8
BRANCH   5  19
ATOM     19  C   UNL     1       2.634  -7.942  -2.488  0.00  0.00    +0.107 C 
BRANCH  19  20
ATOM     20  N   UNL     1       3.439  -8.296  -3.659  0.00  0.00    -0.299 N 
ATOM     21  C   UNL     1       3.853  -9.567  -3.834  0.00  0.00    +0.297 C 
ATOM     22  O   UNL     1       3.558 -10.419  -3.019  0.00  0.00    -0.253 OA
ATOM     23  N   UNL     1       4.594  -9.892  -4.911  0.00  0.00    -0.313 N 
ATOM     24  H   UNL     1       3.675  -7.616  -4.310  0.00  0.00    +0.150 HD
ATOM     25  H   UNL     1       4.830  -9.212  -5.561  0.00  0.00    +0.146 HD
ATOM     26  H   UNL     1       4.892 -10.807  -5.037  0.00  0.00    +0.146 HD
ENDBRANCH  19  20
ENDBRANCH   5  19
TORSDOF 4
