REMARK  Name = ZINC12058099
REMARK  13 active torsions:
REMARK  status: ('A' for Active; 'I' for Inactive)
REMARK    1  A    between atoms: C_1  and  C_2
REMARK    2  A    between atoms: C_7  and  N_8
REMARK    3  A    between atoms: C_13  and  N_66
REMARK    4  A    between atoms: C_16  and  C_18
REMARK    5  A    between atoms: C_16  and  C_19
REMARK    6  A    between atoms: C_20  and  C_21
REMARK    7  A    between atoms: C_20  and  N_66
REMARK    8  A    between atoms: C_24  and  O_29
REMARK    9  A    between atoms: C_25  and  C_27
REMARK   10  A    between atoms: C_27  and  O_28
REMARK   11  A    between atoms: O_29  and  C_30
REMARK   12  A    between atoms: C_30  and  C_31
REMARK   13  A    between atoms: C_30  and  C_32
REMARK                            x       y       z     vdW  Elec       q    Type
REMARK                         _______ _______ _______ _____ _____    ______ ____
ROOT
ATOM      1  N   UNL     1      -0.934  -6.362  -2.462  0.00  0.00    -0.236 N 
ATOM      2  C   UNL     1       0.402  -6.199  -2.413  0.00  0.00    +0.047 A 
ATOM      3  C   UNL     1       0.662  -5.161  -1.577  0.00  0.00    -0.020 A 
ATOM      4  C   UNL     1      -0.554  -4.676  -1.100  0.00  0.00    +0.137 A 
ATOM      5  N   UNL     1      -1.515  -5.394  -1.629  0.00  0.00    -0.174 NA
ATOM      6  C   UNL     1       2.049  -4.661  -1.257  0.00  0.00    -0.037 C 
ATOM      7  C   UNL     1       3.017  -5.213  -2.311  0.00  0.00    -0.005 C 
ATOM      8  C   UNL     1       2.812  -6.723  -2.453  0.00  0.00    -0.031 C 
ATOM      9  C   UNL     1       1.462  -6.995  -3.130  0.00  0.00    +0.062 C 
ATOM     10  C   UNL     1       2.826  -7.373  -1.068  0.00  0.00    +0.011 C 
ATOM     11  C   UNL     1       3.937  -7.314  -3.304  0.00  0.00    +0.011 C 
ENDROOT
BRANCH   1  18
ATOM     12  C   UNL     1      -2.941  -7.903  -1.160  0.00  0.00    +0.046 C 
ATOM     13  C   UNL     1      -2.607  -8.098  -2.616  0.00  0.00    -0.025 A 
ATOM     14  C   UNL     1      -3.287  -9.044  -3.361  0.00  0.00    +0.005 A 
ATOM     15  C   UNL     1      -2.977  -9.228  -4.695  0.00  0.00    +0.000 A 
ATOM     16  C   UNL     1      -1.991  -8.463  -5.291  0.00  0.00    +0.002 A 
ATOM     17  C   UNL     1      -1.312  -7.513  -4.554  0.00  0.00    +0.028 A 
ATOM     18  C   UNL     1      -1.621  -7.326  -3.213  0.00  0.00    +0.069 A 
ENDBRANCH   1  18
BRANCH   6  19
ATOM     19  N   UNL     1       2.069  -3.187  -1.300  0.00  0.00    +0.386 N 
ATOM     20  H   UNL     1       1.433  -2.861  -2.037  0.00  0.00    -0.085 HD
ATOM     21  H   UNL     1       3.022  -2.866  -1.505  0.00  0.00    -0.085 HD
BRANCH  19  22
ATOM     22  C   UNL     1       1.637  -2.631  -0.004  0.00  0.00    -0.046 C 
BRANCH  22  23
ATOM     23  C   UNL     1       1.666  -1.126  -0.077  0.00  0.00    -0.064 A 
ATOM     24  C   UNL     1       0.544  -0.433  -0.491  0.00  0.00    +0.005 A 
ATOM     25  C   UNL     1       0.568   0.947  -0.558  0.00  0.00    +0.046 A 
ATOM     26  C   UNL     1       1.721   1.637  -0.210  0.00  0.00    +0.126 A 
ATOM     27  C   UNL     1       2.846   0.939   0.204  0.00  0.00    +0.020 A 
ATOM     28  C   UNL     1       2.816  -0.441   0.270  0.00  0.00    +0.011 A 
BRANCH  27  29
ATOM     29  C   UNL     1       4.099   1.685   0.583  0.00  0.00    +0.194 C 
BRANCH  29  30
ATOM     30  O   UNL     1       5.109   0.753   0.973  0.00  0.00    -0.390 OA
ATOM     31  H   UNL     1       5.946   1.164   1.230  0.00  0.00    +0.210 HD
ENDBRANCH  29  30
ENDBRANCH  27  29
BRANCH  26  32
ATOM     32  O   UNL     1       1.748   2.994  -0.277  0.00  0.00    -0.489 OA
BRANCH  32  33
ATOM     33  C   UNL     1       0.520   3.652  -0.594  0.00  0.00    +0.167 C 
ATOM     34  C   UNL     1       0.551   5.081  -0.048  0.00  0.00    +0.051 C 
ATOM     35  C   UNL     1       0.339   3.690  -2.113  0.00  0.00    +0.051 C 
ENDBRANCH  32  33
ENDBRANCH  26  32
ENDBRANCH  22  23
ENDBRANCH  19  22
ENDBRANCH   6  19
TORSDOF 8
