REMARK  Name = ZINC14541403
REMARK  11 active torsions:
REMARK  status: ('A' for Active; 'I' for Inactive)
REMARK    1  A    between atoms: C_1  and  C_2
REMARK    2  A    between atoms: C_2  and  C_3
REMARK    3  A    between atoms: C_2  and  C_4
REMARK    4  A    between atoms: C_2  and  C_27
REMARK    5  A    between atoms: C_4  and  N_56
REMARK    6  A    between atoms: C_5  and  N_56
REMARK    7  A    between atoms: C_11  and  C_15
REMARK    8  A    between atoms: N_13  and  C_14
REMARK    9  A    between atoms: N_17  and  C_18
REMARK   10  A    between atoms: C_18  and  C_19
REMARK   11  A    between atoms: C_27  and  O_28
REMARK                            x       y       z     vdW  Elec       q    Type
REMARK                         _______ _______ _______ _____ _____    ______ ____
ROOT
ATOM      1  C   UNL     1       7.734   6.902  -3.569  0.00  0.00    -0.067 C 
ATOM      2  C   UNL     1       8.236   5.995  -4.696  0.00  0.00    -0.009 C 
ATOM      3  C   UNL     1       7.065   5.612  -5.610  0.00  0.00    +0.054 C 
ATOM      4  C   UNL     1       5.936   5.108  -4.748  0.00  0.00    +0.043 A 
ATOM      5  C   UNL     1       5.851   5.324  -3.412  0.00  0.00    +0.004 A 
ATOM      6  C   UNL     1       4.669   4.690  -2.993  0.00  0.00    +0.150 A 
ATOM      7  N   UNL     1       4.124   4.155  -4.072  0.00  0.00    -0.166 NA
ATOM      8  N   UNL     1       4.856   4.394  -5.105  0.00  0.00    -0.270 N 
ATOM      9  C   UNL     1       4.556   3.951  -6.468  0.00  0.00    +0.172 C 
ATOM     10  C   UNL     1       6.864   6.086  -2.603  0.00  0.00    +0.023 C 
ENDROOT
BRANCH   6  11
ATOM     11  C   UNL     1       4.136   4.638  -1.617  0.00  0.00    +0.265 C 
ATOM     12  O   UNL     1       4.741   5.176  -0.710  0.00  0.00    -0.268 OA
ATOM     13  N   UNL     1       2.979   3.994  -1.366  0.00  0.00    -0.306 N 
ATOM     14  H   UNL     1       2.496   3.564  -2.090  0.00  0.00    +0.149 HD
BRANCH  13  15
ATOM     15  C   UNL     1       2.450   3.942  -0.001  0.00  0.00    +0.142 C 
BRANCH  15  16
ATOM     16  C   UNL     1       1.157   3.169   0.008  0.00  0.00    +0.005 A 
ATOM     17  C   UNL     1      -0.051   3.842   0.023  0.00  0.00    +0.008 A 
ATOM     18  C   UNL     1      -1.237   3.133   0.030  0.00  0.00    +0.000 A 
ATOM     19  C   UNL     1      -1.218   1.751   0.017  0.00  0.00    +0.003 A 
ATOM     20  C   UNL     1      -0.013   1.076   0.008  0.00  0.00    +0.038 A 
ATOM     21  C   UNL     1       1.177   1.785   0.000  0.00  0.00    +0.128 A 
ATOM     22  F   UNL     1       2.356   1.126  -0.014  0.00  0.00    -0.205 F 
ENDBRANCH  15  16
ENDBRANCH  13  15
ENDBRANCH   6  11
BRANCH   1  23
ATOM     23  N   UNL     1       8.886   7.457  -2.833  0.00  0.00    +0.382 N 
ATOM     24  H   UNL     1       8.594   7.694  -1.877  0.00  0.00    -0.085 HD
ATOM     25  H   UNL     1       9.634   6.755  -2.798  0.00  0.00    -0.085 HD
BRANCH  23  26
ATOM     26  C   UNL     1       9.387   8.670  -3.505  0.00  0.00    -0.074 C 
BRANCH  26  28
ATOM     27  C   UNL     1      10.136   9.568  -1.297  0.00  0.00    +0.011 C 
ATOM     28  C   UNL     1      10.579   9.222  -2.720  0.00  0.00    -0.027 C 
ATOM     29  C   UNL     1      11.687   8.168  -2.668  0.00  0.00    +0.011 C 
BRANCH  28  30
ATOM     30  C   UNL     1      11.105  10.482  -3.411  0.00  0.00    +0.160 C 
BRANCH  30  31
ATOM     31  O   UNL     1      12.218  10.997  -2.678  0.00  0.00    -0.395 OA
ATOM     32  H   UNL     1      12.604  11.798  -3.059  0.00  0.00    +0.209 HD
ENDBRANCH  30  31
ENDBRANCH  28  30
ENDBRANCH  26  28
ENDBRANCH  23  26
ENDBRANCH   1  23
TORSDOF 8
