REMARK  Name = ZINC09507235
REMARK  12 active torsions:
REMARK  status: ('A' for Active; 'I' for Inactive)
REMARK    1  A    between atoms: C_1  and  C_2
REMARK    2  A    between atoms: C_2  and  N_3
REMARK    3  A    between atoms: N_3  and  C_4
REMARK    4  A    between atoms: C_5  and  N_20
REMARK    5  A    between atoms: N_6  and  C_13
REMARK    6  A    between atoms: C_13  and  C_14
REMARK    7  A    between atoms: C_21  and  C_23
REMARK    8  A    between atoms: C_23  and  N_61
REMARK    9  A    between atoms: C_24  and  N_61
REMARK   10  A    between atoms: C_25  and  C_26
REMARK   11  A    between atoms: C_25  and  N_61
REMARK   12  A    between atoms: C_31  and  C_32
REMARK                            x       y       z     vdW  Elec       q    Type
REMARK                         _______ _______ _______ _____ _____    ______ ____
ROOT
ATOM      1  C   UNL     1       0.521  -1.937  -1.146  0.00  0.00    +0.140 A 
ATOM      2  C   UNL     1       1.694  -2.018  -0.424  0.00  0.00    +0.128 A 
ATOM      3  N   UNL     1       1.834  -1.264   0.717  0.00  0.00    -0.276 N 
ATOM      4  C   UNL     1       0.843  -0.446   1.119  0.00  0.00    +0.331 A 
ATOM      5  O   UNL     1       0.988   0.216   2.128  0.00  0.00    -0.246 OA
ATOM      6  N   UNL     1      -0.304  -0.349   0.425  0.00  0.00    -0.273 N 
ATOM      7  H   UNL     1      -1.025   0.266   0.745  0.00  0.00    +0.173 HD
ATOM      8  C   UNL     1      -0.495  -1.071  -0.697  0.00  0.00    +0.277 A 
ATOM      9  O   UNL     1      -1.539  -0.976  -1.319  0.00  0.00    -0.266 OA
ENDROOT
BRANCH   1  10
ATOM     10  N   UNL     1       0.344  -2.702  -2.318  0.00  0.00    -0.266 N 
ATOM     11  C   UNL     1       0.211  -2.088  -3.512  0.00  0.00    +0.203 C 
ATOM     12  O   UNL     1       0.330  -0.883  -3.591  0.00  0.00    -0.277 OA
BRANCH  10  14
ATOM     13  C   UNL     1      -1.146  -4.633  -2.136  0.00  0.00    +0.025 C 
ATOM     14  C   UNL     1       0.307  -4.165  -2.239  0.00  0.00    +0.110 C 
ENDBRANCH  10  14
BRANCH  11  15
ATOM     15  C   UNL     1      -0.087  -2.898  -4.747  0.00  0.00    +0.019 C 
BRANCH  15  17
ATOM     16  C   UNL     1       1.113  -1.380  -6.203  0.00  0.00    -0.095 C 
ATOM     17  N   UNL     1      -0.203  -1.982  -5.902  0.00  0.00    +0.386 N 
ATOM     18  H   UNL     1      -0.867  -1.234  -5.668  0.00  0.00    -0.081 HD
BRANCH  17  19
ATOM     19  C   UNL     1      -0.704  -2.718  -7.082  0.00  0.00    -0.042 C 
BRANCH  19  20
ATOM     20  C   UNL     1      -0.969  -1.734  -8.192  0.00  0.00    -0.061 A 
ATOM     21  C   UNL     1      -0.081  -1.625  -9.246  0.00  0.00    +0.002 A 
ATOM     22  C   UNL     1      -0.326  -0.727 -10.267  0.00  0.00    +0.000 A 
ATOM     23  C   UNL     1      -1.455   0.071 -10.229  0.00  0.00    +0.000 A 
ATOM     24  C   UNL     1      -2.340  -0.034  -9.173  0.00  0.00    +0.003 A 
ATOM     25  C   UNL     1      -2.097  -0.937  -8.154  0.00  0.00    -0.049 A 
ATOM     26  C   UNL     1      -3.063  -1.051  -7.003  0.00  0.00    +0.044 C 
ENDBRANCH  19  20
ENDBRANCH  17  19
ENDBRANCH  15  17
ENDBRANCH  11  15
ENDBRANCH   1  10
BRANCH   2  27
ATOM     27  N   UNL     1       2.708  -2.849  -0.837  0.00  0.00    -0.343 N 
ATOM     28  H   UNL     1       3.492  -2.971  -0.280  0.00  0.00    +0.144 HD
ATOM     29  H   UNL     1       2.640  -3.312  -1.687  0.00  0.00    +0.144 HD
ENDBRANCH   2  27
BRANCH   3  30
ATOM     30  C   UNL     1       3.071  -1.345   1.497  0.00  0.00    +0.163 C 
BRANCH  30  31
ATOM     31  C   UNL     1       2.939  -2.428   2.537  0.00  0.00    -0.028 A 
ATOM     32  C   UNL     1       2.447  -2.123   3.793  0.00  0.00    +0.005 A 
ATOM     33  C   UNL     1       2.322  -3.117   4.745  0.00  0.00    +0.000 A 
ATOM     34  C   UNL     1       2.698  -4.413   4.446  0.00  0.00    +0.000 A 
ATOM     35  C   UNL     1       3.194  -4.716   3.192  0.00  0.00    +0.000 A 
ATOM     36  C   UNL     1       3.315  -3.724   2.237  0.00  0.00    +0.005 A 
ENDBRANCH  30  31
ENDBRANCH   3  30
TORSDOF 9
