REMARK  Name = ZINC13132764
REMARK  12 active torsions:
REMARK  status: ('A' for Active; 'I' for Inactive)
REMARK    1  A    between atoms: C_4  and  C_7
REMARK    2  A    between atoms: C_7  and  C_9
REMARK    3  A    between atoms: C_7  and  O_33
REMARK    4  A    between atoms: C_9  and  N_74
REMARK    5  A    between atoms: C_12  and  C_15
REMARK    6  A    between atoms: C_15  and  C_16
REMARK    7  A    between atoms: C_16  and  C_17
REMARK    8  A    between atoms: C_17  and  C_18
REMARK    9  A    between atoms: C_23  and  C_24
REMARK   10  A    between atoms: C_23  and  N_76
REMARK   11  A    between atoms: C_24  and  C_26
REMARK   12  A    between atoms: C_24  and  O_32
REMARK                            x       y       z     vdW  Elec       q    Type
REMARK                         _______ _______ _______ _____ _____    ______ ____
ROOT
ATOM      1  C   UNL     1       1.946  -6.749   1.327  0.00  0.00    +0.001 C 
ENDROOT
BRANCH   1   2
ATOM      2  C   UNL     1       0.671  -6.165   1.938  0.00  0.00    +0.003 C 
BRANCH   2   5
ATOM      3  C   UNL     1       0.948  -2.521   0.728  0.00  0.00    -0.078 C 
ATOM      4  C   UNL     1       0.878  -4.046   0.627  0.00  0.00    -0.015 C 
ATOM      5  C   UNL     1       0.802  -4.644   2.034  0.00  0.00    -0.014 C 
ATOM      6  C   UNL     1      -0.419  -4.070   2.759  0.00  0.00    -0.015 C 
ATOM      7  C   UNL     1      -0.312  -2.544   2.798  0.00  0.00    -0.078 C 
ATOM      8  N   UNL     1      -0.267  -2.030   1.413  0.00  0.00    +0.382 N 
ATOM      9  H   UNL     1      -1.094  -2.366   0.906  0.00  0.00    -0.082 HD
BRANCH   8  10
ATOM     10  C   UNL     1      -0.279  -0.552   1.422  0.00  0.00    -0.042 C 
BRANCH  10  11
ATOM     11  C   UNL     1      -0.109  -0.044  -0.011  0.00  0.00    +0.128 C 
BRANCH  11  15
ATOM     12  C   UNL     1      -0.284   4.224  -0.037  0.00  0.00    +0.000 A 
ATOM     13  C   UNL     1       0.939   3.582  -0.083  0.00  0.00    +0.000 A 
ATOM     14  C   UNL     1       0.996   2.201  -0.075  0.00  0.00    +0.006 A 
ATOM     15  C   UNL     1      -0.171   1.462  -0.020  0.00  0.00    -0.021 A 
ATOM     16  C   UNL     1      -1.395   2.104   0.021  0.00  0.00    +0.006 A 
ATOM     17  C   UNL     1      -1.451   3.485   0.017  0.00  0.00    +0.000 A 
ENDBRANCH  11  15
BRANCH  11  18
ATOM     18  O   UNL     1      -1.157  -0.568  -0.829  0.00  0.00    -0.389 OA
ATOM     19  H   UNL     1      -2.045  -0.317  -0.540  0.00  0.00    +0.210 HD
ENDBRANCH  11  18
ENDBRANCH  10  11
ENDBRANCH   8  10
ENDBRANCH   2   5
ENDBRANCH   1   2
BRANCH   1  20
ATOM     20  C   UNL     1       1.815  -8.271   1.230  0.00  0.00    +0.003 C 
BRANCH  20  21
ATOM     21  C   UNL     1       3.090  -8.855   0.619  0.00  0.00    -0.014 C 
ATOM     22  C   UNL     1       3.230  -8.375  -0.828  0.00  0.00    -0.015 C 
ATOM     23  C   UNL     1       4.474  -9.011  -1.453  0.00  0.00    -0.078 C 
ATOM     24  C   UNL     1       4.263 -10.961  -0.030  0.00  0.00    -0.078 C 
ATOM     25  C   UNL     1       3.012 -10.384   0.637  0.00  0.00    -0.015 C 
ATOM     26  N   UNL     1       4.326 -10.481  -1.427  0.00  0.00    +0.382 N 
ATOM     27  H   UNL     1       3.455 -10.736  -1.907  0.00  0.00    -0.082 HD
BRANCH  26  28
ATOM     28  C   UNL     1       5.462 -11.115  -2.128  0.00  0.00    -0.042 C 
BRANCH  28  29
ATOM     29  C   UNL     1       5.068 -12.545  -2.504  0.00  0.00    +0.128 C 
BRANCH  29  30
ATOM     30  C   UNL     1       6.214 -13.209  -3.223  0.00  0.00    -0.021 A 
ATOM     31  C   UNL     1       6.427 -12.956  -4.566  0.00  0.00    +0.006 A 
ATOM     32  C   UNL     1       7.480 -13.562  -5.224  0.00  0.00    +0.000 A 
ATOM     33  C   UNL     1       8.316 -14.427  -4.543  0.00  0.00    +0.000 A 
ATOM     34  C   UNL     1       8.100 -14.683  -3.202  0.00  0.00    +0.000 A 
ATOM     35  C   UNL     1       7.049 -14.075  -2.542  0.00  0.00    +0.006 A 
ENDBRANCH  29  30
BRANCH  29  36
ATOM     36  O   UNL     1       3.923 -12.514  -3.358  0.00  0.00    -0.389 OA
ATOM     37  H   UNL     1       4.061 -12.030  -4.184  0.00  0.00    +0.210 HD
ENDBRANCH  29  36
ENDBRANCH  28  29
ENDBRANCH  26  28
ENDBRANCH  20  21
ENDBRANCH   1  20
TORSDOF 12
