REMARK  Name = ZINC63589194
REMARK  13 active torsions:
REMARK  status: ('A' for Active; 'I' for Inactive)
REMARK    1  A    between atoms: C_1  and  C_2
REMARK    2  A    between atoms: C_2  and  O_3
REMARK    3  A    between atoms: O_3  and  C_4
REMARK    4  A    between atoms: C_7  and  C_13
REMARK    5  A    between atoms: C_9  and  O_10
REMARK    6  A    between atoms: O_10  and  C_11
REMARK    7  A    between atoms: C_11  and  C_12
REMARK    8  A    between atoms: C_13  and  N_15
REMARK    9  A    between atoms: N_17  and  C_18
REMARK   10  A    between atoms: C_21  and  C_24
REMARK   11  A    between atoms: N_25  and  C_26
REMARK   12  A    between atoms: C_26  and  C_27
REMARK   13  A    between atoms: C_27  and  C_28
REMARK                            x       y       z     vdW  Elec       q    Type
REMARK                         _______ _______ _______ _____ _____    ______ ____
ROOT
ATOM      1  N   UNL     1       0.609  -7.287  -0.064  0.00  0.00    -0.143 NA
ATOM      2  C   UNL     1       1.317  -8.057  -0.876  0.00  0.00    +0.194 C 
ATOM      3  N   UNL     1       1.258  -7.859  -2.226  0.00  0.00    -0.328 N 
ATOM      4  N   UNL     1       2.104  -9.047  -0.365  0.00  0.00    -0.357 N 
ATOM      5  H   UNL     1       1.456  -6.986  -2.598  0.00  0.00    +0.169 HD
ATOM      6  H   UNL     1       2.109  -9.218   0.590  0.00  0.00    +0.162 HD
ENDROOT
BRANCH   3   7
ATOM      7  C   UNL     1       0.912  -8.917  -3.073  0.00  0.00    +0.042 A 
ATOM      8  C   UNL     1      -0.033  -9.851  -2.670  0.00  0.00    +0.026 A 
ATOM      9  C   UNL     1      -0.372 -10.895  -3.509  0.00  0.00    +0.005 A 
ATOM     10  C   UNL     1       0.228 -11.010  -4.749  0.00  0.00    -0.050 A 
ATOM     11  C   UNL     1       1.170 -10.082  -5.154  0.00  0.00    +0.005 A 
ATOM     12  C   UNL     1       1.509  -9.033  -4.322  0.00  0.00    +0.026 A 
ATOM     13  C   UNL     1      -0.144 -12.150  -5.662  0.00  0.00    +0.044 C 
ENDBRANCH   3   7
BRANCH   1  14
ATOM     14  C   UNL     1      -0.268  -6.408  -0.567  0.00  0.00    +0.270 C 
ATOM     15  O   UNL     1      -0.349  -6.252  -1.773  0.00  0.00    -0.268 OA
BRANCH  14  19
ATOM     16  C   UNL     1      -2.766  -4.169   2.046  0.00  0.00    +0.162 A 
ATOM     17  C   UNL     1      -1.857  -5.080   2.566  0.00  0.00    +0.050 A 
ATOM     18  C   UNL     1      -1.046  -5.808   1.721  0.00  0.00    +0.017 A 
ATOM     19  C   UNL     1      -1.138  -5.629   0.340  0.00  0.00    +0.043 A 
ATOM     20  C   UNL     1      -2.052  -4.713  -0.184  0.00  0.00    +0.062 A 
ATOM     21  C   UNL     1      -2.866  -3.990   0.668  0.00  0.00    +0.163 A 
BRANCH  16  22
ATOM     22  O   UNL     1      -3.563  -3.455   2.882  0.00  0.00    -0.489 OA
BRANCH  22  24
ATOM     23  C   UNL     1      -4.382  -2.800   5.059  0.00  0.00    +0.048 C 
ATOM     24  C   UNL     1      -3.408  -3.688   4.284  0.00  0.00    +0.226 C 
ENDBRANCH  22  24
ENDBRANCH  16  22
BRANCH  21  25
ATOM     25  O   UNL     1      -3.762  -3.101   0.161  0.00  0.00    -0.489 OA
BRANCH  25  26
ATOM     26  C   UNL     1      -3.811  -2.969  -1.261  0.00  0.00    +0.226 C 
ATOM     27  C   UNL     1      -4.869  -1.931  -1.641  0.00  0.00    +0.048 C 
ENDBRANCH  25  26
ENDBRANCH  21  25
ENDBRANCH  14  19
ENDBRANCH   1  14
BRANCH   4  28
ATOM     28  C   UNL     1       2.942  -9.851  -1.258  0.00  0.00    +0.120 C 
BRANCH  28  29
ATOM     29  C   UNL     1       3.721 -10.880  -0.437  0.00  0.00    +0.054 C 
BRANCH  29  30
ATOM     30  C   UNL     1       4.672 -11.625  -1.338  0.00  0.00    -0.040 C 
ATOM     31  C   UNL     1       5.967 -11.321  -1.583  0.00  0.00    -0.001 A 
ATOM     32  C   UNL     1       6.844 -10.246  -1.103  0.00  0.00    +0.010 A 
ATOM     33  C   UNL     1       8.124 -10.202  -1.537  0.00  0.00    +0.001 A 
ATOM     34  C   UNL     1       8.633 -11.154  -2.431  0.00  0.00    +0.002 A 
ATOM     35  C   UNL     1       7.889 -12.171  -2.915  0.00  0.00    +0.026 A 
ATOM     36  C   UNL     1       6.529 -12.315  -2.526  0.00  0.00    +0.043 A 
ATOM     37  N   UNL     1       5.617 -13.198  -2.851  0.00  0.00    -0.380 N 
ATOM     38  C   UNL     1       4.373 -12.868  -2.146  0.00  0.00    +0.144 C 
ATOM     39  H   UNL     1       5.744 -13.947  -3.454  0.00  0.00    +0.160 HD
ENDBRANCH  29  30
ENDBRANCH  28  29
ENDBRANCH   4  28
TORSDOF 10
