REMARK  Name = ZINC13800124
REMARK  13 active torsions:
REMARK  status: ('A' for Active; 'I' for Inactive)
REMARK    1  A    between atoms: C_1  and  C_2
REMARK    2  A    between atoms: C_4  and  C_25
REMARK    3  A    between atoms: C_6  and  C_16
REMARK    4  A    between atoms: C_8  and  C_15
REMARK    5  A    between atoms: C_10  and  C_11
REMARK    6  A    between atoms: C_10  and  O_14
REMARK    7  A    between atoms: C_11  and  C_12
REMARK    8  A    between atoms: C_19  and  N_22
REMARK    9  A    between atoms: N_22  and  C_23
REMARK   10  A    between atoms: N_22  and  C_24
REMARK   11  A    between atoms: C_28  and  N_31
REMARK   12  A    between atoms: N_31  and  C_32
REMARK   13  A    between atoms: N_31  and  C_33
REMARK                            x       y       z     vdW  Elec       q    Type
REMARK                         _______ _______ _______ _____ _____    ______ ____
ROOT
ATOM      1  C   UNL     1      -1.825   0.219   2.383  0.00  0.00    +0.009 C 
ATOM      2  C   UNL     1      -2.772   1.408   2.558  0.00  0.00    +0.008 C 
ATOM      3  C   UNL     1      -3.640   1.191   3.799  0.00  0.00    -0.034 C 
ATOM      4  C   UNL     1      -5.347   0.082   2.483  0.00  0.00    -0.034 C 
ATOM      5  C   UNL     1      -4.529   0.265   1.202  0.00  0.00    +0.008 C 
ATOM      6  C   UNL     1      -3.673   1.529   1.325  0.00  0.00    +0.072 C 
ATOM      7  C   UNL     1      -5.475   0.404   0.008  0.00  0.00    +0.009 C 
ATOM      8  N   UNL     1      -4.439  -0.039   3.640  0.00  0.00    +0.389 N 
ATOM      9  H   UNL     1      -4.993  -0.196   4.490  0.00  0.00    -0.084 HD
ATOM     10  H   UNL     1      -3.807  -0.835   3.492  0.00  0.00    -0.084 HD
ENDROOT
BRANCH   4  11
ATOM     11  C   UNL     1      -6.255   1.270   2.674  0.00  0.00    -0.061 A 
ATOM     12  C   UNL     1      -6.171   2.023   3.830  0.00  0.00    +0.004 A 
ATOM     13  C   UNL     1      -6.997   3.116   4.005  0.00  0.00    +0.023 A 
ATOM     14  C   UNL     1      -7.921   3.450   3.024  0.00  0.00    +0.029 A 
ATOM     15  C   UNL     1      -8.007   2.688   1.866  0.00  0.00    +0.023 A 
ATOM     16  C   UNL     1      -7.173   1.600   1.694  0.00  0.00    +0.004 A 
BRANCH  14  17
ATOM     17  N   UNL     1      -8.763   4.551   3.200  0.00  0.00    -0.336 N 
ATOM     18  C   UNL     1      -9.817   4.831   2.223  0.00  0.00    +0.129 C 
ATOM     19  C   UNL     1      -8.590   5.426   4.363  0.00  0.00    +0.129 C 
ENDBRANCH  14  17
ENDBRANCH   4  11
BRANCH   3  20
ATOM     20  C   UNL     1      -2.757   1.051   5.012  0.00  0.00    -0.061 A 
ATOM     21  C   UNL     1      -2.141  -0.157   5.281  0.00  0.00    +0.004 A 
ATOM     22  C   UNL     1      -1.326  -0.287   6.388  0.00  0.00    +0.023 A 
ATOM     23  C   UNL     1      -1.134   0.795   7.238  0.00  0.00    +0.029 A 
ATOM     24  C   UNL     1      -1.759   2.006   6.968  0.00  0.00    +0.023 A 
ATOM     25  C   UNL     1      -2.568   2.130   5.856  0.00  0.00    +0.004 A 
BRANCH  23  26
ATOM     26  N   UNL     1      -0.315   0.665   8.362  0.00  0.00    -0.336 N 
ATOM     27  C   UNL     1      -0.202   1.770   9.317  0.00  0.00    +0.129 C 
ATOM     28  C   UNL     1       0.432  -0.575   8.585  0.00  0.00    +0.129 C 
ENDBRANCH  23  26
ENDBRANCH   3  20
BRANCH   6  29
ATOM     29  O   UNL     1      -4.523   2.670   1.464  0.00  0.00    -0.388 OA
ATOM     30  H   UNL     1      -4.046   3.507   1.549  0.00  0.00    +0.210 HD
ENDBRANCH   6  29
BRANCH   6  31
ATOM     31  C   UNL     1      -2.808   1.685   0.073  0.00  0.00    +0.061 C 
BRANCH  31  32
ATOM     32  C   UNL     1      -1.879   2.858   0.247  0.00  0.00    -0.032 C 
ATOM     33  C   UNL     1      -0.587   2.697   0.103  0.00  0.00    +0.004 C 
ENDBRANCH  31  32
ENDBRANCH   6  31
TORSDOF 7
