REMARK  Name = ZINC63213762
REMARK  4 active torsions:
REMARK  status: ('A' for Active; 'I' for Inactive)
REMARK    1  A    between atoms: C_5  and  S_8
REMARK    2  A    between atoms: S_8  and  N_11
REMARK    3  A    between atoms: N_11  and  C_12
REMARK    4  A    between atoms: C_19  and  N_21
REMARK                            x       y       z     vdW  Elec       q    Type
REMARK                         _______ _______ _______ _____ _____    ______ ____
ROOT
ATOM      1  N   UNL     1       1.256  -2.940   1.555  0.00  0.00    -0.188 NA
ATOM      2  H   UNL     1       2.027  -3.414   1.904  0.00  0.00    +0.148 HD
ENDROOT
BRANCH   1   3
ATOM      3  C   UNL     1       0.111  -2.665   2.426  0.00  0.00    +0.062 C 
ATOM      4  C   UNL     1       0.364  -1.345   3.178  0.00  0.00    +0.019 C 
ATOM      5  C   UNL     1      -0.528  -1.187   4.380  0.00  0.00    +0.001 C 
ATOM      6  C   UNL     1       0.226  -1.706   5.621  0.00  0.00    -0.000 C 
ATOM      7  C   UNL     1       0.188  -3.158   5.727  0.00  0.00    -0.002 C 
ATOM      8  C   UNL     1       0.869  -3.852   4.530  0.00  0.00    -0.015 C 
ATOM      9  C   UNL     1      -0.091  -3.862   3.374  0.00  0.00    -0.056 C 
BRANCH   9  10
ATOM     10  N   UNL     1       0.096  -5.106   2.616  0.00  0.00    +0.381 N 
ATOM     11  H   UNL     1       1.028  -5.129   2.232  0.00  0.00    -0.090 HD
ATOM     12  H   UNL     1      -0.034  -5.897   3.230  0.00  0.00    -0.090 HD
ATOM     13  H   UNL     1      -0.579  -5.148   1.867  0.00  0.00    -0.090 HD
ENDBRANCH   9  10
ENDBRANCH   1   3
BRANCH   1  14
ATOM     14  S   UNL     1       1.235  -2.442  -0.024  0.00  0.00    +0.062 S 
ATOM     15  O   UNL     1      -0.010  -2.862  -0.566  0.00  0.00    -0.153 OA
ATOM     16  O   UNL     1       2.480  -2.827  -0.589  0.00  0.00    -0.153 OA
BRANCH  14  21
ATOM     17  C   UNL     1      -0.017   1.380   0.010  0.00  0.00    +0.078 A 
ATOM     18  C   UNL     1       1.173   2.088   0.002  0.00  0.00    +0.127 A 
ATOM     19  C   UNL     1       2.381   1.411  -0.013  0.00  0.00    +0.055 A 
ATOM     20  C   UNL     1       2.399   0.028  -0.021  0.00  0.00    +0.050 A 
ATOM     21  C   UNL     1       1.211  -0.680  -0.014  0.00  0.00    +0.154 A 
ATOM     22  C   UNL     1       0.002  -0.004   0.002  0.00  0.00    +0.153 A 
ATOM     23  F   UNL     1      -1.159  -0.696   0.009  0.00  0.00    -0.203 F 
ATOM     24 BR   UNL     1       4.049  -0.896  -0.041  0.00  0.00    -0.048 Br
ATOM     25  F   UNL     1       1.156   3.439   0.009  0.00  0.00    -0.205 F 
ENDBRANCH  14  21
ENDBRANCH   1  14
TORSDOF 4
