REMARK  Name = ZINC36552462
REMARK  16 active torsions:
REMARK  status: ('A' for Active; 'I' for Inactive)
REMARK    1  A    between atoms: C_1  and  C_2
REMARK    2  A    between atoms: C_2  and  C_3
REMARK    3  A    between atoms: C_3  and  C_4
REMARK    4  A    between atoms: C_4  and  C_5
REMARK    5  A    between atoms: C_5  and  C_6
REMARK    6  A    between atoms: N_8  and  C_9
REMARK    7  A    between atoms: N_8  and  C_16
REMARK    8  A    between atoms: C_16  and  C_18
REMARK    9  A    between atoms: C_16  and  C_27
REMARK   10  A    between atoms: C_19  and  O_26
REMARK   11  A    between atoms: C_21  and  O_25
REMARK   12  A    between atoms: C_23  and  O_24
REMARK   13  A    between atoms: N_29  and  C_30
REMARK   14  A    between atoms: C_30  and  C_31
REMARK   15  A    between atoms: C_30  and  C_32
REMARK   16  A    between atoms: C_30  and  C_33
REMARK                            x       y       z     vdW  Elec       q    Type
REMARK                         _______ _______ _______ _____ _____    ______ ____
ROOT
ATOM      1  C   UNL     1       1.823  -6.120  -3.292  0.00  0.00    +0.204 C 
ENDROOT
BRANCH   1   2
ATOM      2  C   UNL     1       3.263  -5.895  -3.676  0.00  0.00    +0.065 A 
ATOM      3  C   UNL     1       3.647  -4.696  -4.256  0.00  0.00    +0.129 A 
ATOM      4  C   UNL     1       4.972  -4.489  -4.609  0.00  0.00    +0.091 A 
ATOM      5  C   UNL     1       5.913  -5.481  -4.381  0.00  0.00    +0.124 A 
ATOM      6  C   UNL     1       5.529  -6.680  -3.800  0.00  0.00    +0.091 A 
ATOM      7  C   UNL     1       4.205  -6.886  -3.443  0.00  0.00    +0.129 A 
BRANCH   7   8
ATOM      8  O   UNL     1       3.830  -8.059  -2.869  0.00  0.00    -0.506 OA
ATOM      9  H   UNL     1       3.562  -8.738  -3.503  0.00  0.00    +0.292 HD
ENDBRANCH   7   8
BRANCH   5  10
ATOM     10  O   UNL     1       7.212  -5.279  -4.728  0.00  0.00    -0.507 OA
ATOM     11  H   UNL     1       7.748  -4.884  -4.027  0.00  0.00    +0.292 HD
ENDBRANCH   5  10
BRANCH   3  12
ATOM     12  O   UNL     1       2.724  -3.723  -4.479  0.00  0.00    -0.506 OA
ATOM     13  H   UNL     1       2.673  -3.061  -3.777  0.00  0.00    +0.292 HD
ENDBRANCH   3  12
ENDBRANCH   1   2
BRANCH   1  14
ATOM     14  C   UNL     1       1.001  -6.343  -4.536  0.00  0.00    +0.239 C 
ATOM     15  O   UNL     1       0.638  -5.397  -5.201  0.00  0.00    -0.273 OA
ATOM     16  N   UNL     1       0.669  -7.596  -4.908  0.00  0.00    -0.309 N 
ATOM     17  H   UNL     1       0.959  -8.353  -4.375  0.00  0.00    +0.149 HD
BRANCH  16  18
ATOM     18  C   UNL     1      -0.130  -7.813  -6.116  0.00  0.00    +0.026 C 
ATOM     19  C   UNL     1       0.617  -7.253  -7.329  0.00  0.00    +0.031 C 
ATOM     20  C   UNL     1      -0.364  -9.313  -6.310  0.00  0.00    +0.031 C 
ATOM     21  C   UNL     1      -1.476  -7.101  -5.972  0.00  0.00    +0.031 C 
ENDBRANCH  16  18
ENDBRANCH   1  14
BRANCH   1  24
ATOM     22  C   UNL     1       2.044  -4.398  -1.583  0.00  0.00    +0.221 C 
ATOM     23  O   UNL     1       3.155  -4.820  -1.339  0.00  0.00    -0.275 OA
ATOM     24  N   UNL     1       1.319  -4.944  -2.579  0.00  0.00    -0.255 N 
BRANCH  24  25
ATOM     25  C   UNL     1       0.084  -4.389  -2.930  0.00  0.00    +0.039 A 
ATOM     26  C   UNL     1      -1.088  -5.102  -2.712  0.00  0.00    +0.023 A 
ATOM     27  C   UNL     1      -2.306  -4.551  -3.060  0.00  0.00    +0.003 A 
ATOM     28  C   UNL     1      -2.360  -3.291  -3.626  0.00  0.00    +0.020 A 
ATOM     29  C   UNL     1      -1.195  -2.577  -3.845  0.00  0.00    +0.043 A 
ATOM     30  C   UNL     1       0.026  -3.121  -3.493  0.00  0.00    +0.043 A 
ATOM     31 CL   UNL     1      -1.268  -0.995  -4.555  0.00  0.00    -0.083 Cl
ENDBRANCH  24  25
BRANCH  22  32
ATOM     32  C   UNL     1       1.475  -3.262  -0.771  0.00  0.00    +0.096 C 
BRANCH  32  33
ATOM     33  C   UNL     1       2.441  -2.912   0.362  0.00  0.00    +0.009 C 
BRANCH  33  34
ATOM     34  C   UNL     1       1.863  -1.759   1.186  0.00  0.00    +0.000 C 
BRANCH  34  36
ATOM     35  C   UNL     1       2.252  -0.256   3.143  0.00  0.00    +0.004 C 
ATOM     36  C   UNL     1       2.829  -1.408   2.320  0.00  0.00    -0.003 C 
ENDBRANCH  34  36
ENDBRANCH  33  34
ENDBRANCH  32  33
ENDBRANCH  22  32
ENDBRANCH   1  24
TORSDOF 12
