REMARK  Name = ZINC64375510
REMARK  6 active torsions:
REMARK  status: ('A' for Active; 'I' for Inactive)
REMARK    1  A    between atoms: C_7  and  C_10
REMARK    2  A    between atoms: C_10  and  C_11
REMARK    3  A    between atoms: C_11  and  N_12
REMARK    4  A    between atoms: C_13  and  C_15
REMARK    5  A    between atoms: C_22  and  N_25
REMARK    6  A    between atoms: C_26  and  C_28
REMARK                            x       y       z     vdW  Elec       q    Type
REMARK                         _______ _______ _______ _____ _____    ______ ____
ROOT
ATOM      1  C   UNL     1      -1.694  -6.485  -2.622  0.00  0.00    +0.032 C 
ATOM      2  H   UNL     1      -1.926  -6.423  -5.665  0.00  0.00    +0.148 HD
ATOM      3  C   UNL     1      -2.302  -7.094  -1.381  0.00  0.00    +0.043 C 
ATOM      4  C   UNL     1      -2.820  -8.479  -1.835  0.00  0.00    +0.025 C 
ATOM      5  C   UNL     1      -3.113  -8.221  -3.321  0.00  0.00    +0.094 C 
ATOM      6  C   UNL     1      -2.111  -7.133  -3.730  0.00  0.00    +0.027 C 
ATOM      7  N   UNL     1      -1.879  -7.196  -5.081  0.00  0.00    -0.320 N 
ATOM      8  C   UNL     1      -1.550  -8.562  -5.563  0.00  0.00    +0.220 C 
ATOM      9  S   UNL     1      -2.463  -9.610  -4.342  0.00  0.00    -0.110 S 
ENDROOT
BRANCH   1  11
ATOM     10  N   UNL     1      -0.458  -4.798  -1.460  0.00  0.00    -0.311 N 
ATOM     11  C   UNL     1      -0.811  -5.380  -2.623  0.00  0.00    +0.242 C 
ATOM     12  O   UNL     1      -0.369  -4.955  -3.675  0.00  0.00    -0.270 OA
ATOM     13  H   UNL     1      -0.810  -5.136  -0.622  0.00  0.00    +0.149 HD
BRANCH  10  14
ATOM     14  C   UNL     1       0.457  -3.653  -1.462  0.00  0.00    +0.109 C 
BRANCH  14  15
ATOM     15  C   UNL     1       0.691  -3.186  -0.024  0.00  0.00    +0.052 C 
BRANCH  15  22
ATOM     16  C   UNL     1      -0.016   1.348   0.009  0.00  0.00    +0.001 A 
ATOM     17  C   UNL     1       1.166   2.101   0.002  0.00  0.00    +0.002 A 
ATOM     18  C   UNL     1       2.391   1.535  -0.013  0.00  0.00    +0.026 A 
ATOM     19  C   UNL     1       2.529   0.120  -0.022  0.00  0.00    +0.043 A 
ATOM     20  N   UNL     1       3.587  -0.654  -0.037  0.00  0.00    -0.380 N 
ATOM     21  C   UNL     1       3.143  -2.053  -0.041  0.00  0.00    +0.144 C 
ATOM     22  C   UNL     1       1.631  -2.008  -0.025  0.00  0.00    -0.040 C 
ATOM     23  C   UNL     1       1.295  -0.698  -0.014  0.00  0.00    -0.001 A 
ATOM     24  C   UNL     1       0.002  -0.004   0.002  0.00  0.00    +0.010 A 
ATOM     25  H   UNL     1       4.509  -0.353  -0.045  0.00  0.00    +0.160 HD
ENDBRANCH  15  22
ENDBRANCH  14  15
ENDBRANCH  10  14
ENDBRANCH   1  11
BRANCH   8  26
ATOM     26  N   UNL     1      -2.049  -8.774  -6.924  0.00  0.00    -0.284 N 
ATOM     27  C   UNL     1      -1.601  -9.817  -7.650  0.00  0.00    +0.246 C 
ATOM     28  O   UNL     1      -0.783 -10.582  -7.176  0.00  0.00    -0.270 OA
ATOM     29  H   UNL     1      -2.701  -8.164  -7.302  0.00  0.00    +0.152 HD
BRANCH  27  30
ATOM     30  C   UNL     1      -2.103 -10.032  -9.022  0.00  0.00    +0.040 A 
ATOM     31  C   UNL     1      -3.039  -9.151  -9.570  0.00  0.00    +0.017 A 
ATOM     32  C   UNL     1      -3.506  -9.352 -10.851  0.00  0.00    +0.050 A 
ATOM     33  C   UNL     1      -3.050 -10.429 -11.600  0.00  0.00    +0.166 A 
ATOM     34  C   UNL     1      -2.117 -11.312 -11.057  0.00  0.00    +0.167 A 
ATOM     35  C   UNL     1      -1.641 -11.113  -9.776  0.00  0.00    +0.062 A 
ATOM     36  O   UNL     1      -1.836 -12.273 -11.986  0.00  0.00    -0.453 OA
ATOM     37  C   UNL     1      -2.908 -12.204 -12.945  0.00  0.00    +0.466 C 
ATOM     38  O   UNL     1      -3.351 -10.837 -12.865  0.00  0.00    -0.453 OA
ENDBRANCH  27  30
ENDBRANCH   8  26
TORSDOF 6
