REMARK  Name = ZINC67545567
REMARK  9 active torsions:
REMARK  status: ('A' for Active; 'I' for Inactive)
REMARK    1  A    between atoms: C_1  and  C_2
REMARK    2  A    between atoms: N_5  and  C_8
REMARK    3  A    between atoms: C_8  and  C_9
REMARK    4  A    between atoms: C_9  and  C_11
REMARK    5  A    between atoms: C_9  and  O_27
REMARK    6  A    between atoms: C_11  and  N_12
REMARK    7  A    between atoms: N_15  and  C_16
REMARK    8  A    between atoms: C_19  and  O_23
REMARK    9  A    between atoms: O_23  and  C_24
REMARK                            x       y       z     vdW  Elec       q    Type
REMARK                         _______ _______ _______ _____ _____    ______ ____
ROOT
ATOM      1  N   UNL     1       3.835  -6.269   2.049  0.00  0.00    -0.297 N 
ATOM      2  C   UNL     1       4.290  -7.536   2.115  0.00  0.00    +0.304 C 
ATOM      3  O   UNL     1       3.816  -8.391   1.393  0.00  0.00    -0.253 OA
ATOM      4  N   UNL     1       5.272  -7.854   2.982  0.00  0.00    -0.269 N 
ATOM      5  H   UNL     1       4.213  -5.587   2.625  0.00  0.00    +0.150 HD
ATOM      6  H   UNL     1       5.601  -7.190   3.608  0.00  0.00    +0.156 HD
ENDROOT
BRANCH   4   7
ATOM      7  C   UNL     1       5.819  -9.144   2.978  0.00  0.00    +0.038 A 
ATOM      8  C   UNL     1       6.254  -9.718   4.165  0.00  0.00    +0.027 A 
ATOM      9  C   UNL     1       6.793 -10.990   4.161  0.00  0.00    +0.050 A 
ATOM     10  C   UNL     1       6.900 -11.695   2.972  0.00  0.00    +0.162 A 
ATOM     11  C   UNL     1       6.466 -11.122   1.783  0.00  0.00    +0.167 A 
ATOM     12  C   UNL     1       5.921  -9.851   1.787  0.00  0.00    +0.065 A 
ATOM     13  F   UNL     1       6.571 -11.809   0.625  0.00  0.00    -0.202 F 
BRANCH  10  14
ATOM     14  O   UNL     1       7.431 -12.947   2.970  0.00  0.00    -0.431 OA
BRANCH  14  15
ATOM     15  C   UNL     1       7.857 -13.474   4.228  0.00  0.00    +0.541 C 
ATOM     16  F   UNL     1       8.848 -12.647   4.768  0.00  0.00    -0.166 F 
ATOM     17  F   UNL     1       6.768 -13.529   5.104  0.00  0.00    -0.166 F 
ENDBRANCH  14  15
ENDBRANCH  10  14
ENDBRANCH   4   7
BRANCH   1  18
ATOM     18  C   UNL     1       2.767  -5.923   1.107  0.00  0.00    +0.135 C 
BRANCH  18  19
ATOM     19  C   UNL     1       2.439  -4.434   1.233  0.00  0.00    +0.115 C 
BRANCH  19  20
ATOM     20  O   UNL     1       2.008  -4.152   2.566  0.00  0.00    -0.392 OA
ATOM     21  H   UNL     1       1.219  -4.642   2.836  0.00  0.00    +0.210 HD
ENDBRANCH  19  20
BRANCH  19  22
ATOM     22  C   UNL     1       1.325  -4.072   0.249  0.00  0.00    -0.046 C 
BRANCH  22  27
ATOM     23  C   UNL     1       0.490   1.494  -0.665  0.00  0.00    +0.007 C 
ATOM     24  C   UNL     1       0.776   0.004  -0.863  0.00  0.00    -0.018 C 
ATOM     25  C   UNL     1       2.007  -0.394  -0.043  0.00  0.00    -0.016 C 
ATOM     26  C   UNL     1       2.240  -1.900  -0.182  0.00  0.00    -0.078 C 
ATOM     27  N   UNL     1       1.065  -2.628   0.312  0.00  0.00    +0.381 N 
ATOM     28  C   UNL     1      -0.104  -2.306  -0.515  0.00  0.00    -0.078 C 
ATOM     29  C   UNL     1      -0.427  -0.815  -0.389  0.00  0.00    -0.016 C 
ATOM     30  H   UNL     1       0.884  -2.362   1.268  0.00  0.00    -0.082 HD
ENDBRANCH  22  27
ENDBRANCH  19  22
ENDBRANCH  18  19
ENDBRANCH   1  18
TORSDOF 8
