REMARK  Name = ZINC13134857
REMARK  7 active torsions:
REMARK  status: ('A' for Active; 'I' for Inactive)
REMARK    1  A    between atoms: C_6  and  S_7
REMARK    2  A    between atoms: S_7  and  C_8
REMARK    3  A    between atoms: C_11  and  N_30
REMARK    4  A    between atoms: C_13  and  C_14
REMARK    5  A    between atoms: N_16  and  C_17
REMARK    6  A    between atoms: C_17  and  C_18
REMARK    7  A    between atoms: N_20  and  C_21
REMARK                            x       y       z     vdW  Elec       q    Type
REMARK                         _______ _______ _______ _____ _____    ______ ____
ROOT
ATOM      1  C   UNL     1       3.873   7.500   0.707  0.00  0.00    +0.246 C 
ATOM      2  O   UNL     1       2.944   8.283   0.738  0.00  0.00    -0.270 OA
ATOM      3  N   UNL     1       3.637   6.173   0.722  0.00  0.00    -0.303 N 
ATOM      4  H   UNL     1       4.379   5.548   0.698  0.00  0.00    +0.150 HD
ENDROOT
BRANCH   1  10
ATOM      5  C   UNL     1       5.509   9.383   0.632  0.00  0.00    +0.025 A 
ATOM      6  C   UNL     1       6.820   9.843   0.587  0.00  0.00    +0.018 A 
ATOM      7  C   UNL     1       7.867   8.945   0.553  0.00  0.00    +0.034 A 
ATOM      8  C   UNL     1       7.622   7.580   0.569  0.00  0.00    +0.127 A 
ATOM      9  C   UNL     1       6.330   7.105   0.619  0.00  0.00    +0.047 A 
ATOM     10  C   UNL     1       5.258   8.001   0.654  0.00  0.00    +0.053 A 
BRANCH   8  11
ATOM     11  N   UNL     1       8.755   6.629   0.532  0.00  0.00    +0.056 N 
ATOM     12  O   UNL     1       8.544   5.429   0.545  0.00  0.00    -0.126 OA
ATOM     13  O   UNL     1       9.899   7.045   0.488  0.00  0.00    -0.126 OA
ENDBRANCH   8  11
BRANCH   5  14
ATOM     14  S   UNL     1       4.170  10.527   0.668  0.00  0.00    -0.089 S 
BRANCH  14  20
ATOM     15  C   UNL     1       4.179   9.748  -1.956  0.00  0.00    +0.016 A 
ATOM     16  C   UNL     1       3.671   9.712  -3.239  0.00  0.00    +0.021 A 
ATOM     17  C   UNL     1       2.522  10.417  -3.550  0.00  0.00    +0.041 A 
ATOM     18  C   UNL     1       1.876  11.157  -2.575  0.00  0.00    +0.021 A 
ATOM     19  C   UNL     1       2.375  11.192  -1.288  0.00  0.00    +0.016 A 
ATOM     20  C   UNL     1       3.529  10.484  -0.973  0.00  0.00    +0.013 A 
ATOM     21 CL   UNL     1       1.890  10.375  -5.167  0.00  0.00    -0.084 Cl
ENDBRANCH  14  20
ENDBRANCH   5  14
ENDBRANCH   1  10
BRANCH   3  22
ATOM     22  C   UNL     1       2.261   5.674   0.775  0.00  0.00    +0.200 C 
BRANCH  22  23
ATOM     23  C   UNL     1       2.272   4.167   0.782  0.00  0.00    +0.234 C 
ATOM     24  O   UNL     1       3.327   3.568   0.746  0.00  0.00    -0.274 OA
ATOM     25  N   UNL     1       1.111   3.485   0.828  0.00  0.00    -0.282 N 
ATOM     26  H   UNL     1       0.267   3.960   0.779  0.00  0.00    +0.155 HD
BRANCH  25  27
ATOM     27  C   UNL     1       1.123   2.088   0.948  0.00  0.00    +0.072 A 
ATOM     28  C   UNL     1       2.218   1.448   1.512  0.00  0.00    +0.029 A 
ATOM     29  C   UNL     1       2.230   0.072   1.629  0.00  0.00    +0.043 A 
ATOM     30  C   UNL     1       1.150  -0.672   1.184  0.00  0.00    +0.161 A 
ATOM     31  C   UNL     1       0.054  -0.037   0.620  0.00  0.00    +0.195 A 
ATOM     32  C   UNL     1       0.039   1.342   0.501  0.00  0.00    +0.182 A 
ATOM     33  F   UNL     1      -1.026   1.962  -0.054  0.00  0.00    -0.200 F 
ATOM     34  F   UNL     1      -0.998  -0.765   0.186  0.00  0.00    -0.199 F 
ATOM     35  F   UNL     1       1.165  -2.018   1.300  0.00  0.00    -0.202 F 
ENDBRANCH  25  27
ENDBRANCH  22  23
ENDBRANCH   3  22
TORSDOF 7
