REMARK  Name = ZINC49544960
REMARK  8 active torsions:
REMARK  status: ('A' for Active; 'I' for Inactive)
REMARK    1  A    between atoms: C_1  and  C_2
REMARK    2  A    between atoms: C_2  and  C_3
REMARK    3  A    between atoms: C_3  and  C_4
REMARK    4  A    between atoms: C_4  and  C_6
REMARK    5  A    between atoms: C_4  and  N_11
REMARK    6  A    between atoms: N_11  and  C_12
REMARK    7  A    between atoms: C_12  and  C_13
REMARK    8  A    between atoms: C_16  and  C_20
REMARK                            x       y       z     vdW  Elec       q    Type
REMARK                         _______ _______ _______ _____ _____    ______ ____
ROOT
ATOM      1  C   UNL     1       0.522  -2.401  -1.491  0.00  0.00    -0.043 C 
ENDROOT
BRANCH   1   2
ATOM      2  C   UNL     1       1.025  -2.975  -2.791  0.00  0.00    -0.029 A 
ATOM      3  C   UNL     1       1.630  -4.219  -2.806  0.00  0.00    +0.005 A 
ATOM      4  C   UNL     1       2.093  -4.750  -3.992  0.00  0.00    +0.013 A 
ATOM      5  C   UNL     1       1.949  -4.030  -5.180  0.00  0.00    +0.039 A 
ATOM      6  C   UNL     1       1.338  -2.776  -5.160  0.00  0.00    +0.051 A 
ATOM      7  C   UNL     1       0.874  -2.257  -3.966  0.00  0.00    +0.125 A 
ATOM      8  F   UNL     1       0.276  -1.046  -3.945  0.00  0.00    -0.205 F 
BRANCH   5   9
ATOM      9  C   UNL     1       2.444  -4.595  -6.454  0.00  0.00    +0.242 C 
ATOM     10  O   UNL     1       2.977  -5.687  -6.468  0.00  0.00    -0.270 OA
ATOM     11  N   UNL     1       2.304  -3.898  -7.599  0.00  0.00    -0.325 N 
ATOM     12  H   UNL     1       1.879  -3.026  -7.587  0.00  0.00    +0.145 HD
ATOM     13  H   UNL     1       2.628  -4.268  -8.435  0.00  0.00    +0.145 HD
ENDBRANCH   5   9
ENDBRANCH   1   2
BRANCH   1  14
ATOM     14  N   UNL     1      -0.928  -2.611  -1.391  0.00  0.00    +0.387 N 
ATOM     15  H   UNL     1      -1.122  -3.600  -1.337  0.00  0.00    -0.085 HD
ATOM     16  H   UNL     1      -1.381  -2.224  -2.206  0.00  0.00    -0.085 HD
BRANCH  14  17
ATOM     17  C   UNL     1      -1.437  -1.946  -0.185  0.00  0.00    -0.034 C 
BRANCH  17  18
ATOM     18  C   UNL     1      -0.863  -2.614   1.038  0.00  0.00    -0.024 A 
ATOM     19  C   UNL     1      -0.422  -2.052   2.190  0.00  0.00    +0.009 A 
ATOM     20  C   UNL     1       0.070  -2.870   3.189  0.00  0.00    +0.008 A 
ATOM     21  C   UNL     1       0.098  -4.210   2.988  0.00  0.00    +0.045 A 
ATOM     22  S   UNL     1      -0.592  -4.351   1.347  0.00  0.00    -0.103 S 
ENDBRANCH  17  18
BRANCH  17  23
ATOM     23  C   UNL     1      -2.964  -2.048  -0.152  0.00  0.00    -0.011 C 
BRANCH  23  25
ATOM     24  C   UNL     1      -5.080  -1.259  -1.220  0.00  0.00    +0.004 C 
ATOM     25  C   UNL     1      -3.553  -1.256  -1.321  0.00  0.00    -0.005 C 
ENDBRANCH  23  25
ENDBRANCH  17  23
ENDBRANCH  14  17
ENDBRANCH   1  14
TORSDOF 7
