REMARK  Name = ZINC22939348
REMARK  14 active torsions:
REMARK  status: ('A' for Active; 'I' for Inactive)
REMARK    1  A    between atoms: C_1  and  C_2
REMARK    2  A    between atoms: C_2  and  C_3
REMARK    3  A    between atoms: C_3  and  N_4
REMARK    4  A    between atoms: N_7  and  C_10
REMARK    5  A    between atoms: C_10  and  C_11
REMARK    6  A    between atoms: C_11  and  C_12
REMARK    7  A    between atoms: C_12  and  N_13
REMARK    8  A    between atoms: N_13  and  C_14
REMARK    9  A    between atoms: C_14  and  N_16
REMARK   10  A    between atoms: N_16  and  C_17
REMARK   11  A    between atoms: C_23  and  C_35
REMARK   12  A    between atoms: C_25  and  N_27
REMARK   13  A    between atoms: N_30  and  C_33
REMARK   14  A    between atoms: C_33  and  C_34
REMARK                            x       y       z     vdW  Elec       q    Type
REMARK                         _______ _______ _______ _____ _____    ______ ____
ROOT
ATOM      1  C   UNL     1       2.300 -11.451  -6.944  0.00  0.00    +0.033 A 
ATOM      2  C   UNL     1       1.831 -12.458  -6.093  0.00  0.00    +0.025 A 
ATOM      3  C   UNL     1       2.007 -13.771  -6.399  0.00  0.00    +0.030 A 
ATOM      4  C   UNL     1       2.668 -14.133  -7.586  0.00  0.00    +0.073 A 
ATOM      5  C   UNL     1       3.144 -13.119  -8.452  0.00  0.00    +0.005 A 
ATOM      6  C   UNL     1       2.946 -11.771  -8.117  0.00  0.00    +0.033 A 
ATOM      7  C   UNL     1       3.807 -13.487  -9.641  0.00  0.00    -0.038 A 
ATOM      8  C   UNL     1       3.962 -14.813  -9.910  0.00  0.00    +0.047 A 
ATOM      9  C   UNL     1       3.468 -15.770  -9.013  0.00  0.00    +0.122 A 
ATOM     10  N   UNL     1       2.850 -15.421  -7.904  0.00  0.00    -0.232 NA
ATOM     11  C   UNL     1       4.329 -12.439 -10.590  0.00  0.00    +0.044 C 
ENDROOT
BRANCH   9  12
ATOM     12  N   UNL     1       3.634 -17.118  -9.300  0.00  0.00    -0.319 N 
ATOM     13  C   UNL     1       2.937 -18.149  -8.517  0.00  0.00    +0.088 C 
ATOM     14  C   UNL     1       2.234 -19.104  -9.488  0.00  0.00    -0.060 C 
ATOM     15  N   UNL     1       3.211 -19.630 -10.450  0.00  0.00    +0.382 N 
ATOM     16  C   UNL     1       3.734 -18.537 -11.279  0.00  0.00    -0.060 C 
ATOM     17  C   UNL     1       4.507 -17.555 -10.401  0.00  0.00    +0.088 C 
ATOM     18  H   UNL     1       3.972 -20.065  -9.950  0.00  0.00    -0.082 HD
BRANCH  15  19
ATOM     19  C   UNL     1       2.560 -20.627 -11.310  0.00  0.00    -0.082 C 
ATOM     20  C   UNL     1       3.604 -21.266 -12.229  0.00  0.00    -0.017 C 
ENDBRANCH  15  19
ENDBRANCH   9  12
BRANCH   1  21
ATOM     21  N   UNL     1       2.105 -10.108  -6.602  0.00  0.00    -0.297 N 
ATOM     22  H   UNL     1       1.783  -9.480  -7.268  0.00  0.00    +0.154 HD
BRANCH  21  23
ATOM     23  C   UNL     1       2.365  -9.686  -5.349  0.00  0.00    +0.135 C 
ATOM     24  S   UNL     1       2.830 -10.813  -4.146  0.00  0.00    -0.019 S 
BRANCH  23  25
ATOM     25  N   UNL     1       2.260  -8.378  -5.042  0.00  0.00    -0.326 N 
ATOM     26  H   UNL     1       1.996  -7.740  -5.724  0.00  0.00    +0.148 HD
BRANCH  25  27
ATOM     27  C   UNL     1       2.542  -7.920  -3.680  0.00  0.00    +0.104 C 
BRANCH  27  28
ATOM     28  C   UNL     1       2.350  -6.404  -3.601  0.00  0.00    +0.034 C 
BRANCH  28  29
ATOM     29  C   UNL     1       2.645  -5.926  -2.178  0.00  0.00    +0.086 C 
BRANCH  29  33
ATOM     30  N   UNL     1       3.269  -1.807  -1.464  0.00  0.00    +0.381 N 
ATOM     31  C   UNL     1       2.246  -2.498  -0.669  0.00  0.00    -0.063 C 
ATOM     32  C   UNL     1       2.502  -4.006  -0.709  0.00  0.00    +0.066 C 
ATOM     33  N   UNL     1       2.460  -4.471  -2.102  0.00  0.00    -0.306 NA
ATOM     34  C   UNL     1       3.463  -3.769  -2.917  0.00  0.00    +0.066 C 
ATOM     35  C   UNL     1       3.199  -2.263  -2.859  0.00  0.00    -0.063 C 
ATOM     36  H   UNL     1       4.183  -2.013  -1.089  0.00  0.00    -0.082 HD
BRANCH  30  37
ATOM     37  C   UNL     1       3.034  -0.357  -1.411  0.00  0.00    -0.079 C 
BRANCH  37  39
ATOM     38  C   UNL     1       2.986   1.648   0.078  0.00  0.00    +0.002 C 
ATOM     39  C   UNL     1       3.230   0.139   0.023  0.00  0.00    -0.022 C 
ENDBRANCH  37  39
ENDBRANCH  30  37
ENDBRANCH  29  33
ENDBRANCH  28  29
ENDBRANCH  27  28
ENDBRANCH  25  27
ENDBRANCH  23  25
ENDBRANCH  21  23
ENDBRANCH   1  21
TORSDOF 11
