REMARK  Name = ZINC09284941
REMARK  7 active torsions:
REMARK  status: ('A' for Active; 'I' for Inactive)
REMARK    1  A    between atoms: C_5  and  N_7
REMARK    2  A    between atoms: N_7  and  S_8
REMARK    3  A    between atoms: S_8  and  C_11
REMARK    4  A    between atoms: C_15  and  N_17
REMARK    5  A    between atoms: C_18  and  C_20
REMARK    6  A    between atoms: C_20  and  N_21
REMARK    7  A    between atoms: C_22  and  C_24
REMARK                            x       y       z     vdW  Elec       q    Type
REMARK                         _______ _______ _______ _____ _____    ______ ____
ROOT
ATOM      1  N   UNL     1      -2.063   4.088  -5.122  0.00  0.00    -0.284 N 
ATOM      2  C   UNL     1      -1.934   4.134  -6.463  0.00  0.00    +0.234 C 
ATOM      3  O   UNL     1      -2.273   3.185  -7.138  0.00  0.00    -0.274 OA
ATOM      4  H   UNL     1      -1.729   4.818  -4.578  0.00  0.00    +0.155 HD
ENDROOT
BRANCH   1   9
ATOM      5  C   UNL     1      -4.066   2.078  -2.785  0.00  0.00    +0.110 A 
ATOM      6  C   UNL     1      -3.898   0.812  -3.317  0.00  0.00    +0.029 A 
ATOM      7  C   UNL     1      -3.122   0.632  -4.447  0.00  0.00    +0.004 A 
ATOM      8  C   UNL     1      -2.512   1.716  -5.048  0.00  0.00    +0.023 A 
ATOM      9  C   UNL     1      -2.679   2.988  -4.516  0.00  0.00    +0.035 A 
ATOM     10  C   UNL     1      -3.464   3.166  -3.384  0.00  0.00    +0.052 A 
BRANCH   5  11
ATOM     11  S   UNL     1      -5.058   2.302  -1.345  0.00  0.00    +0.072 S 
ATOM     12  O   UNL     1      -5.958   1.204  -1.298  0.00  0.00    -0.150 OA
ATOM     13  O   UNL     1      -5.502   3.651  -1.364  0.00  0.00    -0.150 OA
BRANCH  11  14
ATOM     14  N   UNL     1      -4.058   2.151  -0.034  0.00  0.00    -0.213 N 
ATOM     15  H   UNL     1      -4.223   1.459   0.625  0.00  0.00    +0.174 HD
BRANCH  14  20
ATOM     16  C   UNL     1      -2.012   5.205  -0.119  0.00  0.00    +0.002 A 
ATOM     17  C   UNL     1      -0.828   4.744   0.428  0.00  0.00    +0.003 A 
ATOM     18  C   UNL     1      -0.715   3.424   0.826  0.00  0.00    +0.040 A 
ATOM     19  C   UNL     1      -1.785   2.561   0.677  0.00  0.00    +0.146 A 
ATOM     20  C   UNL     1      -2.974   3.022   0.123  0.00  0.00    +0.083 A 
ATOM     21  C   UNL     1      -3.085   4.348  -0.270  0.00  0.00    +0.027 A 
ATOM     22  F   UNL     1      -1.673   1.272   1.065  0.00  0.00    -0.204 F 
ENDBRANCH  14  20
ENDBRANCH  11  14
ENDBRANCH   5  11
ENDBRANCH   1   9
BRANCH   2  23
ATOM     23  C   UNL     1      -1.369   5.365  -7.124  0.00  0.00    +0.200 C 
BRANCH  23  24
ATOM     24  N   UNL     1      -1.333   5.167  -8.575  0.00  0.00    -0.306 N 
ATOM     25  C   UNL     1      -0.862   6.142  -9.377  0.00  0.00    +0.220 C 
ATOM     26  O   UNL     1      -0.468   7.184  -8.897  0.00  0.00    -0.275 OA
ATOM     27  H   UNL     1      -1.647   4.333  -8.959  0.00  0.00    +0.149 HD
BRANCH  25  28
ATOM     28  C   UNL     1      -0.824   5.938 -10.870  0.00  0.00    +0.048 C 
ATOM     29  C   UNL     1       0.058   4.732 -11.198  0.00  0.00    +0.019 C 
ATOM     30  C   UNL     1       0.096   4.526 -12.713  0.00  0.00    -0.009 C 
ATOM     31  C   UNL     1       0.670   5.775 -13.384  0.00  0.00    +0.007 C 
ATOM     32  C   UNL     1      -0.212   6.981 -13.056  0.00  0.00    -0.009 C 
ATOM     33  C   UNL     1      -0.250   7.188 -11.541  0.00  0.00    +0.019 C 
ATOM     34  C   UNL     1      -1.631   6.731 -13.573  0.00  0.00    +0.007 C 
ATOM     35  C   UNL     1      -2.205   5.481 -12.902  0.00  0.00    -0.009 C 
ATOM     36  C   UNL     1      -1.322   4.275 -13.230  0.00  0.00    +0.007 C 
ATOM     37  C   UNL     1      -2.243   5.688 -11.386  0.00  0.00    +0.019 C 
ENDBRANCH  25  28
ENDBRANCH  23  24
ENDBRANCH   2  23
TORSDOF 7
