REMARK  Name = ZINC62427421
REMARK  7 active torsions:
REMARK  status: ('A' for Active; 'I' for Inactive)
REMARK    1  A    between atoms: C_1  and  C_2
REMARK    2  A    between atoms: C_2  and  C_3
REMARK    3  A    between atoms: C_3  and  C_4
REMARK    4  A    between atoms: C_5  and  C_22
REMARK    5  A    between atoms: N_8  and  C_9
REMARK    6  A    between atoms: C_18  and  C_21
REMARK    7  A    between atoms: C_22  and  N_23
REMARK                            x       y       z     vdW  Elec       q    Type
REMARK                         _______ _______ _______ _____ _____    ______ ____
ROOT
ATOM      1  C   UNL     1      -1.432  -2.227  -2.652  0.00  0.00    +0.083 A 
ATOM      2  C   UNL     1      -1.975  -0.989  -2.312  0.00  0.00    +0.032 A 
ATOM      3  C   UNL     1      -3.059  -0.525  -3.034  0.00  0.00    +0.044 A 
ATOM      4  C   UNL     1      -3.568  -1.303  -4.068  0.00  0.00    +0.099 A 
ATOM      5  N   UNL     1      -3.027  -2.475  -4.363  0.00  0.00    -0.348 N 
ATOM      6  C   UNL     1      -1.989  -2.945  -3.698  0.00  0.00    +0.112 A 
ATOM      7  N   UNL     1      -4.659  -0.846  -4.801  0.00  0.00    -0.317 N 
ATOM      8  C   UNL     1      -5.359   0.386  -4.411  0.00  0.00    +0.107 C 
ATOM      9  C   UNL     1      -6.853   0.078  -4.263  0.00  0.00    +0.022 C 
ATOM     10  C   UNL     1      -7.369  -0.556  -5.557  0.00  0.00    -0.011 C 
ATOM     11  C   UNL     1      -6.628  -1.871  -5.814  0.00  0.00    +0.022 C 
ATOM     12  C   UNL     1      -5.129  -1.582  -5.982  0.00  0.00    +0.107 C 
ATOM     13  C   UNL     1      -8.868  -0.833  -5.426  0.00  0.00    +0.007 C 
ATOM     14  H   UNL     1      -3.401  -2.999  -5.088  0.00  0.00    +0.167 HD
ENDROOT
BRANCH   1  19
ATOM     15  C   UNL     1       0.773  -2.036  -1.573  0.00  0.00    +0.066 A 
ATOM     16  C   UNL     1       1.569  -2.913  -0.915  0.00  0.00    +0.069 A 
ATOM     17  N   UNL     1       0.928  -4.087  -0.922  0.00  0.00    -0.136 NA
ATOM     18  N   UNL     1      -0.191  -3.951  -1.541  0.00  0.00    -0.060 NA
ATOM     19  N   UNL     1      -0.332  -2.738  -1.946  0.00  0.00    -0.215 N 
BRANCH  15  20
ATOM     20  C   UNL     1       1.052  -0.578  -1.833  0.00  0.00    +0.057 C 
BRANCH  20  22
ATOM     21  C   UNL     1       1.842   1.071  -3.535  0.00  0.00    +0.004 C 
ATOM     22  C   UNL     1       1.674  -0.417  -3.221  0.00  0.00    +0.003 C 
ENDBRANCH  20  22
ENDBRANCH  15  20
BRANCH  16  23
ATOM     23  C   UNL     1       2.913  -2.622  -0.298  0.00  0.00    -0.026 C 
BRANCH  23  24
ATOM     24  N   UNL     1       2.729  -2.196   1.096  0.00  0.00    +0.382 N 
ATOM     25  H   UNL     1       2.160  -1.363   1.121  0.00  0.00    -0.090 HD
ATOM     26  H   UNL     1       2.272  -2.931   1.615  0.00  0.00    -0.090 HD
ATOM     27  H   UNL     1       3.629  -2.001   1.509  0.00  0.00    -0.090 HD
ENDBRANCH  23  24
ENDBRANCH  16  23
ENDBRANCH   1  19
TORSDOF 5
