REMARK  Name = ZINC01829585
REMARK  8 active torsions:
REMARK  status: ('A' for Active; 'I' for Inactive)
REMARK    1  A    between atoms: C_1  and  C_2
REMARK    2  A    between atoms: C_5  and  C_31
REMARK    3  A    between atoms: C_6  and  C_8
REMARK    4  A    between atoms: C_16  and  O_29
REMARK    5  A    between atoms: C_26  and  C_27
REMARK    6  A    between atoms: C_26  and  C_28
REMARK    7  A    between atoms: C_26  and  N_64
REMARK    8  A    between atoms: O_29  and  C_30
REMARK                            x       y       z     vdW  Elec       q    Type
REMARK                         _______ _______ _______ _____ _____    ______ ____
ROOT
ATOM      1  C   UNL     1      -4.137   4.255  -1.524  0.00  0.00    +0.047 C 
ATOM      2  C   UNL     1      -3.665   3.338  -0.657  0.00  0.00    +0.023 C 
ATOM      3  C   UNL     1      -2.468   3.981  -0.012  0.00  0.00    +0.138 C 
ATOM      4  C   UNL     1      -1.224   3.143   0.021  0.00  0.00    +0.021 A 
ATOM      5  C   UNL     1      -1.226   1.773   0.037  0.00  0.00    +0.009 A 
ATOM      6  C   UNL     1      -0.024   1.084   0.036  0.00  0.00    +0.004 A 
ATOM      7  C   UNL     1       1.170   1.781   0.009  0.00  0.00    +0.049 A 
ATOM      8  C   UNL     1       1.175   3.166  -0.006  0.00  0.00    +0.162 A 
ATOM      9  C   UNL     1      -0.027   3.866   0.007  0.00  0.00    +0.170 A 
ATOM     10  O   UNL     1      -0.044   5.221   0.031  0.00  0.00    -0.466 OA
ATOM     11  C   UNL     1      -1.169   5.957  -0.473  0.00  0.00    +0.177 C 
ATOM     12  N   UNL     1      -2.142   5.042  -1.013  0.00  0.00    -0.177 NA
ATOM     13  N   UNL     1      -3.349   5.422  -1.467  0.00  0.00    -0.273 N 
ATOM     14  C   UNL     1      -1.774   6.774   0.675  0.00  0.00    +0.048 C 
ATOM     15  C   UNL     1      -0.718   7.737   1.219  0.00  0.00    -0.073 C 
ATOM     16  C   UNL     1       0.348   7.882  -0.952  0.00  0.00    -0.073 C 
ATOM     17  C   UNL     1      -0.677   6.922  -1.559  0.00  0.00    +0.048 C 
ATOM     18  H   UNL     1      -3.622   6.321  -1.708  0.00  0.00    +0.167 HD
ATOM     19  N   UNL     1      -0.295   8.649   0.135  0.00  0.00    +0.381 N 
ATOM     20  H   UNL     1      -1.124   9.127  -0.240  0.00  0.00    -0.081 HD
ENDROOT
BRANCH   1  26
ATOM     21  C   UNL     1      -6.496   1.652  -5.071  0.00  0.00    +0.044 C 
ATOM     22  C   UNL     1      -6.449   2.815  -4.113  0.00  0.00    -0.050 A 
ATOM     23  C   UNL     1      -7.505   3.707  -4.058  0.00  0.00    +0.003 A 
ATOM     24  C   UNL     1      -7.469   4.776  -3.182  0.00  0.00    +0.004 A 
ATOM     25  C   UNL     1      -6.378   4.960  -2.356  0.00  0.00    -0.042 A 
ATOM     26  C   UNL     1      -5.311   4.064  -2.407  0.00  0.00    -0.000 A 
ATOM     27  C   UNL     1      -5.350   2.991  -3.298  0.00  0.00    +0.013 A 
ATOM     28  C   UNL     1      -6.341   6.125  -1.401  0.00  0.00    +0.044 C 
ENDBRANCH   1  26
BRANCH  19  29
ATOM     29  C   UNL     1       0.643   9.661   0.663  0.00  0.00    -0.075 C 
ATOM     30  C   UNL     1      -0.079  10.503   1.717  0.00  0.00    -0.014 C 
ATOM     31  C   UNL     1       1.861   8.985   1.297  0.00  0.00    -0.014 C 
ENDBRANCH  19  29
BRANCH   8  32
ATOM     32  O   UNL     1       2.355   3.841  -0.033  0.00  0.00    -0.491 OA
ATOM     33  C   UNL     1       3.551   3.059  -0.045  0.00  0.00    +0.277 C 
ENDBRANCH   8  32
TORSDOF 3
