REMARK  Name = ZINC02302877
REMARK  2 active torsions:
REMARK  status: ('A' for Active; 'I' for Inactive)
REMARK    1  A    between atoms: C_12  and  C_18
REMARK    2  A    between atoms: N_20  and  C_21
REMARK                            x       y       z     vdW  Elec       q    Type
REMARK                         _______ _______ _______ _____ _____    ______ ____
ROOT
ATOM      1  C   UNL     1      -4.848   9.386   0.086  0.00  0.00    +0.002 A 
ATOM      2  C   UNL     1      -6.233   9.478   0.102  0.00  0.00    +0.001 A 
ATOM      3  C   UNL     1      -6.988   8.319   0.109  0.00  0.00    +0.017 A 
ATOM      4  C   UNL     1      -6.358   7.100   0.104  0.00  0.00    +0.041 A 
ATOM      5  C   UNL     1      -4.951   6.968   0.082  0.00  0.00    +0.080 A 
ATOM      6  C   UNL     1      -4.211   8.173   0.076  0.00  0.00    +0.029 A 
ATOM      7  N   UNL     1      -4.482   5.701   0.073  0.00  0.00    -0.225 NA
ATOM      8  C   UNL     1      -5.276   4.655   0.079  0.00  0.00    +0.165 A 
ATOM      9  S   UNL     1      -6.897   5.407   0.100  0.00  0.00    -0.052 S 
ATOM     10  N   UNL     1      -4.942   3.312   0.071  0.00  0.00    -0.268 N 
ATOM     11  C   UNL     1      -5.928   2.357   0.185  0.00  0.00    +0.167 C 
ATOM     12  C   UNL     1      -8.255   1.751   0.316  0.00  0.00    +0.176 C 
ATOM     13  C   UNL     1      -7.870   0.455  -0.401  0.00  0.00    +0.130 C 
ATOM     14  C   UNL     1      -6.472   0.063   0.009  0.00  0.00    +0.222 C 
ATOM     15  O   UNL     1      -6.161  -1.106   0.086  0.00  0.00    -0.275 OA
ATOM     16  N   UNL     1      -5.571   1.028   0.287  0.00  0.00    -0.260 N 
ATOM     17  H   UNL     1      -4.014   3.044  -0.014  0.00  0.00    +0.157 HD
ATOM     18  H   UNL     1      -4.672   0.787   0.558  0.00  0.00    +0.157 HD
ATOM     19  N   UNL     1      -7.186   2.805   0.193  0.00  0.00    -0.349 N 
ATOM     20  H   UNL     1      -7.410   3.804   0.119  0.00  0.00    +0.163 HD
ENDROOT
BRANCH  12  21
ATOM     21  C   UNL     1      -9.507   2.315  -0.305  0.00  0.00    +0.240 C 
ATOM     22  O   UNL     1      -9.431   3.221  -1.107  0.00  0.00    -0.273 OA
ATOM     23  N   UNL     1     -10.711   1.810   0.030  0.00  0.00    -0.284 N 
ATOM     24  H   UNL     1     -10.778   1.132   0.720  0.00  0.00    +0.155 HD
BRANCH  23  25
ATOM     25  C   UNL     1     -11.866   2.266  -0.617  0.00  0.00    +0.034 A 
ATOM     26  C   UNL     1     -11.969   3.597  -1.001  0.00  0.00    +0.025 A 
ATOM     27  C   UNL     1     -13.107   4.043  -1.644  0.00  0.00    +0.022 A 
ATOM     28  C   UNL     1     -14.149   3.167  -1.895  0.00  0.00    +0.041 A 
ATOM     29  C   UNL     1     -14.051   1.842  -1.509  0.00  0.00    +0.022 A 
ATOM     30  C   UNL     1     -12.912   1.390  -0.871  0.00  0.00    +0.025 A 
ATOM     31 CL   UNL     1     -15.581   3.732  -2.697  0.00  0.00    -0.084 Cl
ENDBRANCH  23  25
ENDBRANCH  12  21
TORSDOF 2
