REMARK  Name = ZINC20357615
REMARK  9 active torsions:
REMARK  status: ('A' for Active; 'I' for Inactive)
REMARK    1  A    between atoms: C_1  and  O_2
REMARK    2  A    between atoms: O_2  and  C_3
REMARK    3  A    between atoms: C_3  and  C_5
REMARK    4  A    between atoms: C_6  and  N_16
REMARK    5  A    between atoms: C_17  and  C_19
REMARK    6  A    between atoms: C_19  and  N_20
REMARK    7  A    between atoms: N_23  and  C_26
REMARK    8  A    between atoms: C_26  and  C_27
REMARK    9  A    between atoms: C_27  and  O_28
REMARK                            x       y       z     vdW  Elec       q    Type
REMARK                         _______ _______ _______ _____ _____    ______ ____
ROOT
ATOM      1  N   UNL     1       2.058  -2.341  -3.198  0.00  0.00    -0.285 N 
ATOM      2  C   UNL     1       2.588  -1.102  -3.187  0.00  0.00    +0.201 C 
ATOM      3  O   UNL     1       2.504  -0.416  -2.191  0.00  0.00    -0.278 OA
ATOM      4  H   UNL     1       2.194  -2.920  -3.964  0.00  0.00    +0.155 HD
ENDROOT
BRANCH   1   6
ATOM      5  C   UNL     1       0.078  -3.399  -2.152  0.00  0.00    +0.147 A 
ATOM      6  C   UNL     1       1.315  -2.790  -2.111  0.00  0.00    +0.075 A 
ATOM      7  C   UNL     1       1.694  -2.707  -0.698  0.00  0.00    +0.040 A 
ATOM      8  C   UNL     1       0.640  -3.284   0.035  0.00  0.00    +0.050 A 
ATOM      9  N   UNL     1      -0.325  -3.688  -0.857  0.00  0.00    -0.347 N 
ATOM     10  H   UNL     1      -1.163  -4.115  -0.616  0.00  0.00    +0.166 HD
ATOM     11  C   UNL     1       0.728  -3.343   1.424  0.00  0.00    +0.026 A 
ATOM     12  C   UNL     1       1.838  -2.841   2.066  0.00  0.00    +0.003 A 
ATOM     13  C   UNL     1       2.878  -2.272   1.343  0.00  0.00    +0.021 A 
ATOM     14  C   UNL     1       2.815  -2.202  -0.030  0.00  0.00    +0.052 A 
ATOM     15 CL   UNL     1       4.118  -1.490  -0.929  0.00  0.00    -0.083 Cl
BRANCH   5  16
ATOM     16  C   UNL     1      -0.664  -3.679  -3.328  0.00  0.00    +0.357 C 
ATOM     17  O   UNL     1      -0.257  -3.296  -4.409  0.00  0.00    -0.243 OA
BRANCH  16  19
ATOM     18  C   UNL     1      -2.515  -4.615  -4.472  0.00  0.00    +0.280 C 
ATOM     19  O   UNL     1      -1.821  -4.369  -3.248  0.00  0.00    -0.463 OA
ENDBRANCH  16  19
ENDBRANCH   5  16
ENDBRANCH   1   6
BRANCH   2  20
ATOM     20  C   UNL     1       3.285  -0.570  -4.412  0.00  0.00    +0.019 C 
BRANCH  20  21
ATOM     21  N   UNL     1       3.771   0.790  -4.147  0.00  0.00    +0.387 N 
ATOM     22  C   UNL     1       2.627   1.685  -3.930  0.00  0.00    -0.063 C 
ATOM     23  C   UNL     1       3.133   3.099  -3.635  0.00  0.00    +0.066 C 
ATOM     24  N   UNL     1       3.940   3.574  -4.768  0.00  0.00    -0.304 NA
ATOM     25  C   UNL     1       5.076   2.674  -5.013  0.00  0.00    +0.066 C 
ATOM     26  C   UNL     1       4.553   1.264  -5.297  0.00  0.00    -0.063 C 
ATOM     27  H   UNL     1       4.354   0.785  -3.324  0.00  0.00    -0.081 HD
BRANCH  24  28
ATOM     28  C   UNL     1       4.398   4.952  -4.547  0.00  0.00    +0.112 C 
BRANCH  28  29
ATOM     29  C   UNL     1       5.015   5.497  -5.837  0.00  0.00    +0.171 C 
BRANCH  29  30
ATOM     30  O   UNL     1       4.007   5.590  -6.845  0.00  0.00    -0.394 OA
ATOM     31  H   UNL     1       4.328   5.930  -7.692  0.00  0.00    +0.209 HD
ENDBRANCH  29  30
ENDBRANCH  28  29
ENDBRANCH  24  28
ENDBRANCH  20  21
ENDBRANCH   2  20
TORSDOF 8
