REMARK  Name = ZINC64041633
REMARK  10 active torsions:
REMARK  status: ('A' for Active; 'I' for Inactive)
REMARK    1  A    between atoms: C_1  and  C_2
REMARK    2  A    between atoms: C_2  and  C_3
REMARK    3  A    between atoms: C_3  and  C_4
REMARK    4  A    between atoms: C_4  and  N_5
REMARK    5  A    between atoms: N_5  and  C_6
REMARK    6  A    between atoms: C_6  and  N_8
REMARK    7  A    between atoms: N_8  and  C_9
REMARK    8  A    between atoms: C_9  and  C_10
REMARK    9  A    between atoms: C_10  and  C_12
REMARK   10  A    between atoms: C_10  and  C_18
REMARK                            x       y       z     vdW  Elec       q    Type
REMARK                         _______ _______ _______ _____ _____    ______ ____
ROOT
ATOM      1  C   UNL     1      -6.029  -6.069   0.153  0.00  0.00    +0.048 C 
ENDROOT
BRANCH   1   2
ATOM      2  C   UNL     1      -6.204  -7.566   0.183  0.00  0.00    -0.036 C 
ATOM      3  C   UNL     1      -6.940  -8.316  -0.669  0.00  0.00    -0.001 A 
ATOM      4  C   UNL     1      -7.766  -7.975  -1.834  0.00  0.00    +0.010 A 
ATOM      5  C   UNL     1      -8.397  -8.967  -2.503  0.00  0.00    +0.001 A 
ATOM      6  C   UNL     1      -8.282 -10.308  -2.112  0.00  0.00    +0.002 A 
ATOM      7  C   UNL     1      -7.542 -10.699  -1.053  0.00  0.00    +0.026 A 
ATOM      8  C   UNL     1      -6.835  -9.739  -0.278  0.00  0.00    +0.043 A 
ATOM      9  N   UNL     1      -6.065  -9.865   0.776  0.00  0.00    -0.380 N 
ATOM     10  C   UNL     1      -5.588  -8.534   1.168  0.00  0.00    +0.145 C 
ATOM     11  H   UNL     1      -5.843 -10.699   1.219  0.00  0.00    +0.160 HD
ENDBRANCH   1   2
BRANCH   1  12
ATOM     12  C   UNL     1      -6.531  -5.470   1.468  0.00  0.00    +0.063 C 
ATOM     13  C   UNL     1      -8.055  -5.698   1.652  0.00  0.00    +0.042 C 
ATOM     14  C   UNL     1      -8.699  -4.497   2.266  0.00  0.00    -0.019 C 
ATOM     15  C   UNL     1      -8.077  -3.334   2.242  0.00  0.00    +0.036 C 
ATOM     16  S   UNL     1      -6.521  -3.628   1.420  0.00  0.00    -0.129 S 
ENDBRANCH   1  12
BRANCH   1  17
ATOM     17  C   UNL     1      -4.548  -5.733  -0.028  0.00  0.00    +0.112 C 
BRANCH  17  18
ATOM     18  N   UNL     1      -4.396  -4.290  -0.231  0.00  0.00    -0.326 N 
ATOM     19  H   UNL     1      -5.181  -3.729  -0.330  0.00  0.00    +0.148 HD
BRANCH  18  20
ATOM     20  C   UNL     1      -3.165  -3.742  -0.279  0.00  0.00    +0.130 C 
ATOM     21  S   UNL     1      -1.780  -4.732  -0.105  0.00  0.00    -0.019 S 
BRANCH  20  22
ATOM     22  N   UNL     1      -3.026  -2.414  -0.466  0.00  0.00    -0.327 N 
ATOM     23  H   UNL     1      -3.811  -1.853  -0.565  0.00  0.00    +0.148 HD
BRANCH  22  24
ATOM     24  C   UNL     1      -1.688  -1.819  -0.518  0.00  0.00    +0.103 C 
BRANCH  24  25
ATOM     25  C   UNL     1      -1.810  -0.310  -0.737  0.00  0.00    +0.018 C 
BRANCH  25  27
ATOM     26  C   UNL     1      -0.535   1.822  -1.011  0.00  0.00    +0.004 C 
ATOM     27  C   UNL     1      -0.413   0.312  -0.792  0.00  0.00    -0.002 C 
ENDBRANCH  25  27
ENDBRANCH  24  25
ENDBRANCH  22  24
ENDBRANCH  20  22
ENDBRANCH  18  20
ENDBRANCH  17  18
ENDBRANCH   1  17
TORSDOF 9
