REMARK  Name = ZINC35660420
REMARK  6 active torsions:
REMARK  status: ('A' for Active; 'I' for Inactive)
REMARK    1  A    between atoms: C_1  and  O_2
REMARK    2  A    between atoms: O_2  and  C_3
REMARK    3  A    between atoms: C_6  and  C_9
REMARK    4  A    between atoms: C_11  and  C_14
REMARK    5  A    between atoms: C_17  and  N_21
REMARK    6  A    between atoms: C_19  and  O_20
REMARK                            x       y       z     vdW  Elec       q    Type
REMARK                         _______ _______ _______ _____ _____    ______ ____
ROOT
ATOM      1  C   UNL     1       2.495  -2.494  -4.366  0.00  0.00    +0.202 A 
ATOM      2  N   UNL     1       2.603  -3.819  -4.552  0.00  0.00    -0.187 NA
ATOM      3  C   UNL     1       3.242  -4.063  -5.675  0.00  0.00    +0.262 A 
ATOM      4  O   UNL     1       3.563  -2.885  -6.239  0.00  0.00    -0.332 OA
ATOM      5  N   UNL     1       3.062  -1.877  -5.374  0.00  0.00    -0.056 NA
ENDROOT
BRANCH   1   9
ATOM      6  C   UNL     1       0.606  -0.607  -1.055  0.00  0.00    +0.120 A 
ATOM      7  C   UNL     1       1.172   0.164  -2.061  0.00  0.00    +0.046 A 
ATOM      8  C   UNL     1       1.786  -0.445  -3.136  0.00  0.00    +0.015 A 
ATOM      9  C   UNL     1       1.836  -1.836  -3.211  0.00  0.00    +0.023 A 
ATOM     10  C   UNL     1       1.267  -2.607  -2.199  0.00  0.00    +0.015 A 
ATOM     11  C   UNL     1       0.659  -1.993  -1.125  0.00  0.00    +0.046 A 
BRANCH   6  13
ATOM     12  C   UNL     1      -0.017   1.425   0.010  0.00  0.00    +0.277 C 
ATOM     13  O   UNL     1       0.002  -0.004   0.002  0.00  0.00    -0.495 OA
ENDBRANCH   6  13
ENDBRANCH   1   9
BRANCH   3  14
ATOM     14  C   UNL     1       3.555  -5.396  -6.219  0.00  0.00    +0.081 A 
ATOM     15  C   UNL     1       3.157  -6.546  -5.530  0.00  0.00    +0.019 A 
ATOM     16  C   UNL     1       3.450  -7.789  -6.041  0.00  0.00    +0.024 A 
ATOM     17  C   UNL     1       4.143  -7.907  -7.244  0.00  0.00    +0.028 A 
ATOM     18  C   UNL     1       4.542  -6.771  -7.936  0.00  0.00    +0.069 A 
ATOM     19  C   UNL     1       4.246  -5.516  -7.434  0.00  0.00    +0.131 A 
BRANCH  17  20
ATOM     20  N   UNL     1       4.436  -9.169  -7.755  0.00  0.00    -0.358 N 
ATOM     21  H   UNL     1       4.159  -9.964  -7.273  0.00  0.00    +0.142 HD
ATOM     22  H   UNL     1       4.919  -9.253  -8.592  0.00  0.00    +0.142 HD
ENDBRANCH  17  20
BRANCH  19  23
ATOM     23  O   UNL     1       4.630  -4.404  -8.111  0.00  0.00    -0.506 OA
ATOM     24  H   UNL     1       5.509  -4.080  -7.870  0.00  0.00    +0.292 HD
ENDBRANCH  19  23
ENDBRANCH   3  14
TORSDOF 5
