REMARK  Name = ZINC61641852
REMARK  8 active torsions:
REMARK  status: ('A' for Active; 'I' for Inactive)
REMARK    1  A    between atoms: C_1  and  N_2
REMARK    2  A    between atoms: N_2  and  C_3
REMARK    3  A    between atoms: N_2  and  C_4
REMARK    4  A    between atoms: C_4  and  C_5
REMARK    5  A    between atoms: N_10  and  C_11
REMARK    6  A    between atoms: C_11  and  C_12
REMARK    7  A    between atoms: N_14  and  C_15
REMARK    8  A    between atoms: C_17  and  N_22
REMARK                            x       y       z     vdW  Elec       q    Type
REMARK                         _______ _______ _______ _____ _____    ______ ____
ROOT
ATOM      1  C   UNL     1       1.387  -3.323  -2.501  0.00  0.00    +0.201 C 
ATOM      2  O   UNL     1       1.010  -2.804  -3.530  0.00  0.00    -0.278 OA
ATOM      3  N   UNL     1       2.516  -4.060  -2.493  0.00  0.00    -0.286 N 
ATOM      4  H   UNL     1       2.853  -4.421  -1.658  0.00  0.00    +0.155 HD
ENDROOT
BRANCH   3   5
ATOM      5  C   UNL     1       3.200  -4.305  -3.688  0.00  0.00    +0.054 A 
ATOM      6  C   UNL     1       3.235  -3.336  -4.680  0.00  0.00    +0.047 A 
ATOM      7  C   UNL     1       3.914  -3.583  -5.865  0.00  0.00    +0.026 A 
ATOM      8  C   UNL     1       4.559  -4.799  -6.054  0.00  0.00    +0.024 A 
ATOM      9  C   UNL     1       4.523  -5.763  -5.065  0.00  0.00    +0.023 A 
ATOM     10  C   UNL     1       3.852  -5.518  -3.881  0.00  0.00    +0.062 A 
ATOM     11 CL   UNL     1       3.816  -6.729  -2.638  0.00  0.00    -0.082 Cl
BRANCH   7  12
ATOM     12  N   UNL     1       3.950  -2.609  -6.866  0.00  0.00    -0.358 N 
ATOM     13  H   UNL     1       3.500  -1.760  -6.734  0.00  0.00    +0.142 HD
ATOM     14  H   UNL     1       4.426  -2.782  -7.694  0.00  0.00    +0.142 HD
ENDBRANCH   7  12
ENDBRANCH   3   5
BRANCH   1  15
ATOM     15  C   UNL     1       0.595  -3.143  -1.232  0.00  0.00    +0.019 C 
BRANCH  15  20
ATOM     16  C   UNL     1      -1.293  -2.028  -0.242  0.00  0.00    -0.054 C 
ATOM     17  C   UNL     1      -2.728  -2.576  -0.393  0.00  0.00    -0.016 C 
ATOM     18  C   UNL     1      -2.923  -2.624  -1.931  0.00  0.00    -0.020 C 
ATOM     19  C   UNL     1      -1.505  -3.019  -2.415  0.00  0.00    -0.078 C 
ATOM     20  N   UNL     1      -0.581  -2.306  -1.502  0.00  0.00    +0.388 N 
ATOM     21  H   UNL     1      -0.287  -1.438  -1.925  0.00  0.00    -0.081 HD
BRANCH  16  22
ATOM     22  C   UNL     1      -1.336  -0.519   0.010  0.00  0.00    +0.068 C 
BRANCH  22  24
ATOM     23  C   UNL     1       0.017   1.488  -0.007  0.00  0.00    +0.104 C 
ATOM     24  N   UNL     1       0.030   0.019  -0.008  0.00  0.00    -0.310 NA
ATOM     25  C   UNL     1       0.816  -0.501   1.119  0.00  0.00    +0.104 C 
ENDBRANCH  22  24
ENDBRANCH  16  22
ENDBRANCH  15  20
ENDBRANCH   1  15
TORSDOF 6
