REMARK  Name = ZINC39685806
REMARK  11 active torsions:
REMARK  status: ('A' for Active; 'I' for Inactive)
REMARK    1  A    between atoms: C_1  and  C_2
REMARK    2  A    between atoms: C_2  and  C_3
REMARK    3  A    between atoms: C_2  and  C_4
REMARK    4  A    between atoms: C_4  and  C_6
REMARK    5  A    between atoms: C_4  and  N_13
REMARK    6  A    between atoms: N_8  and  C_9
REMARK    7  A    between atoms: C_9  and  C_10
REMARK    8  A    between atoms: C_9  and  C_11
REMARK    9  A    between atoms: C_9  and  C_12
REMARK   10  A    between atoms: C_14  and  C_16
REMARK   11  A    between atoms: C_27  and  C_29
REMARK                            x       y       z     vdW  Elec       q    Type
REMARK                         _______ _______ _______ _____ _____    ______ ____
ROOT
ATOM      1  C   UNL     1      -0.132  -4.135   1.494  0.00  0.00    +0.100 C 
ATOM      2  C   UNL     1      -1.494  -4.562   0.903  0.00  0.00    +0.121 C 
ATOM      3  N   UNL     1      -2.010  -5.580   1.849  0.00  0.00    -0.296 N 
ATOM      4  C   UNL     1      -1.639  -5.061   3.188  0.00  0.00    +0.115 C 
ATOM      5  C   UNL     1      -0.231  -4.463   2.993  0.00  0.00    -0.004 C 
ATOM      6  C   UNL     1      -0.079  -3.192   3.824  0.00  0.00    -0.010 C 
ATOM      7  C   UNL     1      -0.122  -3.552   5.312  0.00  0.00    -0.082 C 
ATOM      8  N   UNL     1       0.959  -4.495   5.621  0.00  0.00    +0.379 N 
ATOM      9  C   UNL     1       0.753  -5.750   4.888  0.00  0.00    -0.082 C 
ATOM     10  C   UNL     1       0.834  -5.484   3.383  0.00  0.00    -0.010 C 
ATOM     11  C   UNL     1      -2.668  -6.719   1.558  0.00  0.00    +0.249 C 
ATOM     12  O   UNL     1      -3.100  -7.418   2.455  0.00  0.00    -0.270 OA
ATOM     13  H   UNL     1       1.843  -4.091   5.352  0.00  0.00    -0.086 HD
ATOM     14  H   UNL     1       0.966  -4.683   6.612  0.00  0.00    -0.086 HD
ENDROOT
BRANCH  11  15
ATOM     15  C   UNL     1      -2.864  -7.120   0.150  0.00  0.00    +0.073 A 
ATOM     16  C   UNL     1      -3.125  -6.155  -0.824  0.00  0.00    +0.016 A 
ATOM     17  C   UNL     1      -3.306  -6.535  -2.137  0.00  0.00    +0.002 A 
ATOM     18  C   UNL     1      -3.231  -7.871  -2.493  0.00  0.00    +0.023 A 
ATOM     19  C   UNL     1      -2.973  -8.835  -1.535  0.00  0.00    +0.077 A 
ATOM     20  C   UNL     1      -2.783  -8.467  -0.214  0.00  0.00    +0.154 A 
ATOM     21  F   UNL     1      -2.526  -9.408   0.721  0.00  0.00    -0.203 F 
ATOM     22 CL   UNL     1      -2.880 -10.507  -1.992  0.00  0.00    -0.081 Cl
ENDBRANCH  11  15
BRANCH   1  24
ATOM     23  N   UNL     1      -0.862  -1.778   1.672  0.00  0.00    -0.303 N 
ATOM     24  C   UNL     1       0.087  -2.658   1.294  0.00  0.00    +0.219 C 
ATOM     25  O   UNL     1       1.118  -2.260   0.792  0.00  0.00    -0.275 OA
ATOM     26  H   UNL     1      -1.651  -2.089   2.141  0.00  0.00    +0.149 HD
BRANCH  23  27
ATOM     27  C   UNL     1      -0.700  -0.353   1.373  0.00  0.00    +0.161 C 
BRANCH  27  28
ATOM     28  C   UNL     1      -1.492   0.461   2.364  0.00  0.00    +0.234 C 
ATOM     29  O   UNL     1      -2.287  -0.086   3.099  0.00  0.00    -0.274 OA
ATOM     30  N   UNL     1      -1.318   1.795   2.432  0.00  0.00    -0.309 N 
ATOM     31  H   UNL     1      -0.635   2.223   1.892  0.00  0.00    +0.149 HD
BRANCH  30  32
ATOM     32  C   UNL     1      -2.159   2.599   3.322  0.00  0.00    +0.026 C 
ATOM     33  C   UNL     1      -1.970   2.127   4.766  0.00  0.00    +0.031 C 
ATOM     34  C   UNL     1      -1.758   4.072   3.211  0.00  0.00    +0.031 C 
ATOM     35  C   UNL     1      -3.626   2.438   2.921  0.00  0.00    +0.031 C 
ENDBRANCH  30  32
ENDBRANCH  27  28
BRANCH  27  37
ATOM     36  C   UNL     1      -0.303  -0.768  -1.059  0.00  0.00    +0.009 C 
ATOM     37  C   UNL     1      -1.207  -0.068  -0.042  0.00  0.00    +0.012 C 
ATOM     38  C   UNL     1      -2.637  -0.592  -0.187  0.00  0.00    +0.009 C 
ENDBRANCH  27  37
ENDBRANCH  23  27
ENDBRANCH   1  24
TORSDOF 6
