REMARK  Name = ZINC39631646
REMARK  12 active torsions:
REMARK  status: ('A' for Active; 'I' for Inactive)
REMARK    1  A    between atoms: C_1  and  C_2
REMARK    2  A    between atoms: C_6  and  C_9
REMARK    3  A    between atoms: C_13  and  C_22
REMARK    4  A    between atoms: N_24  and  C_25
REMARK    5  A    between atoms: C_25  and  C_27
REMARK    6  A    between atoms: C_25  and  C_28
REMARK    7  A    between atoms: C_28  and  C_29
REMARK    8  A    between atoms: C_29  and  C_30
REMARK    9  A    between atoms: C_30  and  C_31
REMARK   10  A    between atoms: C_31  and  C_32
REMARK   11  A    between atoms: C_31  and  C_33
REMARK   12  A    between atoms: C_31  and  O_34
REMARK                            x       y       z     vdW  Elec       q    Type
REMARK                         _______ _______ _______ _____ _____    ______ ____
ROOT
ATOM      1  C   UNL     1      -0.113  -2.574   2.252  0.00  0.00    +0.252 C 
ATOM      2  O   UNL     1       0.999  -2.778   2.700  0.00  0.00    -0.270 OA
ATOM      3  N   UNL     1      -1.198  -3.029   2.908  0.00  0.00    -0.296 N 
ATOM      4  C   UNL     1      -2.621  -2.886   2.519  0.00  0.00    +0.121 C 
ATOM      5  C   UNL     1      -3.264  -4.243   2.883  0.00  0.00    +0.100 C 
ATOM      6  C   UNL     1      -2.353  -4.828   3.976  0.00  0.00    -0.004 C 
ATOM      7  C   UNL     1      -1.238  -3.791   4.179  0.00  0.00    +0.115 C 
ATOM      8  C   UNL     1      -3.138  -5.021   5.270  0.00  0.00    -0.010 C 
ATOM      9  C   UNL     1      -2.227  -5.657   6.324  0.00  0.00    -0.082 C 
ATOM     10  N   UNL     1      -1.732  -6.948   5.831  0.00  0.00    +0.379 N 
ATOM     11  C   UNL     1      -0.901  -6.743   4.638  0.00  0.00    -0.082 C 
ATOM     12  C   UNL     1      -1.756  -6.153   3.513  0.00  0.00    -0.010 C 
ATOM     13  H   UNL     1      -1.182  -7.393   6.550  0.00  0.00    -0.086 HD
ATOM     14  H   UNL     1      -2.515  -7.540   5.596  0.00  0.00    -0.086 HD
ENDROOT
BRANCH   1  20
ATOM     15  C   UNL     1      -0.707   1.755  -0.164  0.00  0.00    +0.047 C 
ATOM     16  C   UNL     1      -0.560   0.256  -0.181  0.00  0.00    -0.014 A 
ATOM     17  C   UNL     1      -0.575  -0.426  -1.384  0.00  0.00    +0.009 A 
ATOM     18  C   UNL     1      -0.441  -1.802  -1.411  0.00  0.00    +0.039 A 
ATOM     19  C   UNL     1      -0.290  -2.508  -0.233  0.00  0.00    +0.138 A 
ATOM     20  C   UNL     1      -0.273  -1.828   0.989  0.00  0.00    +0.107 A 
ATOM     21  C   UNL     1      -0.404  -0.435   1.006  0.00  0.00    +0.141 A 
ATOM     22  F   UNL     1      -0.383   0.233   2.181  0.00  0.00    -0.204 F 
ATOM     23  F   UNL     1      -0.160  -3.853  -0.261  0.00  0.00    -0.205 F 
ENDBRANCH   1  20
BRANCH   5  24
ATOM     24  C   UNL     1      -3.292  -5.150   1.680  0.00  0.00    +0.218 C 
ATOM     25  O   UNL     1      -2.422  -5.067   0.838  0.00  0.00    -0.275 OA
ATOM     26  N   UNL     1      -4.283  -6.052   1.539  0.00  0.00    -0.312 N 
ATOM     27  H   UNL     1      -4.978  -6.118   2.212  0.00  0.00    +0.149 HD
BRANCH  26  28
ATOM     28  C   UNL     1      -4.310  -6.934   0.369  0.00  0.00    +0.070 C 
ATOM     29  C   UNL     1      -4.997  -6.216  -0.794  0.00  0.00    +0.028 C 
BRANCH  28  30
ATOM     30  C   UNL     1      -5.083  -8.209   0.709  0.00  0.00    +0.022 C 
BRANCH  30  31
ATOM     31  C   UNL     1      -4.330  -8.990   1.788  0.00  0.00    +0.005 C 
BRANCH  31  32
ATOM     32  C   UNL     1      -5.103 -10.266   2.128  0.00  0.00    +0.034 C 
BRANCH  32  33
ATOM     33  C   UNL     1      -4.350 -11.047   3.206  0.00  0.00    +0.061 C 
ATOM     34  C   UNL     1      -5.056 -12.381   3.457  0.00  0.00    +0.041 C 
ATOM     35  C   UNL     1      -2.917 -11.309   2.738  0.00  0.00    +0.041 C 
BRANCH  33  36
ATOM     36  O   UNL     1      -4.324 -10.286   4.415  0.00  0.00    -0.389 OA
ATOM     37  H   UNL     1      -5.200 -10.083   4.771  0.00  0.00    +0.210 HD
ENDBRANCH  33  36
ENDBRANCH  32  33
ENDBRANCH  31  32
ENDBRANCH  30  31
ENDBRANCH  28  30
ENDBRANCH  26  28
ENDBRANCH   5  24
TORSDOF 8
