REMARK  Name = ZINC66908858
REMARK  7 active torsions:
REMARK  status: ('A' for Active; 'I' for Inactive)
REMARK    1  A    between atoms: C_1  and  N_2
REMARK    2  A    between atoms: N_2  and  C_3
REMARK    3  A    between atoms: C_7  and  C_10
REMARK    4  A    between atoms: C_10  and  N_11
REMARK    5  A    between atoms: N_14  and  C_15
REMARK    6  A    between atoms: C_15  and  C_16
REMARK    7  A    between atoms: C_16  and  O_26
REMARK                            x       y       z     vdW  Elec       q    Type
REMARK                         _______ _______ _______ _____ _____    ______ ____
ROOT
ATOM      1  N   UNL     1      -1.426  -2.589  -5.539  0.00  0.00    -0.295 N 
ATOM      2  C   UNL     1      -1.659  -3.350  -6.626  0.00  0.00    +0.300 C 
ATOM      3  O   UNL     1      -0.728  -3.812  -7.256  0.00  0.00    -0.253 OA
ATOM      4  N   UNL     1      -2.925  -3.600  -7.015  0.00  0.00    -0.296 N 
ATOM      5  H   UNL     1      -2.170  -2.221  -5.036  0.00  0.00    +0.151 HD
ATOM      6  H   UNL     1      -3.669  -3.232  -6.512  0.00  0.00    +0.150 HD
ENDROOT
BRANCH   1   7
ATOM      7  C   UNL     1      -0.050  -2.317  -5.116  0.00  0.00    +0.142 C 
BRANCH   7  14
ATOM      8  C   UNL     1      -0.094   2.486  -0.801  0.00  0.00    +0.130 C 
ATOM      9  N   UNL     1      -0.102   1.034  -0.607  0.00  0.00    -0.323 N 
ATOM     10  C   UNL     1      -0.123   0.476   0.748  0.00  0.00    +0.130 C 
ATOM     11  C   UNL     1      -0.090   0.186  -1.708  0.00  0.00    +0.098 A 
ATOM     12  C   UNL     1      -0.103  -1.192  -1.516  0.00  0.00    +0.042 A 
ATOM     13  C   UNL     1      -0.091  -2.025  -2.621  0.00  0.00    +0.010 A 
ATOM     14  C   UNL     1      -0.065  -1.449  -3.885  0.00  0.00    -0.014 A 
ATOM     15  C   UNL     1      -0.053  -0.074  -4.001  0.00  0.00    +0.089 A 
ATOM     16  N   UNL     1      -0.071   0.696  -2.929  0.00  0.00    -0.349 N 
ATOM     17  H   UNL     1      -0.066   1.660  -3.039  0.00  0.00    +0.167 HD
ENDBRANCH   7  14
ENDBRANCH   1   7
BRANCH   4  18
ATOM     18  C   UNL     1      -3.179  -4.428  -8.197  0.00  0.00    +0.145 C 
BRANCH  18  19
ATOM     19  C   UNL     1      -4.684  -4.664  -8.341  0.00  0.00    +0.107 C 
ATOM     20  C   UNL     1      -5.217  -5.308  -7.063  0.00  0.00    +0.041 C 
ATOM     21  C   UNL     1      -6.670  -5.734  -7.306  0.00  0.00    +0.008 C 
ATOM     22  C   UNL     1      -6.670  -6.910  -8.282  0.00  0.00    +0.035 C 
ATOM     23  C   UNL     1      -5.850  -6.585  -9.503  0.00  0.00    -0.041 A 
ATOM     24  C   UNL     1      -4.935  -5.556  -9.529  0.00  0.00    -0.011 A 
ATOM     25  C   UNL     1      -4.206  -5.314 -10.685  0.00  0.00    +0.007 A 
ATOM     26  C   UNL     1      -4.393  -6.092 -11.809  0.00  0.00    +0.000 A 
ATOM     27  C   UNL     1      -5.314  -7.122 -11.784  0.00  0.00    +0.000 A 
ATOM     28  C   UNL     1      -6.038  -7.366 -10.635  0.00  0.00    +0.004 A 
BRANCH  19  29
ATOM     29  O   UNL     1      -5.339  -3.411  -8.546  0.00  0.00    -0.382 OA
ATOM     30  H   UNL     1      -5.045  -2.938  -9.336  0.00  0.00    +0.211 HD
ENDBRANCH  19  29
ENDBRANCH  18  19
ENDBRANCH   4  18
TORSDOF 5
