REMARK  Name = ZINC35375149
REMARK  7 active torsions:
REMARK  status: ('A' for Active; 'I' for Inactive)
REMARK    1  A    between atoms: C_1  and  C_2
REMARK    2  A    between atoms: C_2  and  C_3
REMARK    3  A    between atoms: C_3  and  C_5
REMARK    4  A    between atoms: C_3  and  C_6
REMARK    5  A    between atoms: C_6  and  N_7
REMARK    6  A    between atoms: C_8  and  C_10
REMARK    7  A    between atoms: N_23  and  C_24
REMARK                            x       y       z     vdW  Elec       q    Type
REMARK                         _______ _______ _______ _____ _____    ______ ____
ROOT
ATOM      1  C   UNL     1       3.067  -4.231  -3.772  0.00  0.00    +0.028 C 
ATOM      2  C   UNL     1       4.282  -3.498  -4.415  0.00  0.00    +0.061 C 
ATOM      3  S   UNL     1       4.657  -4.716  -5.756  0.00  0.00    -0.174 S 
ATOM      4  C   UNL     1       4.088  -6.220  -4.865  0.00  0.00    -0.016 C 
ATOM      5  N   UNL     1       3.284  -5.681  -3.757  0.00  0.00    +0.397 N 
ATOM      6  C   UNL     1       5.293  -6.990  -4.343  0.00  0.00    +0.017 C 
ATOM      7  C   UNL     1       4.815  -8.233  -3.584  0.00  0.00    +0.109 C 
ATOM      8  N   UNL     1       3.913  -8.999  -4.455  0.00  0.00    -0.285 N 
ATOM      9  C   UNL     1       2.752  -8.318  -5.046  0.00  0.00    +0.109 C 
ATOM     10  C   UNL     1       3.241  -7.074  -5.797  0.00  0.00    +0.017 C 
ATOM     11  C   UNL     1       4.145 -10.302  -4.708  0.00  0.00    +0.306 C 
ATOM     12  O   UNL     1       5.160 -10.830  -4.295  0.00  0.00    -0.252 OA
ATOM     13  N   UNL     1       3.253 -11.021  -5.418  0.00  0.00    -0.269 N 
ATOM     14  H   UNL     1       3.739  -5.923  -2.889  0.00  0.00    -0.083 HD
ATOM     15  H   UNL     1       2.496 -10.579  -5.833  0.00  0.00    +0.156 HD
ATOM     16  H   UNL     1       2.382  -6.135  -3.775  0.00  0.00    -0.083 HD
ENDROOT
BRANCH  13  17
ATOM     17  C   UNL     1       3.419 -12.403  -5.555  0.00  0.00    +0.036 A 
ATOM     18  C   UNL     1       3.974 -13.144  -4.519  0.00  0.00    +0.023 A 
ATOM     19  C   UNL     1       4.136 -14.508  -4.657  0.00  0.00    +0.003 A 
ATOM     20  C   UNL     1       3.747 -15.138  -5.825  0.00  0.00    +0.015 A 
ATOM     21  C   UNL     1       3.195 -14.404  -6.859  0.00  0.00    +0.020 A 
ATOM     22  C   UNL     1       3.025 -13.039  -6.725  0.00  0.00    +0.038 A 
ATOM     23 BR   UNL     1       2.666 -15.269  -8.455  0.00  0.00    -0.050 Br
ENDBRANCH  13  17
BRANCH   1  25
ATOM     24  N   UNL     1       2.642  -2.437  -2.123  0.00  0.00    -0.316 N 
ATOM     25  C   UNL     1       2.883  -3.742  -2.358  0.00  0.00    +0.200 C 
ATOM     26  O   UNL     1       2.953  -4.523  -1.433  0.00  0.00    -0.278 OA
ATOM     27  H   UNL     1       2.586  -1.813  -2.863  0.00  0.00    +0.149 HD
BRANCH  24  28
ATOM     28  C   UNL     1       2.463  -1.962  -0.749  0.00  0.00    +0.107 C 
BRANCH  28  29
ATOM     29  C   UNL     1       2.204  -0.454  -0.760  0.00  0.00    +0.003 C 
ATOM     30  C   UNL     1       0.874  -0.171  -1.462  0.00  0.00    +0.009 C 
BRANCH  29  32
ATOM     31  C   UNL     1       2.007   1.588   0.666  0.00  0.00    +0.004 C 
ATOM     32  C   UNL     1       2.141   0.064   0.678  0.00  0.00    +0.001 C 
ENDBRANCH  29  32
ENDBRANCH  28  29
ENDBRANCH  24  28
ENDBRANCH   1  25
TORSDOF 5
