REMARK  Name = ZINC67635083
REMARK  8 active torsions:
REMARK  status: ('A' for Active; 'I' for Inactive)
REMARK    1  A    between atoms: C_4  and  N_7
REMARK    2  A    between atoms: N_7  and  C_8
REMARK    3  A    between atoms: C_8  and  C_9
REMARK    4  A    between atoms: C_9  and  C_10
REMARK    5  A    between atoms: C_10  and  N_11
REMARK    6  A    between atoms: N_14  and  C_15
REMARK    7  A    between atoms: C_15  and  C_16
REMARK    8  A    between atoms: C_21  and  N_22
REMARK                            x       y       z     vdW  Elec       q    Type
REMARK                         _______ _______ _______ _____ _____    ______ ____
ROOT
ATOM      1  N   UNL     1       6.131  -5.147  -0.202  0.00  0.00    -0.299 N 
ATOM      2  C   UNL     1       6.544  -6.425  -0.102  0.00  0.00    +0.300 C 
ATOM      3  O   UNL     1       5.729  -7.320   0.019  0.00  0.00    -0.253 OA
ATOM      4  N   UNL     1       7.860  -6.713  -0.136  0.00  0.00    -0.295 N 
ATOM      5  H   UNL     1       6.780  -4.433  -0.299  0.00  0.00    +0.150 HD
ATOM      6  H   UNL     1       8.510  -5.999  -0.232  0.00  0.00    +0.151 HD
ENDROOT
BRANCH   1   7
ATOM      7  C   UNL     1       4.700  -4.834  -0.166  0.00  0.00    +0.107 C 
BRANCH   7   8
ATOM      8  C   UNL     1       4.504  -3.322  -0.297  0.00  0.00    +0.037 C 
BRANCH   8   9
ATOM      9  C   UNL     1       3.010  -2.996  -0.259  0.00  0.00    +0.103 C 
BRANCH   9  10
ATOM     10  N   UNL     1       2.823  -1.549  -0.386  0.00  0.00    -0.344 N 
ATOM     11  H   UNL     1       3.593  -0.966  -0.475  0.00  0.00    +0.146 HD
BRANCH  10  15
ATOM     12  C   UNL     1      -1.016   0.064  -0.360  0.00  0.00    +0.000 A 
ATOM     13  C   UNL     1       0.081   0.896  -0.488  0.00  0.00    +0.002 A 
ATOM     14  C   UNL     1       1.355   0.364  -0.496  0.00  0.00    +0.023 A 
ATOM     15  C   UNL     1       1.535  -1.008  -0.377  0.00  0.00    +0.027 A 
ATOM     16  C   UNL     1       0.431  -1.841  -0.248  0.00  0.00    +0.023 A 
ATOM     17  C   UNL     1      -0.841  -1.303  -0.240  0.00  0.00    +0.002 A 
ENDBRANCH  10  15
ENDBRANCH   9  10
ENDBRANCH   8   9
ENDBRANCH   7   8
ENDBRANCH   1   7
BRANCH   4  18
ATOM     18  C   UNL     1       8.310  -8.103  -0.027  0.00  0.00    +0.144 C 
BRANCH  18  19
ATOM     19  C   UNL     1       9.815  -8.151  -0.092  0.00  0.00    +0.008 A 
ATOM     20  C   UNL     1      10.454  -8.542  -1.255  0.00  0.00    +0.010 A 
ATOM     21  C   UNL     1      11.842  -8.572  -1.270  0.00  0.00    +0.018 A 
ATOM     22  C   UNL     1      12.538  -8.213  -0.133  0.00  0.00    +0.084 A 
ATOM     23  N   UNL     1      11.902  -7.845   0.963  0.00  0.00    -0.349 N 
ATOM     24  C   UNL     1      10.579  -7.798   1.015  0.00  0.00    +0.103 A 
ATOM     25  H   UNL     1      12.415  -7.598   1.748  0.00  0.00    +0.167 HD
BRANCH  24  26
ATOM     26  N   UNL     1       9.950  -7.397   2.188  0.00  0.00    -0.316 N 
ATOM     27  C   UNL     1       9.546  -8.387   3.196  0.00  0.00    +0.106 C 
ATOM     28  C   UNL     1      10.137  -7.982   4.550  0.00  0.00    +0.019 C 
ATOM     29  C   UNL     1       9.718  -6.546   4.875  0.00  0.00    +0.003 C 
ATOM     30  C   UNL     1      10.266  -5.598   3.806  0.00  0.00    +0.019 C 
ATOM     31  C   UNL     1       9.682  -5.976   2.446  0.00  0.00    +0.106 C 
ENDBRANCH  24  26
ENDBRANCH  18  19
ENDBRANCH   4  18
TORSDOF 8
