REMARK  Name = ZINC35927992
REMARK  13 active torsions:
REMARK  status: ('A' for Active; 'I' for Inactive)
REMARK    1  A    between atoms: C_1  and  C_2
REMARK    2  A    between atoms: C_2  and  C_3
REMARK    3  A    between atoms: C_3  and  C_4
REMARK    4  A    between atoms: C_4  and  C_6
REMARK    5  A    between atoms: C_4  and  O_34
REMARK    6  A    between atoms: C_6  and  N_7
REMARK    7  A    between atoms: N_7  and  C_8
REMARK    8  A    between atoms: N_7  and  C_9
REMARK    9  A    between atoms: C_9  and  C_10
REMARK   10  A    between atoms: N_13  and  C_15
REMARK   11  A    between atoms: C_18  and  C_21
REMARK   12  A    between atoms: N_24  and  C_26
REMARK   13  A    between atoms: C_26  and  C_27
REMARK                            x       y       z     vdW  Elec       q    Type
REMARK                         _______ _______ _______ _____ _____    ______ ____
ROOT
ATOM      1  C   UNL     1       2.205  -6.008   3.571  0.00  0.00    +0.052 A 
ATOM      2  C   UNL     1       1.375  -6.924   4.209  0.00  0.00    +0.009 A 
ATOM      3  C   UNL     1       1.878  -8.168   3.993  0.00  0.00    +0.051 A 
ATOM      4  N   UNL     1       2.985  -8.041   3.243  0.00  0.00    -0.236 N 
ATOM      5  N   UNL     1       3.171  -6.674   2.984  0.00  0.00    -0.173 NA
ATOM      6  C   UNL     1       1.243  -9.422   4.541  0.00  0.00    +0.071 C 
ATOM      7  C   UNL     1       0.255  -9.007   5.641  0.00  0.00    +0.091 C 
ATOM      8  N   UNL     1      -0.612  -7.929   5.145  0.00  0.00    -0.294 NA
ATOM      9  C   UNL     1       0.126  -6.662   5.012  0.00  0.00    +0.123 C 
ENDROOT
BRANCH   4  10
ATOM     10  C   UNL     1       3.804  -9.087   2.795  0.00  0.00    +0.066 A 
ATOM     11  C   UNL     1       3.236 -10.259   2.315  0.00  0.00    +0.028 A 
ATOM     12  C   UNL     1       4.046 -11.287   1.874  0.00  0.00    +0.005 A 
ATOM     13  C   UNL     1       5.421 -11.150   1.910  0.00  0.00    -0.050 A 
ATOM     14  C   UNL     1       5.990  -9.984   2.388  0.00  0.00    +0.005 A 
ATOM     15  C   UNL     1       5.186  -8.950   2.825  0.00  0.00    +0.028 A 
ATOM     16  C   UNL     1       6.302 -12.274   1.429  0.00  0.00    +0.044 C 
ENDBRANCH   4  10
BRANCH   1  17
ATOM     17  C   UNL     1       2.023  -4.512   3.551  0.00  0.00    -0.021 C 
BRANCH  17  18
ATOM     18  N   UNL     1       1.194  -4.135   2.399  0.00  0.00    +0.383 N 
ATOM     19  C   UNL     1      -0.157  -4.689   2.565  0.00  0.00    -0.096 C 
ATOM     20  H   UNL     1       1.606  -4.502   1.554  0.00  0.00    -0.082 HD
BRANCH  18  21
ATOM     21  C   UNL     1       1.115  -2.671   2.310  0.00  0.00    -0.047 C 
BRANCH  21  22
ATOM     22  C   UNL     1       0.357  -2.277   1.042  0.00  0.00    +0.098 C 
BRANCH  22  23
ATOM     23  O   UNL     1       1.045  -2.787  -0.103  0.00  0.00    -0.394 OA
ATOM     24  H   UNL     1       1.949  -2.458  -0.197  0.00  0.00    +0.210 HD
ENDBRANCH  22  23
BRANCH  22  25
ATOM     25  C   UNL     1       0.275  -0.752   0.949  0.00  0.00    +0.029 C 
BRANCH  25  27
ATOM     26  C   UNL     1      -0.671   1.166  -0.343  0.00  0.00    +0.004 C 
ATOM     27  C   UNL     1      -0.589  -0.359  -0.251  0.00  0.00    -0.001 C 
ENDBRANCH  25  27
ENDBRANCH  22  25
ENDBRANCH  21  22
ENDBRANCH  18  21
ENDBRANCH  17  18
ENDBRANCH   1  17
BRANCH   8  28
ATOM     28  C   UNL     1      -1.792  -7.765   6.005  0.00  0.00    +0.120 C 
BRANCH  28  29
ATOM     29  C   UNL     1      -2.658  -8.994   5.911  0.00  0.00    -0.033 A 
ATOM     30  C   UNL     1      -3.649  -9.069   4.950  0.00  0.00    +0.008 A 
ATOM     31  C   UNL     1      -4.444 -10.196   4.862  0.00  0.00    +0.038 A 
ATOM     32  C   UNL     1      -4.247 -11.251   5.737  0.00  0.00    +0.123 A 
ATOM     33  C   UNL     1      -3.254 -11.175   6.699  0.00  0.00    +0.038 A 
ATOM     34  C   UNL     1      -2.457 -10.049   6.781  0.00  0.00    +0.008 A 
ATOM     35  F   UNL     1      -5.023 -12.353   5.653  0.00  0.00    -0.205 F 
ENDBRANCH  28  29
ENDBRANCH   8  28
TORSDOF 10
