REMARK  Name = ZINC67085749
REMARK  10 active torsions:
REMARK  status: ('A' for Active; 'I' for Inactive)
REMARK    1  A    between atoms: C_1  and  N_2
REMARK    2  A    between atoms: N_2  and  C_3
REMARK    3  A    between atoms: N_2  and  C_4
REMARK    4  A    between atoms: C_4  and  C_5
REMARK    5  A    between atoms: C_5  and  N_6
REMARK    6  A    between atoms: C_7  and  C_9
REMARK    7  A    between atoms: C_13  and  C_15
REMARK    8  A    between atoms: C_15  and  N_16
REMARK    9  A    between atoms: N_19  and  C_20
REMARK   10  A    between atoms: C_20  and  C_21
REMARK                            x       y       z     vdW  Elec       q    Type
REMARK                         _______ _______ _______ _____ _____    ______ ____
ROOT
ATOM      1  C   UNL     1      -4.351  -4.379  -0.207  0.00  0.00    +0.037 A 
ATOM      2  C   UNL     1      -5.424  -3.493  -0.093  0.00  0.00    +0.013 A 
ATOM      3  C   UNL     1      -6.715  -3.977  -0.084  0.00  0.00    +0.001 A 
ATOM      4  C   UNL     1      -6.949  -5.337  -0.188  0.00  0.00    +0.005 A 
ATOM      5  C   UNL     1      -5.890  -6.220  -0.302  0.00  0.00    -0.030 A 
ATOM      6  C   UNL     1      -4.593  -5.749  -0.318  0.00  0.00    +0.018 A 
ENDROOT
BRANCH   1   8
ATOM      7  N   UNL     1      -2.733  -2.544  -0.111  0.00  0.00    -0.313 N 
ATOM      8  C   UNL     1      -2.964  -3.867  -0.218  0.00  0.00    +0.244 C 
ATOM      9  O   UNL     1      -2.031  -4.640  -0.323  0.00  0.00    -0.270 OA
ATOM     10  H   UNL     1      -3.477  -1.927  -0.028  0.00  0.00    +0.149 HD
BRANCH   7  11
ATOM     11  C   UNL     1      -1.358  -2.037  -0.122  0.00  0.00    +0.086 C 
BRANCH  11  12
ATOM     12  C   UNL     1      -1.376  -0.512   0.012  0.00  0.00    -0.061 C 
BRANCH  12  14
ATOM     13  C   UNL     1      -0.018   1.465   0.010  0.00  0.00    -0.097 C 
ATOM     14  N   UNL     1       0.002  -0.004   0.002  0.00  0.00    +0.377 N 
ATOM     15  C   UNL     1       0.713  -0.491   1.192  0.00  0.00    -0.097 C 
ATOM     16  H   UNL     1       0.474  -0.330  -0.828  0.00  0.00    -0.083 HD
ENDBRANCH  12  14
ENDBRANCH  11  12
ENDBRANCH   7  11
ENDBRANCH   1   8
BRANCH   5  17
ATOM     17  C   UNL     1      -6.153  -7.700  -0.414  0.00  0.00    +0.141 C 
BRANCH  17  18
ATOM     18  N   UNL     1      -6.291  -8.066  -1.826  0.00  0.00    -0.295 N 
ATOM     19  C   UNL     1      -6.532  -9.346  -2.170  0.00  0.00    +0.300 C 
ATOM     20  O   UNL     1      -6.635 -10.198  -1.308  0.00  0.00    -0.253 OA
ATOM     21  N   UNL     1      -6.660  -9.683  -3.469  0.00  0.00    -0.295 N 
ATOM     22  H   UNL     1      -6.209  -7.386  -2.513  0.00  0.00    +0.151 HD
ATOM     23  H   UNL     1      -6.578  -9.003  -4.156  0.00  0.00    +0.151 HD
BRANCH  21  24
ATOM     24  C   UNL     1      -6.922 -11.075  -3.842  0.00  0.00    +0.148 C 
BRANCH  24  25
ATOM     25  C   UNL     1      -7.019 -11.182  -5.343  0.00  0.00    +0.008 A 
ATOM     26  C   UNL     1      -6.040 -11.429  -6.246  0.00  0.00    +0.014 A 
ATOM     27  C   UNL     1      -6.364 -11.483  -7.589  0.00  0.00    +0.028 A 
ATOM     28  C   UNL     1      -7.654 -11.289  -7.962  0.00  0.00    +0.078 A 
ATOM     29  S   UNL     1      -8.457 -11.025  -6.389  0.00  0.00    -0.080 S 
ATOM     30 CL   UNL     1      -8.345 -11.299  -9.554  0.00  0.00    -0.076 Cl
ENDBRANCH  24  25
ENDBRANCH  21  24
ENDBRANCH  17  18
ENDBRANCH   5  17
TORSDOF 8
