REMARK  Name = ZINC39328102
REMARK  14 active torsions:
REMARK  status: ('A' for Active; 'I' for Inactive)
REMARK    1  A    between atoms: C_1  and  C_2
REMARK    2  A    between atoms: C_2  and  O_3
REMARK    3  A    between atoms: O_3  and  C_4
REMARK    4  A    between atoms: C_9  and  N_10
REMARK    5  A    between atoms: C_11  and  C_13
REMARK    6  A    between atoms: C_13  and  S_14
REMARK    7  A    between atoms: S_14  and  C_15
REMARK    8  A    between atoms: C_16  and  C_33
REMARK    9  A    between atoms: C_17  and  C_24
REMARK   10  A    between atoms: C_18  and  C_22
REMARK   11  A    between atoms: C_19  and  N_21
REMARK   12  A    between atoms: C_27  and  C_30
REMARK   13  A    between atoms: C_30  and  C_31
REMARK   14  A    between atoms: C_30  and  C_32
REMARK                            x       y       z     vdW  Elec       q    Type
REMARK                         _______ _______ _______ _____ _____    ______ ____
ROOT
ATOM      1  C   UNL     1       4.918  -0.788  -7.748  0.00  0.00    +0.117 A 
ATOM      2  C   UNL     1       5.674  -1.194  -8.864  0.00  0.00    +0.093 A 
ATOM      3  C   UNL     1       6.246  -0.211  -9.695  0.00  0.00    +0.023 A 
ATOM      4  C   UNL     1       6.032   1.143  -9.364  0.00  0.00    +0.100 A 
ATOM      5  C   UNL     1       5.262   1.453  -8.228  0.00  0.00    +0.136 A 
ATOM      6  N   UNL     1       4.739   0.497  -7.479  0.00  0.00    -0.224 NA
ENDROOT
BRANCH   3   7
ATOM      7  C   UNL     1       7.049  -0.588 -10.879  0.00  0.00    -0.015 A 
ATOM      8  C   UNL     1       8.255  -1.271 -10.719  0.00  0.00    +0.009 A 
ATOM      9  C   UNL     1       8.999  -1.620 -11.828  0.00  0.00    +0.004 A 
ATOM     10  C   UNL     1       8.551  -1.294 -13.095  0.00  0.00    -0.045 A 
ATOM     11  C   UNL     1       7.356  -0.616 -13.261  0.00  0.00    +0.004 A 
ATOM     12  C   UNL     1       6.601  -0.266 -12.161  0.00  0.00    +0.009 A 
BRANCH  10  13
ATOM     13  C   UNL     1       9.369  -1.677 -14.302  0.00  0.00    +0.013 C 
ATOM     14  C   UNL     1       8.544  -2.595 -15.206  0.00  0.00    +0.012 C 
ATOM     15  C   UNL     1       9.760  -0.416 -15.075  0.00  0.00    +0.012 C 
ENDBRANCH  10  13
ENDBRANCH   3   7
BRANCH   5  16
ATOM     16  N   UNL     1       5.046   2.775  -7.894  0.00  0.00    -0.342 N 
ATOM     17  H   UNL     1       5.423   3.482  -8.441  0.00  0.00    +0.144 HD
ATOM     18  H   UNL     1       4.516   2.997  -7.112  0.00  0.00    +0.144 HD
ENDBRANCH   5  16
BRANCH   4  19
ATOM     19  C   UNL     1       6.590   2.185 -10.172  0.00  0.00    +0.103 C 
ATOM     20  N   UNL     1       7.033   3.012 -10.812  0.00  0.00    -0.191 NA
ENDBRANCH   4  19
BRANCH   2  21
ATOM     21  C   UNL     1       5.858  -2.585  -9.151  0.00  0.00    +0.102 C 
ATOM     22  N   UNL     1       6.004  -3.688  -9.378  0.00  0.00    -0.191 NA
ENDBRANCH   2  21
BRANCH   1  23
ATOM     23  S   UNL     1       4.194  -2.005  -6.699  0.00  0.00    -0.095 S 
BRANCH  23  24
ATOM     24  C   UNL     1       3.331  -1.035  -5.433  0.00  0.00    +0.172 C 
BRANCH  24  26
ATOM     25  N   UNL     1       1.953  -1.467  -3.424  0.00  0.00    -0.282 N 
ATOM     26  C   UNL     1       2.659  -1.967  -4.458  0.00  0.00    +0.228 C 
ATOM     27  O   UNL     1       2.753  -3.168  -4.603  0.00  0.00    -0.275 OA
ATOM     28  H   UNL     1       1.810  -0.511  -3.352  0.00  0.00    +0.155 HD
BRANCH  25  34
ATOM     29  C   UNL     1       0.317  -1.943  -1.704  0.00  0.00    +0.142 A 
ATOM     30  C   UNL     1      -0.203  -2.801  -0.749  0.00  0.00    +0.047 A 
ATOM     31  C   UNL     1       0.382  -4.036  -0.537  0.00  0.00    +0.004 A 
ATOM     32  C   UNL     1       1.486  -4.418  -1.277  0.00  0.00    +0.002 A 
ATOM     33  C   UNL     1       2.010  -3.568  -2.232  0.00  0.00    +0.027 A 
ATOM     34  C   UNL     1       1.426  -2.329  -2.453  0.00  0.00    +0.076 A 
BRANCH  29  35
ATOM     35  O   UNL     1      -0.257  -0.728  -1.914  0.00  0.00    -0.490 OA
BRANCH  35  37
ATOM     36  C   UNL     1      -1.896   0.995  -1.485  0.00  0.00    +0.048 C 
ATOM     37  C   UNL     1      -1.391  -0.399  -1.109  0.00  0.00    +0.226 C 
ENDBRANCH  35  37
ENDBRANCH  29  35
ENDBRANCH  25  34
ENDBRANCH  24  26
ENDBRANCH  23  24
ENDBRANCH   1  23
TORSDOF 11
