REMARK  Name = ZINC21264062
REMARK  14 active torsions:
REMARK  status: ('A' for Active; 'I' for Inactive)
REMARK    1  A    between atoms: C_1  and  C_2
REMARK    2  A    between atoms: C_2  and  C_4
REMARK    3  A    between atoms: C_2  and  N_12
REMARK    4  A    between atoms: C_7  and  O_10
REMARK    5  A    between atoms: O_10  and  C_11
REMARK    6  A    between atoms: N_12  and  C_13
REMARK    7  A    between atoms: N_12  and  C_19
REMARK    8  A    between atoms: C_13  and  C_14
REMARK    9  A    between atoms: C_19  and  N_21
REMARK   10  A    between atoms: N_21  and  C_22
REMARK   11  A    between atoms: C_24  and  C_30
REMARK   12  A    between atoms: C_24  and  C_31
REMARK   13  A    between atoms: C_26  and  C_28
REMARK   14  A    between atoms: C_26  and  C_29
REMARK                            x       y       z     vdW  Elec       q    Type
REMARK                         _______ _______ _______ _____ _____    ______ ____
ROOT
ATOM      1  N   UNL     1      -0.786   1.503   1.483  0.00  0.00    -0.301 N 
ENDROOT
BRANCH   1   3
ATOM      2  C   UNL     1       0.399   3.630   1.719  0.00  0.00    +0.033 C 
ATOM      3  C   UNL     1      -0.557   2.637   2.382  0.00  0.00    +0.103 C 
BRANCH   3   4
ATOM      4  C   UNL     1      -1.869   3.320   2.672  0.00  0.00    -0.027 A 
ATOM      5  C   UNL     1      -2.783   3.519   1.654  0.00  0.00    +0.009 A 
ATOM      6  C   UNL     1      -3.989   4.140   1.918  0.00  0.00    +0.046 A 
ATOM      7  C   UNL     1      -4.277   4.574   3.204  0.00  0.00    +0.120 A 
ATOM      8  C   UNL     1      -3.356   4.378   4.223  0.00  0.00    +0.046 A 
ATOM      9  C   UNL     1      -2.154   3.751   3.954  0.00  0.00    +0.009 A 
BRANCH   7  10
ATOM     10  O   UNL     1      -5.459   5.191   3.465  0.00  0.00    -0.495 OA
ATOM     11  C   UNL     1      -6.359   5.359   2.368  0.00  0.00    +0.277 C 
ENDBRANCH   7  10
ENDBRANCH   3   4
ENDBRANCH   1   3
BRANCH   1  12
ATOM     12  C   UNL     1      -1.540   0.462   1.888  0.00  0.00    +0.134 C 
ATOM     13  S   UNL     1      -2.232   0.465   3.454  0.00  0.00    -0.019 S 
BRANCH  12  14
ATOM     14  N   UNL     1      -1.750  -0.581   1.061  0.00  0.00    -0.324 N 
ATOM     15  H   UNL     1      -1.305  -0.583   0.055  0.00  0.00    +0.148 HD
BRANCH  14  16
ATOM     16  C   UNL     1      -2.572  -1.714   1.503  0.00  0.00    +0.069 C 
ATOM     17  C   UNL     1      -1.691  -2.712   2.254  0.00  0.00    +0.009 C 
ATOM     18  C   UNL     1      -2.516  -3.915   2.706  0.00  0.00    -0.072 C 
ATOM     19  N   UNL     1      -3.323  -4.479   1.644  0.00  0.00    +0.386 N 
ATOM     20  C   UNL     1      -4.008  -3.611   0.709  0.00  0.00    -0.072 C 
ATOM     21  C   UNL     1      -3.164  -2.414   0.279  0.00  0.00    +0.009 C 
ATOM     22  C   UNL     1      -5.341  -3.119   1.284  0.00  0.00    -0.010 C 
ATOM     23  C   UNL     1      -4.332  -4.431  -0.560  0.00  0.00    -0.010 C 
ATOM     24  C   UNL     1      -3.381  -3.520   3.909  0.00  0.00    -0.010 C 
ATOM     25  C   UNL     1      -1.529  -5.000   3.190  0.00  0.00    -0.010 C 
ATOM     26  H   UNL     1      -2.693  -5.113   1.002  0.00  0.00    -0.084 HD
ATOM     27  H   UNL     1      -4.130  -5.086   2.080  0.00  0.00    -0.084 HD
ENDBRANCH  14  16
ENDBRANCH  12  14
ENDBRANCH   1  12
BRANCH   1  28
ATOM     28  C   UNL     1      -0.194   1.500   0.143  0.00  0.00    +0.149 C 
BRANCH  28  29
ATOM     29  C   UNL     1      -1.180   2.071  -0.843  0.00  0.00    +0.007 A 
ATOM     30  C   UNL     1      -1.281   3.338  -1.314  0.00  0.00    +0.013 A 
ATOM     31  C   UNL     1      -2.276   3.637  -2.225  0.00  0.00    +0.008 A 
ATOM     32  C   UNL     1      -3.122   2.655  -2.622  0.00  0.00    +0.045 A 
ATOM     33  S   UNL     1      -2.514   1.251  -1.701  0.00  0.00    -0.100 S 
ENDBRANCH  28  29
ENDBRANCH   1  28
TORSDOF 8
