REMARK  Name = ZINC03249979
REMARK  11 active torsions:
REMARK  status: ('A' for Active; 'I' for Inactive)
REMARK    1  A    between atoms: C_1  and  C_2
REMARK    2  A    between atoms: C_5  and  C_35
REMARK    3  A    between atoms: C_6  and  N_8
REMARK    4  A    between atoms: C_9  and  C_11
REMARK    5  A    between atoms: C_11  and  C_13
REMARK    6  A    between atoms: C_11  and  O_19
REMARK    7  A    between atoms: O_19  and  C_20
REMARK    8  A    between atoms: C_20  and  C_22
REMARK    9  A    between atoms: C_24  and  C_34
REMARK   10  A    between atoms: N_25  and  C_28
REMARK   11  A    between atoms: C_26  and  C_27
REMARK                            x       y       z     vdW  Elec       q    Type
REMARK                         _______ _______ _______ _____ _____    ______ ____
ROOT
ATOM      1  C   UNL     1      -0.006   1.503   0.018  0.00  0.00    +0.292 C 
ENDROOT
BRANCH   1   2
ATOM      2  C   UNL     1      -0.729   2.012  -1.202  0.00  0.00    +0.002 A 
ATOM      3  C   UNL     1      -2.107   2.129  -1.190  0.00  0.00    +0.008 A 
ATOM      4  C   UNL     1      -2.770   2.600  -2.307  0.00  0.00    +0.000 A 
ATOM      5  C   UNL     1      -2.057   2.946  -3.440  0.00  0.00    +0.000 A 
ATOM      6  C   UNL     1      -0.680   2.824  -3.453  0.00  0.00    +0.000 A 
ATOM      7  C   UNL     1      -0.016   2.357  -2.334  0.00  0.00    +0.008 A 
ENDBRANCH   1   2
BRANCH   1   9
ATOM      8  N   UNL     1       0.671  -0.664  -0.964  0.00  0.00    -0.282 N 
ATOM      9  C   UNL     1       0.005  -0.004   0.004  0.00  0.00    +0.263 C 
ATOM     10  O   UNL     1      -0.587  -0.623   0.863  0.00  0.00    -0.271 OA
ATOM     11  H   UNL     1       1.077  -0.172  -1.695  0.00  0.00    +0.155 HD
BRANCH   8  17
ATOM     12  C   UNL     1       0.678  -4.816   1.669  0.00  0.00    +0.044 C 
ATOM     13  C   UNL     1       0.786  -4.096   0.349  0.00  0.00    -0.049 A 
ATOM     14  C   UNL     1       0.991  -4.815  -0.815  0.00  0.00    +0.004 A 
ATOM     15  C   UNL     1       1.091  -4.159  -2.027  0.00  0.00    +0.005 A 
ATOM     16  C   UNL     1       0.985  -2.782  -2.080  0.00  0.00    -0.029 A 
ATOM     17  C   UNL     1       0.779  -2.058  -0.914  0.00  0.00    +0.037 A 
ATOM     18  C   UNL     1       0.685  -2.720   0.304  0.00  0.00    +0.027 A 
ATOM     19  C   UNL     1       1.094  -2.068  -3.403  0.00  0.00    +0.045 C 
ENDBRANCH   8  17
ENDBRANCH   1   9
BRANCH   1  20
ATOM     20  O   UNL     1      -0.684   1.971   1.214  0.00  0.00    -0.443 OA
BRANCH  20  21
ATOM     21  C   UNL     1      -0.284   3.153   1.722  0.00  0.00    +0.342 C 
ATOM     22  O   UNL     1       0.608   3.776   1.180  0.00  0.00    -0.245 OA
BRANCH  21  23
ATOM     23  C   UNL     1      -0.926   3.689   2.932  0.00  0.00    +0.080 A 
ATOM     24  C   UNL     1      -2.009   3.071   3.705  0.00  0.00    +0.038 A 
ATOM     25  C   UNL     1      -2.278   3.909   4.721  0.00  0.00    +0.022 A 
ATOM     26  N   UNL     1      -1.450   4.992   4.637  0.00  0.00    -0.317 N 
ATOM     27  C   UNL     1      -0.629   4.873   3.574  0.00  0.00    +0.035 A 
ATOM     28  C   UNL     1       0.427   5.864   3.156  0.00  0.00    +0.065 C 
ATOM     29  C   UNL     1      -3.325   3.689   5.782  0.00  0.00    +0.064 C 
BRANCH  26  30
ATOM     30  C   UNL     1      -1.448   6.071   5.533  0.00  0.00    +0.047 A 
ATOM     31  C   UNL     1      -1.802   7.339   5.094  0.00  0.00    +0.026 A 
ATOM     32  C   UNL     1      -1.806   8.399   5.980  0.00  0.00    +0.002 A 
ATOM     33  C   UNL     1      -1.446   8.199   7.300  0.00  0.00    +0.000 A 
ATOM     34  C   UNL     1      -1.088   6.938   7.739  0.00  0.00    +0.002 A 
ATOM     35  C   UNL     1      -1.088   5.873   6.859  0.00  0.00    +0.026 A 
ENDBRANCH  26  30
ENDBRANCH  21  23
ENDBRANCH  20  21
ENDBRANCH   1  20
TORSDOF 7
