REMARK  Name = ZINC15073359
REMARK  11 active torsions:
REMARK  status: ('A' for Active; 'I' for Inactive)
REMARK    1  A    between atoms: C_4  and  O_16
REMARK    2  A    between atoms: C_5  and  C_7
REMARK    3  A    between atoms: C_7  and  N_54
REMARK    4  A    between atoms: C_8  and  C_9
REMARK    5  A    between atoms: C_8  and  N_54
REMARK    6  A    between atoms: C_9  and  C_10
REMARK    7  A    between atoms: O_16  and  C_17
REMARK    8  A    between atoms: C_17  and  C_18
REMARK    9  A    between atoms: C_18  and  C_20
REMARK   10  A    between atoms: C_18  and  O_26
REMARK   11  A    between atoms: C_20  and  N_57
REMARK                            x       y       z     vdW  Elec       q    Type
REMARK                         _______ _______ _______ _____ _____    ______ ____
ROOT
ATOM      1  C   UNL     1      -3.216  11.239  -1.626  0.00  0.00    +0.000 A 
ATOM      2  C   UNL     1      -2.167  11.991  -2.122  0.00  0.00    +0.004 A 
ATOM      3  C   UNL     1      -1.059  11.364  -2.657  0.00  0.00    +0.046 A 
ATOM      4  C   UNL     1      -0.999   9.978  -2.697  0.00  0.00    +0.122 A 
ATOM      5  C   UNL     1      -2.053   9.226  -2.199  0.00  0.00    -0.023 A 
ATOM      6  C   UNL     1      -3.161   9.858  -1.670  0.00  0.00    +0.005 A 
ENDROOT
BRANCH   5   7
ATOM      7  C   UNL     1      -1.991   7.721  -2.241  0.00  0.00    -0.043 C 
BRANCH   7   8
ATOM      8  N   UNL     1      -1.161   7.240  -1.121  0.00  0.00    +0.382 N 
ATOM      9  H   UNL     1      -1.577   7.547  -0.234  0.00  0.00    -0.085 HD
ATOM     10  H   UNL     1      -0.215   7.630  -1.208  0.00  0.00    -0.085 HD
BRANCH   8  11
ATOM     11  C   UNL     1      -1.083   5.767  -1.138  0.00  0.00    -0.076 C 
BRANCH  11  12
ATOM     12  C   UNL     1      -0.217   5.298   0.033  0.00  0.00    +0.036 C 
BRANCH  12  13
ATOM     13  C   UNL     1      -0.132   3.793   0.024  0.00  0.00    +0.040 A 
ATOM     14  C   UNL     1       1.107   3.179   0.009  0.00  0.00    +0.023 A 
ATOM     15  C   UNL     1       1.174   1.794   0.001  0.00  0.00    +0.003 A 
ATOM     16  C   UNL     1      -0.013   1.076   0.008  0.00  0.00    +0.020 A 
ATOM     17  C   UNL     1      -1.214   1.759   0.017  0.00  0.00    +0.111 A 
ATOM     18  N   UNL     1      -1.239   3.078   0.030  0.00  0.00    -0.260 NA
ENDBRANCH  12  13
ENDBRANCH  11  12
ENDBRANCH   8  11
ENDBRANCH   7   8
ENDBRANCH   5   7
BRANCH   4  19
ATOM     19  O   UNL     1       0.090   9.359  -3.224  0.00  0.00    -0.489 OA
BRANCH  19  20
ATOM     20  C   UNL     1       1.137  10.197  -3.718  0.00  0.00    +0.258 C 
BRANCH  20  21
ATOM     21  C   UNL     1       2.270   9.327  -4.267  0.00  0.00    +0.135 C 
BRANCH  21  22
ATOM     22  O   UNL     1       1.802   8.597  -5.403  0.00  0.00    -0.390 OA
ATOM     23  H   UNL     1       1.493   9.156  -6.130  0.00  0.00    +0.210 HD
ENDBRANCH  21  22
BRANCH  21  24
ATOM     24  C   UNL     1       3.442  10.219  -4.681  0.00  0.00    -0.044 C 
BRANCH  24  30
ATOM     25  C   UNL     1       5.060   8.495  -4.172  0.00  0.00    -0.068 C 
ATOM     26  C   UNL     1       5.839   7.346  -4.821  0.00  0.00    +0.050 C 
ATOM     27  S   UNL     1       7.234   8.053  -5.752  0.00  0.00    -0.164 S 
ATOM     28  C   UNL     1       6.433   9.342  -6.756  0.00  0.00    +0.050 C 
ATOM     29  C   UNL     1       5.569  10.207  -5.832  0.00  0.00    -0.068 C 
ATOM     30  N   UNL     1       4.507   9.365  -5.237  0.00  0.00    +0.382 N 
ATOM     31  H   UNL     1       4.107   8.771  -5.973  0.00  0.00    -0.082 HD
ENDBRANCH  24  30
ENDBRANCH  21  24
ENDBRANCH  20  21
ENDBRANCH  19  20
ENDBRANCH   4  19
TORSDOF 11
