REMARK  Name = ZINC38727106
REMARK  12 active torsions:
REMARK  status: ('A' for Active; 'I' for Inactive)
REMARK    1  A    between atoms: C_1  and  C_2
REMARK    2  A    between atoms: C_2  and  N_3
REMARK    3  A    between atoms: N_3  and  C_4
REMARK    4  A    between atoms: N_3  and  C_6
REMARK    5  A    between atoms: C_4  and  C_5
REMARK    6  A    between atoms: C_6  and  C_7
REMARK    7  A    between atoms: C_7  and  C_8
REMARK    8  A    between atoms: C_8  and  N_9
REMARK    9  A    between atoms: C_10  and  C_28
REMARK   10  A    between atoms: C_18  and  O_25
REMARK   11  A    between atoms: O_25  and  C_26
REMARK   12  A    between atoms: C_26  and  C_27
REMARK                            x       y       z     vdW  Elec       q    Type
REMARK                         _______ _______ _______ _____ _____    ______ ____
ROOT
ATOM      1  N   UNL     1       2.120  -4.549  -3.837  0.00  0.00    -0.284 N 
ATOM      2  C   UNL     1       1.651  -4.682  -5.226  0.00  0.00    +0.145 C 
ATOM      3  C   UNL     1       2.817  -5.201  -6.002  0.00  0.00    +0.072 A 
ATOM      4  C   UNL     1       2.958  -5.540  -7.423  0.00  0.00    +0.199 A 
ATOM      5  O   UNL     1       2.116  -5.268  -8.261  0.00  0.00    -0.287 OA
ATOM      6  C   UNL     1       4.223  -6.245  -7.742  0.00  0.00    +0.065 A 
ATOM      7  C   UNL     1       4.417  -6.810  -9.004  0.00  0.00    +0.019 A 
ATOM      8  C   UNL     1       5.583  -7.461  -9.284  0.00  0.00    +0.046 A 
ATOM      9  C   UNL     1       6.579  -7.564  -8.313  0.00  0.00    +0.124 A 
ATOM     10  C   UNL     1       6.402  -7.008  -7.059  0.00  0.00    +0.092 A 
ATOM     11  C   UNL     1       5.220  -6.338  -6.755  0.00  0.00    +0.143 A 
ATOM     12  O   UNL     1       5.073  -5.793  -5.525  0.00  0.00    -0.449 OA
ATOM     13  C   UNL     1       3.862  -5.347  -5.136  0.00  0.00    +0.199 A 
ATOM     14  C   UNL     1       3.412  -4.934  -3.795  0.00  0.00    +0.283 C 
ATOM     15  O   UNL     1       4.103  -4.943  -2.796  0.00  0.00    -0.267 OA
ENDROOT
BRANCH   2  16
ATOM     16  C   UNL     1       1.224  -3.339  -5.762  0.00  0.00    -0.021 A 
ATOM     17  C   UNL     1       1.964  -2.210  -5.463  0.00  0.00    +0.006 A 
ATOM     18  C   UNL     1       1.573  -0.978  -5.954  0.00  0.00    +0.001 A 
ATOM     19  C   UNL     1       0.443  -0.875  -6.743  0.00  0.00    +0.015 A 
ATOM     20  C   UNL     1      -0.297  -2.005  -7.042  0.00  0.00    +0.018 A 
ATOM     21  C   UNL     1       0.098  -3.238  -6.555  0.00  0.00    +0.021 A 
ATOM     22 BR   UNL     1      -1.844  -1.865  -8.121  0.00  0.00    -0.050 Br
ENDBRANCH   2  16
BRANCH   1  23
ATOM     23  C   UNL     1       1.325  -4.075  -2.702  0.00  0.00    +0.107 C 
BRANCH  23  24
ATOM     24  C   UNL     1       1.462  -2.556  -2.582  0.00  0.00    +0.000 C 
BRANCH  24  25
ATOM     25  C   UNL     1       0.632  -2.062  -1.395  0.00  0.00    -0.077 C 
BRANCH  25  26
ATOM     26  N   UNL     1       0.860  -0.623  -1.205  0.00  0.00    +0.379 N 
ATOM     27  H   UNL     1       1.849  -0.449  -1.106  0.00  0.00    -0.082 HD
BRANCH  26  29
ATOM     28  C   UNL     1       0.694   1.596  -2.227  0.00  0.00    -0.017 C 
ATOM     29  C   UNL     1       0.346   0.113  -2.368  0.00  0.00    -0.082 C 
ENDBRANCH  26  29
BRANCH  26  30
ATOM     30  C   UNL     1       0.161  -0.173   0.007  0.00  0.00    -0.082 C 
ATOM     31  C   UNL     1       0.802  -0.821   1.236  0.00  0.00    -0.017 C 
ENDBRANCH  26  30
ENDBRANCH  25  26
ENDBRANCH  24  25
ENDBRANCH  23  24
ENDBRANCH   1  23
BRANCH   9  32
ATOM     32  O   UNL     1       7.734  -8.216  -8.602  0.00  0.00    -0.492 OA
BRANCH  32  33
ATOM     33  C   UNL     1       7.856  -8.768  -9.914  0.00  0.00    +0.225 C 
ATOM     34  C   UNL     1       9.214  -9.460 -10.052  0.00  0.00    +0.048 C 
ENDBRANCH  32  33
ENDBRANCH   9  32
TORSDOF 9
