REMARK  Name = ZINC52068375
REMARK  9 active torsions:
REMARK  status: ('A' for Active; 'I' for Inactive)
REMARK    1  A    between atoms: C_1  and  C_2
REMARK    2  A    between atoms: C_2  and  C_4
REMARK    3  A    between atoms: C_2  and  O_21
REMARK    4  A    between atoms: C_9  and  O_10
REMARK    5  A    between atoms: O_10  and  C_11
REMARK    6  A    between atoms: C_11  and  C_13
REMARK    7  A    between atoms: C_11  and  C_14
REMARK    8  A    between atoms: N_16  and  C_17
REMARK    9  A    between atoms: C_17  and  C_18
REMARK                            x       y       z     vdW  Elec       q    Type
REMARK                         _______ _______ _______ _____ _____    ______ ____
ROOT
ATOM      1  C   UNL     1       0.780  -0.308   1.294  0.00  0.00    +0.023 A 
ATOM      2  C   UNL     1       2.125  -0.614   1.220  0.00  0.00    +0.025 A 
ATOM      3  C   UNL     1       2.746  -1.267   2.269  0.00  0.00    +0.018 A 
ATOM      4  C   UNL     1       2.021  -1.617   3.395  0.00  0.00    +0.019 A 
ATOM      5  C   UNL     1       0.676  -1.312   3.473  0.00  0.00    +0.047 A 
ATOM      6  C   UNL     1       0.053  -0.652   2.424  0.00  0.00    +0.127 A 
ATOM      7 BR   UNL     1       4.587  -1.685   2.165  0.00  0.00    -0.050 Br
ENDROOT
BRANCH   1   9
ATOM      8  C   UNL     1       0.094   1.910   0.422  0.00  0.00    +0.043 C 
ATOM      9  C   UNL     1       0.105   0.405   0.150  0.00  0.00    +0.145 C 
BRANCH   9  10
ATOM     10  O   UNL     1       0.818   0.144  -1.060  0.00  0.00    -0.387 OA
ATOM     11  H   UNL     1       0.865  -0.792  -1.296  0.00  0.00    +0.210 HD
ENDBRANCH   9  10
ENDBRANCH   1   9
BRANCH   6  12
ATOM     12  O   UNL     1      -1.270  -0.348   2.501  0.00  0.00    -0.480 OA
BRANCH  12  13
ATOM     13  C   UNL     1      -1.929  -0.628   3.737  0.00  0.00    +0.255 C 
ATOM     14  C   UNL     1      -2.387  -2.088   3.751  0.00  0.00    +0.062 C 
BRANCH  13  15
ATOM     15  C   UNL     1      -3.127   0.275   3.884  0.00  0.00    +0.254 C 
ATOM     16  O   UNL     1      -3.442   1.016   2.977  0.00  0.00    -0.272 OA
ATOM     17  N   UNL     1      -3.846   0.260   5.023  0.00  0.00    -0.309 N 
ATOM     18  H   UNL     1      -3.594  -0.332   5.748  0.00  0.00    +0.149 HD
BRANCH  17  19
ATOM     19  C   UNL     1      -5.010   1.138   5.166  0.00  0.00    +0.131 C 
BRANCH  19  20
ATOM     20  C   UNL     1      -5.634   0.929   6.521  0.00  0.00    -0.016 C 
ATOM     21  C   UNL     1      -5.813   1.949   7.324  0.00  0.00    +0.005 C 
ENDBRANCH  19  20
ENDBRANCH  17  19
ENDBRANCH  13  15
ENDBRANCH  12  13
ENDBRANCH   6  12
TORSDOF 7
