REMARK  Name = ZINC39022011
REMARK  2 active torsions:
REMARK  status: ('A' for Active; 'I' for Inactive)
REMARK    1  A    between atoms: N_15  and  N_16
REMARK    2  A    between atoms: C_22  and  N_27
REMARK                            x       y       z     vdW  Elec       q    Type
REMARK                         _______ _______ _______ _____ _____    ______ ____
ROOT
ATOM      1  N   UNL     1       4.984  -3.305  -2.817  0.00  0.00    -0.144 NA
ATOM      2  C   UNL     1       5.977  -2.937  -3.597  0.00  0.00    +0.157 C 
ATOM      3  C   UNL     1       6.777  -1.697  -3.511  0.00  0.00    +0.032 A 
ATOM      4  C   UNL     1       6.749  -0.603  -2.651  0.00  0.00    +0.027 A 
ATOM      5  C   UNL     1       7.649   0.430  -2.828  0.00  0.00    +0.021 A 
ATOM      6  C   UNL     1       8.575   0.376  -3.857  0.00  0.00    +0.050 A 
ATOM      7  C   UNL     1       8.610  -0.705  -4.715  0.00  0.00    +0.149 A 
ATOM      8  C   UNL     1       7.713  -1.755  -4.553  0.00  0.00    +0.074 A 
ATOM      9  N   UNL     1       7.538  -2.938  -5.265  0.00  0.00    -0.278 N 
ATOM     10  C   UNL     1       6.541  -3.677  -4.750  0.00  0.00    +0.269 C 
ATOM     11  O   UNL     1       6.166  -4.759  -5.159  0.00  0.00    -0.268 OA
ATOM     12 BR   UNL     1       7.617   1.921  -1.664  0.00  0.00    -0.050 Br
ATOM     13  H   UNL     1       8.072  -3.199  -6.032  0.00  0.00    +0.155 HD
ENDROOT
BRANCH   1  27
ATOM     14  C   UNL     1      -0.016   1.347   0.009  0.00  0.00    +0.001 A 
ATOM     15  C   UNL     1       1.165   2.101   0.002  0.00  0.00    +0.002 A 
ATOM     16  C   UNL     1       2.390   1.534  -0.008  0.00  0.00    +0.026 A 
ATOM     17  C   UNL     1       2.530   0.120  -0.012  0.00  0.00    +0.043 A 
ATOM     18  N   UNL     1       3.592  -0.654  -0.048  0.00  0.00    -0.372 N 
ATOM     19  C   UNL     1       3.157  -2.040   0.073  0.00  0.00    +0.153 C 
ATOM     20  C   UNL     1       1.640  -1.996  -0.035  0.00  0.00    -0.033 C 
ATOM     21  C   UNL     1       1.294  -0.703  -0.015  0.00  0.00    -0.000 A 
ATOM     22  C   UNL     1       0.002  -0.004   0.002  0.00  0.00    +0.010 A 
ATOM     23  C   UNL     1       0.809  -3.238  -0.235  0.00  0.00    +0.034 C 
ATOM     24  C   UNL     1       1.383  -3.972  -1.458  0.00  0.00    +0.010 C 
ATOM     25  C   UNL     1       2.882  -4.214  -1.286  0.00  0.00    +0.055 C 
ATOM     26  C   UNL     1       3.627  -2.906  -1.075  0.00  0.00    +0.067 C 
ATOM     27  N   UNL     1       4.609  -2.542  -1.847  0.00  0.00    -0.155 NA
ATOM     28  H   UNL     1       4.510  -0.353  -0.141  0.00  0.00    +0.161 HD
ENDBRANCH   1  27
BRANCH   7  29
ATOM     29  N   UNL     1       9.605  -0.747  -5.810  0.00  0.00    +0.058 N 
ATOM     30  O   UNL     1      10.386   0.165  -5.952  0.00  0.00    -0.126 OA
ATOM     31  O   UNL     1       9.637  -1.693  -6.562  0.00  0.00    -0.126 OA
ENDBRANCH   7  29
TORSDOF 2
