REMARK  Name = ZINC63182473
REMARK  4 active torsions:
REMARK  status: ('A' for Active; 'I' for Inactive)
REMARK    1  A    between atoms: C_1  and  C_2
REMARK    2  A    between atoms: N_7  and  C_8
REMARK    3  A    between atoms: C_8  and  C_10
REMARK    4  A    between atoms: C_11  and  C_12
REMARK                            x       y       z     vdW  Elec       q    Type
REMARK                         _______ _______ _______ _____ _____    ______ ____
ROOT
ATOM      1  C   UNL     1       4.730  -3.118   2.492  0.00  0.00    +0.070 C 
ATOM      2  C   UNL     1       4.990  -3.278   3.813  0.00  0.00    +0.012 C 
ENDROOT
BRANCH   2   3
ATOM      3  C   UNL     1       6.116  -4.021   4.226  0.00  0.00    -0.010 C 
ATOM      4  C   UNL     1       6.378  -4.188   5.550  0.00  0.00    +0.018 C 
ATOM      5  C   UNL     1       7.575  -4.955   5.922  0.00  0.00    +0.017 A 
ATOM      6  C   UNL     1       7.747  -5.458   7.212  0.00  0.00    +0.011 A 
ATOM      7  C   UNL     1       8.887  -6.172   7.517  0.00  0.00    +0.001 A 
ATOM      8  C   UNL     1       9.856  -6.390   6.550  0.00  0.00    +0.004 A 
ATOM      9  C   UNL     1       9.697  -5.896   5.268  0.00  0.00    +0.046 A 
ATOM     10  C   UNL     1       8.560  -5.178   4.943  0.00  0.00    +0.128 A 
ATOM     11  O   UNL     1       8.374  -4.681   3.696  0.00  0.00    -0.487 OA
ATOM     12  C   UNL     1       7.032  -4.639   3.201  0.00  0.00    +0.264 C 
ENDBRANCH   2   3
BRANCH   1  13
ATOM     13  C   UNL     1       3.562  -2.348   2.064  0.00  0.00    +0.262 C 
ATOM     14  O   UNL     1       2.822  -1.848   2.896  0.00  0.00    -0.269 OA
BRANCH  13  20
ATOM     15  C   UNL     1      -0.019   1.526   0.010  0.00  0.00    +0.025 C 
ATOM     16  C   UNL     1       0.002  -0.004   0.002  0.00  0.00    +0.092 C 
ATOM     17  C   UNL     1       0.796  -0.543  -1.181  0.00  0.00    +0.100 C 
ATOM     18  N   UNL     1       1.828  -1.225  -0.900  0.00  0.00    -0.236 NA
ATOM     19  C   UNL     1       2.248  -1.492   0.367  0.00  0.00    +0.181 C 
ATOM     20  N   UNL     1       3.304  -2.189   0.754  0.00  0.00    -0.151 NA
ATOM     21  S   UNL     1       1.024  -0.670   1.383  0.00  0.00    -0.080 S 
ENDBRANCH  13  20
ENDBRANCH   1  13
TORSDOF 3
