REMARK  Name = ZINC38547828
REMARK  8 active torsions:
REMARK  status: ('A' for Active; 'I' for Inactive)
REMARK    1  A    between atoms: C_1  and  C_2
REMARK    2  A    between atoms: C_2  and  C_3
REMARK    3  A    between atoms: C_5  and  C_16
REMARK    4  A    between atoms: C_6  and  N_8
REMARK    5  A    between atoms: C_9  and  C_11
REMARK    6  A    between atoms: C_16  and  C_18
REMARK    7  A    between atoms: C_16  and  N_28
REMARK    8  A    between atoms: C_21  and  C_24
REMARK                            x       y       z     vdW  Elec       q    Type
REMARK                         _______ _______ _______ _____ _____    ______ ____
ROOT
ATOM      1  C   UNL     1       0.583  -1.598   4.803  0.00  0.00    +0.135 C 
ENDROOT
BRANCH   1   2
ATOM      2  N   UNL     1      -0.735  -1.031   5.100  0.00  0.00    -0.320 N 
ATOM      3  C   UNL     1      -0.845   0.289   5.520  0.00  0.00    +0.097 A 
ATOM      4  C   UNL     1       0.305   1.037   5.751  0.00  0.00    +0.041 A 
ATOM      5  C   UNL     1       0.181   2.350   6.169  0.00  0.00    +0.005 A 
ATOM      6  C   UNL     1      -1.094   2.873   6.341  0.00  0.00    +0.018 A 
ATOM      7  C   UNL     1      -2.191   2.074   6.093  0.00  0.00    +0.084 A 
ATOM      8  N   UNL     1      -2.043   0.826   5.690  0.00  0.00    -0.350 N 
ATOM      9  H   UNL     1      -1.530  -1.577   5.003  0.00  0.00    +0.148 HD
ATOM     10  H   UNL     1      -2.831   0.287   5.519  0.00  0.00    +0.166 HD
ENDBRANCH   1   2
BRANCH   1  11
ATOM     11  C   UNL     1       0.513  -3.102   4.885  0.00  0.00    -0.023 A 
ATOM     12  C   UNL     1      -0.524  -3.780   4.273  0.00  0.00    +0.006 A 
ATOM     13  C   UNL     1      -0.589  -5.158   4.348  0.00  0.00    +0.013 A 
ATOM     14  C   UNL     1       0.385  -5.859   5.035  0.00  0.00    +0.055 A 
ATOM     15  C   UNL     1       1.423  -5.181   5.646  0.00  0.00    +0.013 A 
ATOM     16  C   UNL     1       1.490  -3.803   5.567  0.00  0.00    +0.006 A 
BRANCH  14  17
ATOM     17  C   UNL     1       0.315  -7.362   5.117  0.00  0.00    +0.417 C 
ATOM     18  F   UNL     1       1.005  -7.922   4.037  0.00  0.00    -0.166 F 
ATOM     19  F   UNL     1       0.897  -7.791   6.315  0.00  0.00    -0.166 F 
ATOM     20  F   UNL     1      -1.023  -7.769   5.077  0.00  0.00    -0.166 F 
ENDBRANCH  14  17
ENDBRANCH   1  11
BRANCH   1  23
ATOM     21  C   UNL     1       0.473  -0.527   1.214  0.00  0.00    -0.008 A 
ATOM     22  C   UNL     1       0.060  -0.892   2.452  0.00  0.00    +0.019 A 
ATOM     23  C   UNL     1       1.005  -1.190   3.416  0.00  0.00    +0.006 A 
ATOM     24  C   UNL     1       2.325  -1.107   3.088  0.00  0.00    +0.078 A 
ATOM     25  S   UNL     1       2.249  -0.604   1.377  0.00  0.00    -0.078 S 
BRANCH  24  26
ATOM     26  N   UNL     1       3.446  -1.357   3.883  0.00  0.00    -0.273 N 
ATOM     27  C   UNL     1       4.683  -1.217   3.366  0.00  0.00    +0.284 C 
ATOM     28  O   UNL     1       4.823  -0.873   2.207  0.00  0.00    -0.266 OA
ATOM     29  H   UNL     1       3.334  -1.631   4.806  0.00  0.00    +0.156 HD
BRANCH  27  30
ATOM     30  C   UNL     1       5.860  -1.479   4.201  0.00  0.00    +0.189 A 
ATOM     31  C   UNL     1       7.163  -1.370   3.807  0.00  0.00    +0.054 A 
ATOM     32  C   UNL     1       7.950  -1.712   4.918  0.00  0.00    +0.042 A 
ATOM     33  C   UNL     1       7.104  -2.010   5.928  0.00  0.00    +0.196 A 
ATOM     34  O   UNL     1       5.845  -1.863   5.494  0.00  0.00    -0.458 OA
ENDBRANCH  27  30
ENDBRANCH  24  26
BRANCH  21  36
ATOM     35  C   UNL     1      -0.611   1.349   0.009  0.00  0.00    +0.009 C 
ATOM     36  C   UNL     1      -0.353  -0.159   0.009  0.00  0.00    +0.039 C 
ENDBRANCH  21  36
ENDBRANCH   1  23
TORSDOF 7
