REMARK  Name = ZINC52692862
REMARK  6 active torsions:
REMARK  status: ('A' for Active; 'I' for Inactive)
REMARK    1  A    between atoms: C_1  and  C_2
REMARK    2  A    between atoms: C_5  and  O_9
REMARK    3  A    between atoms: O_9  and  C_10
REMARK    4  A    between atoms: C_10  and  C_11
REMARK    5  A    between atoms: C_15  and  C_18
REMARK    6  A    between atoms: C_18  and  N_19
REMARK                            x       y       z     vdW  Elec       q    Type
REMARK                         _______ _______ _______ _____ _____    ______ ____
ROOT
ATOM      1  C   UNL     1       0.058  -4.771  -1.300  0.00  0.00    +0.260 C 
ENDROOT
BRANCH   1   2
ATOM      2  C   UNL     1       0.079  -6.289  -1.108  0.00  0.00    +0.156 C 
ATOM      3  C   UNL     1      -0.010  -7.005  -2.479  0.00  0.00    +0.037 C 
ATOM      4  C   UNL     1       0.656  -8.367  -2.144  0.00  0.00    +0.032 C 
ATOM      5  C   UNL     1       1.729  -7.961  -1.111  0.00  0.00    +0.101 C 
ATOM      6  O   UNL     1       1.335  -6.704  -0.547  0.00  0.00    -0.372 OA
BRANCH   5   7
ATOM      7  C   UNL     1       1.815  -9.020  -0.009  0.00  0.00    -0.054 C 
BRANCH   7   8
ATOM      8  N   UNL     1       2.837  -8.626   0.970  0.00  0.00    +0.380 N 
ATOM      9  H   UNL     1       3.731  -8.547   0.509  0.00  0.00    -0.090 HD
ATOM     10  H   UNL     1       2.589  -7.737   1.376  0.00  0.00    -0.090 HD
ATOM     11  H   UNL     1       2.894  -9.324   1.696  0.00  0.00    -0.090 HD
ENDBRANCH   7   8
ENDBRANCH   5   7
ENDBRANCH   1   2
BRANCH   1  12
ATOM     12  O   UNL     1       0.057  -4.130  -0.022  0.00  0.00    -0.488 OA
BRANCH  12  17
ATOM     13  C   UNL     1      -0.018   1.503   0.010  0.00  0.00    +0.044 C 
ATOM     14  C   UNL     1       0.002  -0.004   0.002  0.00  0.00    -0.049 A 
ATOM     15  C   UNL     1       0.006  -0.688  -1.200  0.00  0.00    +0.007 A 
ATOM     16  C   UNL     1       0.024  -2.069  -1.211  0.00  0.00    +0.047 A 
ATOM     17  C   UNL     1       0.039  -2.771  -0.014  0.00  0.00    +0.135 A 
ATOM     18  C   UNL     1       0.036  -2.083   1.191  0.00  0.00    +0.060 A 
ATOM     19  C   UNL     1       0.023  -0.700   1.196  0.00  0.00    +0.022 A 
ATOM     20 BR   UNL     1       0.056  -3.035   2.825  0.00  0.00    -0.047 Br
ENDBRANCH  12  17
ENDBRANCH   1  12
TORSDOF 5
