REMARK  Name = ZINC09331834
REMARK  5 active torsions:
REMARK  status: ('A' for Active; 'I' for Inactive)
REMARK    1  A    between atoms: C_1  and  C_2
REMARK    2  A    between atoms: C_7  and  C_8
REMARK    3  A    between atoms: C_13  and  C_30
REMARK    4  A    between atoms: C_30  and  C_32
REMARK    5  A    between atoms: C_36  and  N_38
REMARK                            x       y       z     vdW  Elec       q    Type
REMARK                         _______ _______ _______ _____ _____    ______ ____
ROOT
ATOM      1  C   UNL     1      -3.589   3.877  -3.761  0.00  0.00    +0.044 C 
ATOM      2  C   UNL     1      -2.604   3.208  -2.837  0.00  0.00    -0.046 A 
ATOM      3  C   UNL     1      -1.553   2.479  -3.364  0.00  0.00    +0.004 A 
ATOM      4  C   UNL     1      -0.649   1.865  -2.516  0.00  0.00    +0.005 A 
ATOM      5  C   UNL     1      -0.797   1.979  -1.152  0.00  0.00    -0.027 A 
ATOM      6  C   UNL     1      -1.850   2.708  -0.611  0.00  0.00    +0.039 A 
ATOM      7  C   UNL     1      -2.756   3.325  -1.471  0.00  0.00    -0.026 A 
ATOM      8  C   UNL     1      -3.905   4.121  -0.908  0.00  0.00    +0.046 C 
ATOM      9  N   UNL     1      -1.792   2.679   0.784  0.00  0.00    -0.286 N 
ATOM     10  C   UNL     1      -0.748   1.959   1.234  0.00  0.00    +0.212 C 
ATOM     11  O   UNL     1      -0.455   1.759   2.393  0.00  0.00    -0.277 OA
ATOM     12  C   UNL     1      -0.012   1.449   0.019  0.00  0.00    +0.052 C 
ATOM     13  C   UNL     1       1.426   1.977  -0.001  0.00  0.00    +0.080 C 
ATOM     14  C   UNL     1       2.314   0.728  -0.023  0.00  0.00    +0.071 C 
ATOM     15  C   UNL     1       3.476   0.864   0.921  0.00  0.00    -0.012 A 
ATOM     16  C   UNL     1       3.574   1.069   2.279  0.00  0.00    +0.006 A 
ATOM     17  C   UNL     1       4.818   1.152   2.879  0.00  0.00    +0.000 A 
ATOM     18  C   UNL     1       5.962   1.029   2.110  0.00  0.00    +0.002 A 
ATOM     19  C   UNL     1       5.868   0.824   0.750  0.00  0.00    +0.023 A 
ATOM     20  C   UNL     1       4.620   0.739   0.138  0.00  0.00    +0.038 A 
ATOM     21  N   UNL     1       4.270   0.539  -1.199  0.00  0.00    -0.285 N 
ATOM     22  C   UNL     1       2.935   0.520  -1.378  0.00  0.00    +0.227 C 
ATOM     23  O   UNL     1       2.347   0.364  -2.427  0.00  0.00    -0.275 OA
ATOM     24  C   UNL     1       1.405  -0.437   0.365  0.00  0.00    -0.046 C 
ATOM     25  C   UNL     1      -0.889  -0.546   1.043  0.00  0.00    -0.076 C 
ATOM     26  C   UNL     1      -0.024  -1.242   2.113  0.00  0.00    -0.020 C 
ATOM     27  C   UNL     1       1.376  -0.606   1.901  0.00  0.00    -0.016 C 
ATOM     28  H   UNL     1      -2.431   3.125   1.361  0.00  0.00    +0.155 HD
ATOM     29  H   UNL     1       4.913   0.428  -1.916  0.00  0.00    +0.155 HD
ATOM     30  N   UNL     1       0.041  -0.015   0.024  0.00  0.00    +0.395 N 
ATOM     31  H   UNL     1      -0.217  -0.375  -0.903  0.00  0.00    -0.079 HD
ENDROOT
BRANCH  13  32
ATOM     32  C   UNL     1       1.701   2.792   1.236  0.00  0.00    +0.167 C 
ATOM     33  O   UNL     1       1.502   2.315   2.333  0.00  0.00    -0.292 OA
BRANCH  32  34
ATOM     34  C   UNL     1       2.212   4.167   1.113  0.00  0.00    +0.020 A 
ATOM     35  C   UNL     1       2.448   4.718  -0.150  0.00  0.00    +0.011 A 
ATOM     36  C   UNL     1       2.922   6.009  -0.257  0.00  0.00    +0.003 A 
ATOM     37  C   UNL     1       3.173   6.754   0.882  0.00  0.00    +0.033 A 
ATOM     38  C   UNL     1       2.946   6.214   2.136  0.00  0.00    +0.127 A 
ATOM     39  C   UNL     1       2.468   4.926   2.259  0.00  0.00    +0.044 A 
BRANCH  38  40
ATOM     40  N   UNL     1       3.219   7.019   3.347  0.00  0.00    +0.056 N 
ATOM     41  O   UNL     1       3.020   6.545   4.451  0.00  0.00    -0.126 OA
ATOM     42  O   UNL     1       3.641   8.157   3.240  0.00  0.00    -0.126 OA
ENDBRANCH  38  40
ENDBRANCH  32  34
ENDBRANCH  13  32
TORSDOF 3
