REMARK  Name = ZINC63363090
REMARK  9 active torsions:
REMARK  status: ('A' for Active; 'I' for Inactive)
REMARK    1  A    between atoms: C_1  and  C_2
REMARK    2  A    between atoms: C_2  and  C_3
REMARK    3  A    between atoms: C_3  and  C_4
REMARK    4  A    between atoms: C_4  and  N_5
REMARK    5  A    between atoms: C_6  and  C_8
REMARK    6  A    between atoms: C_13  and  N_14
REMARK    7  A    between atoms: C_30  and  C_35
REMARK    8  A    between atoms: C_39  and  O_41
REMARK    9  A    between atoms: O_41  and  C_42
REMARK                            x       y       z     vdW  Elec       q    Type
REMARK                         _______ _______ _______ _____ _____    ______ ____
ROOT
ATOM      1  N   UNL     1      -3.574  -6.690   0.001  0.00  0.00    -0.192 N 
ATOM      2  C   UNL     1      -2.987  -7.188   1.109  0.00  0.00    +0.248 C 
ATOM      3  O   UNL     1      -3.258  -6.926   2.261  0.00  0.00    -0.273 OA
ATOM      4  C   UNL     1      -1.921  -8.142   0.615  0.00  0.00    +0.169 C 
ATOM      5  C   UNL     1      -0.540  -7.691   1.123  0.00  0.00    +0.065 C 
ATOM      6  C   UNL     1       0.476  -8.252   0.157  0.00  0.00    -0.034 C 
ATOM      7  C   UNL     1       1.785  -8.048   0.060  0.00  0.00    -0.001 A 
ATOM      8  C   UNL     1       2.720  -7.285   0.903  0.00  0.00    +0.010 A 
ATOM      9  C   UNL     1       4.018  -7.273   0.497  0.00  0.00    +0.001 A 
ATOM     10  C   UNL     1       4.472  -7.934  -0.648  0.00  0.00    +0.002 A 
ATOM     11  C   UNL     1       3.683  -8.664  -1.477  0.00  0.00    +0.026 A 
ATOM     12  C   UNL     1       2.299  -8.757  -1.151  0.00  0.00    +0.043 A 
ATOM     13  N   UNL     1       1.335  -9.392  -1.748  0.00  0.00    -0.375 N 
ATOM     14  C   UNL     1       0.108  -9.213  -0.967  0.00  0.00    +0.131 C 
ATOM     15  C   UNL     1      -0.992  -8.538  -1.796  0.00  0.00    +0.135 C 
ATOM     16  N   UNL     1      -1.969  -7.972  -0.852  0.00  0.00    -0.264 N 
ATOM     17  C   UNL     1      -3.009  -7.169  -1.116  0.00  0.00    +0.317 C 
ATOM     18  O   UNL     1      -3.393  -6.904  -2.238  0.00  0.00    -0.252 OA
ATOM     19  H   UNL     1       1.414  -9.899  -2.571  0.00  0.00    +0.160 HD
ENDROOT
BRANCH   1  25
ATOM     20  C   UNL     1      -4.400  -4.410   0.020  0.00  0.00    +0.059 A 
ATOM     21  C   UNL     1      -5.476  -3.520   0.030  0.00  0.00    +0.015 A 
ATOM     22  C   UNL     1      -6.767  -4.003   0.039  0.00  0.00    +0.001 A 
ATOM     23  C   UNL     1      -7.003  -5.369   0.040  0.00  0.00    +0.002 A 
ATOM     24  C   UNL     1      -5.948  -6.259   0.030  0.00  0.00    +0.025 A 
ATOM     25  C   UNL     1      -4.642  -5.791   0.015  0.00  0.00    +0.058 A 
BRANCH  20  27
ATOM     26  N   UNL     1      -2.787  -2.571   0.015  0.00  0.00    -0.311 N 
ATOM     27  C   UNL     1      -3.015  -3.899   0.010  0.00  0.00    +0.246 C 
ATOM     28  O   UNL     1      -2.080  -4.676  -0.003  0.00  0.00    -0.270 OA
ATOM     29  H   UNL     1      -3.533  -1.950   0.025  0.00  0.00    +0.149 HD
BRANCH  26  30
ATOM     30  C   UNL     1      -1.413  -2.063   0.004  0.00  0.00    +0.104 C 
BRANCH  30  31
ATOM     31  C   UNL     1      -1.433  -0.534   0.013  0.00  0.00    +0.018 C 
BRANCH  31  33
ATOM     32  C   UNL     1      -0.019   1.526   0.010  0.00  0.00    +0.004 C 
ATOM     33  C   UNL     1       0.002  -0.004   0.002  0.00  0.00    -0.002 C 
ENDBRANCH  31  33
ENDBRANCH  30  31
ENDBRANCH  26  30
ENDBRANCH  20  27
ENDBRANCH   1  25
BRANCH  15  34
ATOM     34  C   UNL     1      -1.681  -9.559  -2.664  0.00  0.00    -0.021 A 
ATOM     35  C   UNL     1      -2.653 -10.381  -2.125  0.00  0.00    +0.006 A 
ATOM     36  C   UNL     1      -3.286 -11.320  -2.919  0.00  0.00    +0.004 A 
ATOM     37  C   UNL     1      -2.948 -11.438  -4.253  0.00  0.00    +0.045 A 
ATOM     38  C   UNL     1      -1.973 -10.615  -4.796  0.00  0.00    +0.120 A 
ATOM     39  C   UNL     1      -1.343  -9.670  -3.999  0.00  0.00    +0.051 A 
BRANCH  38  40
ATOM     40  O   UNL     1      -1.639 -10.730  -6.109  0.00  0.00    -0.495 OA
ATOM     41  C   UNL     1      -2.332 -11.720  -6.870  0.00  0.00    +0.277 C 
ENDBRANCH  38  40
ENDBRANCH  15  34
TORSDOF 7
