REMARK  Name = ZINC35000881
REMARK  15 active torsions:
REMARK  status: ('A' for Active; 'I' for Inactive)
REMARK    1  A    between atoms: C_1  and  C_2
REMARK    2  A    between atoms: C_2  and  C_3
REMARK    3  A    between atoms: C_2  and  C_4
REMARK    4  A    between atoms: C_7  and  N_10
REMARK    5  A    between atoms: N_16  and  C_19
REMARK    6  A    between atoms: C_19  and  C_20
REMARK    7  A    between atoms: C_20  and  N_21
REMARK    8  A    between atoms: N_21  and  C_22
REMARK    9  A    between atoms: C_22  and  C_23
REMARK   10  A    between atoms: C_31  and  C_32
REMARK   11  A    between atoms: C_31  and  C_33
REMARK   12  A    between atoms: N_36  and  C_37
REMARK   13  A    between atoms: C_37  and  C_38
REMARK   14  A    between atoms: C_37  and  C_39
REMARK   15  A    between atoms: C_37  and  C_40
REMARK                            x       y       z     vdW  Elec       q    Type
REMARK                         _______ _______ _______ _____ _____    ______ ____
ROOT
ATOM      1  C   UNL     1     -10.189  -5.678  -0.089  0.00  0.00    -0.059 C 
ENDROOT
BRANCH   1   8
ATOM      2  N   UNL     1      -5.311  -1.999   0.059  0.00  0.00    -0.269 N 
ATOM      3  C   UNL     1      -5.790  -2.663  -1.012  0.00  0.00    +0.306 C 
ATOM      4  O   UNL     1      -5.056  -2.920  -1.947  0.00  0.00    -0.252 OA
ATOM      5  N   UNL     1      -7.083  -3.043  -1.047  0.00  0.00    -0.289 N 
ATOM      6  C   UNL     1      -8.026  -2.613  -0.003  0.00  0.00    +0.091 C 
ATOM      7  C   UNL     1      -8.766  -3.848   0.521  0.00  0.00    -0.059 C 
ATOM      8  N   UNL     1      -9.389  -4.558  -0.603  0.00  0.00    +0.383 N 
ATOM      9  C   UNL     1      -8.351  -5.073  -1.506  0.00  0.00    -0.059 C 
ATOM     10  C   UNL     1      -7.592  -3.894  -2.133  0.00  0.00    +0.091 C 
ATOM     11  H   UNL     1      -5.853  -1.915   0.859  0.00  0.00    +0.156 HD
ATOM     12  H   UNL     1      -9.989  -3.924  -1.109  0.00  0.00    -0.082 HD
BRANCH   2  16
ATOM     13  C   UNL     1      -1.505  -0.310  -0.068  0.00  0.00    -0.045 A 
ATOM     14  C   UNL     1      -2.470   0.225   0.766  0.00  0.00    +0.006 A 
ATOM     15  C   UNL     1      -3.733  -0.333   0.810  0.00  0.00    +0.023 A 
ATOM     16  C   UNL     1      -4.033  -1.432   0.016  0.00  0.00    +0.035 A 
ATOM     17  C   UNL     1      -3.062  -1.966  -0.821  0.00  0.00    +0.023 A 
ATOM     18  C   UNL     1      -1.803  -1.400  -0.864  0.00  0.00    +0.006 A 
BRANCH  13  20
ATOM     19  C   UNL     1      -0.234   1.764  -0.550  0.00  0.00    +0.012 C 
ATOM     20  C   UNL     1      -0.128   0.301  -0.113  0.00  0.00    +0.013 C 
ATOM     21  C   UNL     1       0.508   0.228   1.276  0.00  0.00    +0.012 C 
ENDBRANCH  13  20
ENDBRANCH   2  16
ENDBRANCH   1   8
BRANCH   1  22
ATOM     22  C   UNL     1     -10.937  -6.343  -1.246  0.00  0.00    +0.091 C 
BRANCH  22  23
ATOM     23  N   UNL     1     -11.735  -7.460  -0.734  0.00  0.00    -0.283 N 
ATOM     24  C   UNL     1     -11.200  -8.695  -0.668  0.00  0.00    +0.303 C 
ATOM     25  O   UNL     1     -11.862  -9.623  -0.243  0.00  0.00    -0.253 OA
ATOM     26  N   UNL     1      -9.931  -8.903  -1.073  0.00  0.00    -0.294 N 
ATOM     27  H   UNL     1      -9.403  -8.163  -1.412  0.00  0.00    +0.151 HD
BRANCH  26  28
ATOM     28  C   UNL     1      -9.350 -10.246  -1.000  0.00  0.00    +0.028 C 
ATOM     29  C   UNL     1     -10.174 -11.206  -1.861  0.00  0.00    +0.031 C 
ATOM     30  C   UNL     1      -7.910 -10.206  -1.516  0.00  0.00    +0.031 C 
ATOM     31  C   UNL     1      -9.358 -10.728   0.452  0.00  0.00    +0.031 C 
ENDBRANCH  26  28
BRANCH  23  32
ATOM     32  C   UNL     1     -13.114  -7.235  -0.295  0.00  0.00    +0.140 C 
BRANCH  32  33
ATOM     33  C   UNL     1     -14.051  -7.429  -1.459  0.00  0.00    -0.053 C 
ATOM     34  C   UNL     1     -14.650  -8.579  -1.667  0.00  0.00    -0.025 C 
ATOM     35  C   UNL     1     -15.575  -8.734  -2.851  0.00  0.00    +0.031 C 
ATOM     36  C   UNL     1     -15.698  -7.395  -3.591  0.00  0.00    -0.000 C 
ATOM     37  C   UNL     1     -15.898  -6.204  -2.639  0.00  0.00    +0.012 C 
ATOM     38  C   UNL     1     -14.343  -6.301  -2.433  0.00  0.00    +0.022 C 
ATOM     39  C   UNL     1     -14.305  -6.805  -3.892  0.00  0.00    -0.025 C 
ATOM     40  C   UNL     1     -14.319  -5.686  -4.934  0.00  0.00    +0.012 C 
ATOM     41  C   UNL     1     -13.230  -7.861  -4.158  0.00  0.00    +0.012 C 
ENDBRANCH  32  33
ENDBRANCH  23  32
ENDBRANCH  22  23
ENDBRANCH   1  22
TORSDOF 8
