REMARK  Name = ZINC58066391
REMARK  9 active torsions:
REMARK  status: ('A' for Active; 'I' for Inactive)
REMARK    1  A    between atoms: C_1  and  C_2
REMARK    2  A    between atoms: C_6  and  C_8
REMARK    3  A    between atoms: C_6  and  N_22
REMARK    4  A    between atoms: C_8  and  N_9
REMARK    5  A    between atoms: N_9  and  C_10
REMARK    6  A    between atoms: C_13  and  C_19
REMARK    7  A    between atoms: C_15  and  N_16
REMARK    8  A    between atoms: N_22  and  C_23
REMARK    9  A    between atoms: N_22  and  C_24
REMARK                            x       y       z     vdW  Elec       q    Type
REMARK                         _______ _______ _______ _____ _____    ______ ____
ROOT
ATOM      1  N   UNL     1       3.092  -2.164   2.161  0.00  0.00    -0.343 N 
ATOM      2  H   UNL     1       3.283  -1.665   1.351  0.00  0.00    +0.146 HD
ENDROOT
BRANCH   1   3
ATOM      3  C   UNL     1       4.109  -2.427   3.072  0.00  0.00    +0.058 A 
ATOM      4  C   UNL     1       3.819  -3.074   4.270  0.00  0.00    +0.026 A 
ATOM      5  C   UNL     1       4.823  -3.336   5.173  0.00  0.00    +0.015 A 
ATOM      6  C   UNL     1       6.136  -2.950   4.887  0.00  0.00    +0.039 A 
ATOM      7  C   UNL     1       6.425  -2.300   3.684  0.00  0.00    +0.047 A 
ATOM      8  C   UNL     1       5.416  -2.046   2.782  0.00  0.00    +0.148 A 
BRANCH   6   9
ATOM      9  C   UNL     1       7.216  -3.229   5.853  0.00  0.00    +0.242 C 
ATOM     10  O   UNL     1       8.357  -2.893   5.603  0.00  0.00    -0.270 OA
ATOM     11  N   UNL     1       6.936  -3.856   7.014  0.00  0.00    -0.325 N 
ATOM     12  H   UNL     1       6.025  -4.123   7.213  0.00  0.00    +0.145 HD
ATOM     13  H   UNL     1       7.646  -4.039   7.649  0.00  0.00    +0.145 HD
ENDBRANCH   6   9
BRANCH   8  14
ATOM     14  N   UNL     1       5.722  -1.363   1.505  0.00  0.00    +0.058 N 
ATOM     15  O   UNL     1       6.752  -1.606   0.920  0.00  0.00    -0.126 OA
ATOM     16  O   UNL     1       4.941  -0.562   1.046  0.00  0.00    -0.126 OA
ENDBRANCH   8  14
ENDBRANCH   1   3
BRANCH   1  17
ATOM     17  C   UNL     1       1.732  -2.641   2.424  0.00  0.00    +0.089 C 
BRANCH  17  23
ATOM     18  C   UNL     1      -0.182   0.994  -0.420  0.00  0.00    +0.007 C 
ATOM     19  C   UNL     1      -0.115  -0.519  -0.205  0.00  0.00    -0.015 C 
ATOM     20  C   UNL     1       0.471  -1.186  -1.452  0.00  0.00    +0.003 C 
ATOM     21  C   UNL     1       0.539  -2.699  -1.236  0.00  0.00    -0.001 C 
ATOM     22  C   UNL     1       1.428  -3.003  -0.029  0.00  0.00    -0.010 C 
ATOM     23  C   UNL     1       0.842  -2.337   1.217  0.00  0.00    -0.050 C 
ATOM     24  C   UNL     1       0.775  -0.824   1.002  0.00  0.00    -0.007 C 
BRANCH  23  25
ATOM     25  N   UNL     1      -0.509  -2.858   1.461  0.00  0.00    +0.381 N 
ATOM     26  C   UNL     1      -0.440  -4.305   1.704  0.00  0.00    -0.096 C 
ATOM     27  C   UNL     1      -1.086  -2.191   2.636  0.00  0.00    -0.096 C 
ATOM     28  H   UNL     1      -1.089  -2.679   0.655  0.00  0.00    -0.082 HD
ENDBRANCH  23  25
ENDBRANCH  17  23
ENDBRANCH   1  17
TORSDOF 6
