REMARK  Name = ZINC40717586
REMARK  5 active torsions:
REMARK  status: ('A' for Active; 'I' for Inactive)
REMARK    1  A    between atoms: C_5  and  C_7
REMARK    2  A    between atoms: C_7  and  N_8
REMARK    3  A    between atoms: N_11  and  C_14
REMARK    4  A    between atoms: C_17  and  N_21
REMARK    5  A    between atoms: C_22  and  C_24
REMARK                            x       y       z     vdW  Elec       q    Type
REMARK                         _______ _______ _______ _____ _____    ______ ____
ROOT
ATOM      1  C   UNL     1       0.413  -5.031   4.570  0.00  0.00    +0.048 A 
ATOM      2  C   UNL     1      -0.854  -5.528   4.293  0.00  0.00    +0.026 A 
ATOM      3  C   UNL     1      -1.471  -6.383   5.185  0.00  0.00    +0.025 A 
ATOM      4  C   UNL     1      -0.825  -6.746   6.359  0.00  0.00    +0.035 A 
ATOM      5  C   UNL     1       0.442  -6.249   6.638  0.00  0.00    +0.045 A 
ATOM      6  C   UNL     1       1.062  -5.398   5.743  0.00  0.00    +0.064 A 
ATOM      7 CL   UNL     1       2.648  -4.783   6.086  0.00  0.00    -0.082 Cl
ENDROOT
BRANCH   1  11
ATOM      8  N   UNL     1       1.451  -2.590   1.394  0.00  0.00    +0.384 N 
ATOM      9  C   UNL     1       0.462  -2.168   2.393  0.00  0.00    -0.059 C 
ATOM     10  C   UNL     1       0.864  -2.708   3.769  0.00  0.00    +0.086 C 
ATOM     11  N   UNL     1       1.038  -4.165   3.665  0.00  0.00    -0.332 N 
ATOM     12  C   UNL     1       1.888  -4.686   2.583  0.00  0.00    +0.086 C 
ATOM     13  C   UNL     1       1.437  -4.052   1.263  0.00  0.00    -0.059 C 
ATOM     14  H   UNL     1       2.369  -2.288   1.685  0.00  0.00    -0.081 HD
BRANCH   8  15
ATOM     15  C   UNL     1       1.125  -1.981   0.097  0.00  0.00    -0.041 C 
BRANCH  15  20
ATOM     16  C   UNL     1       0.255   1.675   0.456  0.00  0.00    +0.000 A 
ATOM     17  C   UNL     1       1.503   2.265   0.381  0.00  0.00    +0.001 A 
ATOM     18  C   UNL     1       2.629   1.482   0.213  0.00  0.00    +0.020 A 
ATOM     19  C   UNL     1       2.507   0.106   0.121  0.00  0.00    +0.042 A 
ATOM     20  C   UNL     1       1.258  -0.484   0.198  0.00  0.00    -0.046 A 
ATOM     21  C   UNL     1       0.133   0.301   0.365  0.00  0.00    +0.003 A 
ATOM     22 CL   UNL     1       3.921  -0.879  -0.090  0.00  0.00    -0.083 Cl
ENDBRANCH  15  20
ENDBRANCH   8  15
ENDBRANCH   1  11
BRANCH   4  23
ATOM     23  N   UNL     1      -1.451  -7.613   7.264  0.00  0.00    -0.279 N 
ATOM     24  C   UNL     1      -1.240  -7.473   8.588  0.00  0.00    +0.284 C 
ATOM     25  O   UNL     1      -0.584  -6.536   9.004  0.00  0.00    -0.266 OA
ATOM     26  H   UNL     1      -2.037  -8.314   6.937  0.00  0.00    +0.155 HD
BRANCH  24  27
ATOM     27  C   UNL     1      -1.801  -8.448   9.526  0.00  0.00    +0.191 A 
ATOM     28  C   UNL     1      -1.669  -8.422  10.885  0.00  0.00    +0.056 A 
ATOM     29  C   UNL     1      -2.361  -9.538  11.380  0.00  0.00    +0.058 A 
ATOM     30  C   UNL     1      -2.879 -10.190  10.313  0.00  0.00    +0.171 A 
ATOM     31  O   UNL     1      -2.544  -9.527   9.199  0.00  0.00    -0.444 OA
ATOM     32 BR   UNL     1      -3.912 -11.772  10.385  0.00  0.00    -0.008 Br
ENDBRANCH  24  27
ENDBRANCH   4  23
TORSDOF 5
