REMARK  Name = ZINC18129650
REMARK  10 active torsions:
REMARK  status: ('A' for Active; 'I' for Inactive)
REMARK    1  A    between atoms: C_1  and  N_2
REMARK    2  A    between atoms: N_2  and  C_3
REMARK    3  A    between atoms: N_2  and  C_4
REMARK    4  A    between atoms: C_7  and  C_13
REMARK    5  A    between atoms: C_9  and  N_10
REMARK    6  A    between atoms: N_18  and  C_21
REMARK    7  A    between atoms: C_21  and  C_22
REMARK    8  A    between atoms: N_24  and  C_25
REMARK    9  A    between atoms: C_28  and  O_31
REMARK   10  A    between atoms: O_31  and  C_32
REMARK                            x       y       z     vdW  Elec       q    Type
REMARK                         _______ _______ _______ _____ _____    ______ ____
ROOT
ATOM      1  C   UNL     1      -4.719  -3.021  -0.060  0.00  0.00    +0.247 C 
ATOM      2  O   UNL     1      -3.732  -2.311  -0.071  0.00  0.00    -0.270 OA
ATOM      3  N   UNL     1      -5.275  -3.420  -1.222  0.00  0.00    -0.295 N 
ATOM      4  C   UNL     1      -4.635  -3.110  -2.510  0.00  0.00    +0.123 C 
ATOM      5  C   UNL     1      -5.679  -2.465  -3.429  0.00  0.00    +0.104 C 
ATOM      6  N   UNL     1      -6.857  -3.338  -3.514  0.00  0.00    -0.291 NA
ATOM      7  C   UNL     1      -7.505  -3.489  -2.204  0.00  0.00    +0.104 C 
ATOM      8  C   UNL     1      -6.533  -4.181  -1.235  0.00  0.00    +0.123 C 
ENDROOT
BRANCH   1  12
ATOM      9  C   UNL     1      -6.415  -4.246   3.635  0.00  0.00    +0.060 A 
ATOM     10  C   UNL     1      -6.472  -5.092   2.530  0.00  0.00    +0.026 A 
ATOM     11  C   UNL     1      -5.923  -4.698   1.331  0.00  0.00    +0.015 A 
ATOM     12  C   UNL     1      -5.309  -3.447   1.223  0.00  0.00    +0.039 A 
ATOM     13  C   UNL     1      -5.253  -2.600   2.334  0.00  0.00    +0.047 A 
ATOM     14  C   UNL     1      -5.809  -2.998   3.529  0.00  0.00    +0.148 A 
BRANCH   9  16
ATOM     15  C   UNL     1      -6.154  -5.369   5.823  0.00  0.00    +0.129 C 
ATOM     16  N   UNL     1      -6.971  -4.647   4.845  0.00  0.00    -0.334 N 
ATOM     17  C   UNL     1      -8.374  -4.348   5.141  0.00  0.00    +0.129 C 
ENDBRANCH   9  16
BRANCH  14  18
ATOM     18  N   UNL     1      -5.755  -2.100   4.704  0.00  0.00    +0.058 N 
ATOM     19  O   UNL     1      -5.229  -1.015   4.613  0.00  0.00    -0.126 OA
ATOM     20  O   UNL     1      -6.239  -2.450   5.755  0.00  0.00    -0.126 OA
ENDBRANCH  14  18
ENDBRANCH   1  12
BRANCH   6  21
ATOM     21  C   UNL     1      -7.808  -2.842  -4.518  0.00  0.00    +0.180 C 
BRANCH  21  22
ATOM     22  C   UNL     1      -8.875  -3.879  -4.755  0.00  0.00    +0.231 C 
ATOM     23  O   UNL     1      -8.847  -4.929  -4.147  0.00  0.00    -0.274 OA
ATOM     24  N   UNL     1      -9.862  -3.641  -5.642  0.00  0.00    -0.284 N 
ATOM     25  H   UNL     1      -9.844  -2.835  -6.182  0.00  0.00    +0.155 HD
BRANCH  24  26
ATOM     26  C   UNL     1     -10.913  -4.556  -5.783  0.00  0.00    +0.034 A 
ATOM     27  C   UNL     1     -11.590  -4.656  -6.991  0.00  0.00    +0.027 A 
ATOM     28  C   UNL     1     -12.625  -5.558  -7.130  0.00  0.00    +0.048 A 
ATOM     29  C   UNL     1     -12.990  -6.365  -6.062  0.00  0.00    +0.130 A 
ATOM     30  C   UNL     1     -12.315  -6.266  -4.855  0.00  0.00    +0.048 A 
ATOM     31  C   UNL     1     -11.275  -5.368  -4.716  0.00  0.00    +0.027 A 
BRANCH  29  32
ATOM     32  O   UNL     1     -14.011  -7.254  -6.200  0.00  0.00    -0.406 OA
BRANCH  32  33
ATOM     33  C   UNL     1     -14.333  -8.053  -5.060  0.00  0.00    +0.575 C 
ATOM     34  F   UNL     1     -14.699  -7.221  -3.996  0.00  0.00    -0.133 F 
ATOM     35  F   UNL     1     -15.397  -8.905  -5.373  0.00  0.00    -0.133 F 
ATOM     36  F   UNL     1     -13.218  -8.814  -4.694  0.00  0.00    -0.133 F 
ENDBRANCH  32  33
ENDBRANCH  29  32
ENDBRANCH  24  26
ENDBRANCH  21  22
ENDBRANCH   6  21
TORSDOF 8
