REMARK  Name = ZINC12506227
REMARK  2 active torsions:
REMARK  status: ('A' for Active; 'I' for Inactive)
REMARK    1  A    between atoms: C_3  and  C_11
REMARK    2  A    between atoms: C_5  and  C_7
REMARK                            x       y       z     vdW  Elec       q    Type
REMARK                         _______ _______ _______ _____ _____    ______ ____
ROOT
ATOM      1  C   UNL     1       3.672   2.182  -0.022  0.00  0.00    +0.209 C 
ATOM      2  N   UNL     1       3.542   3.367  -0.891  0.00  0.00    -0.294 N 
ATOM      3  C   UNL     1       2.917   4.489  -0.368  0.00  0.00    +0.159 C 
ATOM      4  N   UNL     1       3.393   4.952   0.859  0.00  0.00    -0.259 N 
ATOM      5  C   UNL     1       3.835   3.961   1.734  0.00  0.00    +0.205 A 
ATOM      6  N   UNL     1       3.980   2.653   1.332  0.00  0.00    -0.288 N 
ATOM      7  C   UNL     1       4.442   1.936   2.414  0.00  0.00    +0.076 A 
ATOM      8  C   UNL     1       4.776   0.603   2.620  0.00  0.00    +0.077 A 
ATOM      9  C   UNL     1       5.226   0.193   3.860  0.00  0.00    +0.164 A 
ATOM     10  C   UNL     1       5.346   1.104   4.905  0.00  0.00    +0.164 A 
ATOM     11  C   UNL     1       5.015   2.430   4.718  0.00  0.00    +0.079 A 
ATOM     12  C   UNL     1       4.560   2.859   3.468  0.00  0.00    +0.095 A 
ATOM     13  N   UNL     1       4.168   4.076   2.985  0.00  0.00    -0.214 NA
ATOM     14  O   UNL     1       5.795   0.678   6.122  0.00  0.00    -0.488 OA
ATOM     15  C   UNL     1       4.920  -0.191   6.843  0.00  0.00    +0.232 C 
ATOM     16  C   UNL     1       5.104  -1.633   6.397  0.00  0.00    +0.082 C 
ATOM     17  C   UNL     1       4.699  -1.846   4.947  0.00  0.00    +0.232 C 
ATOM     18  O   UNL     1       5.557  -1.116   4.068  0.00  0.00    -0.488 OA
ATOM     19  N   UNL     1       1.935   5.079  -0.989  0.00  0.00    -0.375 N 
ATOM     20  H   UNL     1       3.884   3.361  -1.800  0.00  0.00    +0.151 HD
ATOM     21  H   UNL     1       1.624   4.736  -1.841  0.00  0.00    +0.158 HD
ATOM     22  H   UNL     1       3.416   5.895   1.086  0.00  0.00    +0.158 HD
ATOM     23  H   UNL     1       1.516   5.862  -0.600  0.00  0.00    +0.158 HD
ENDROOT
BRANCH   1  26
ATOM     24  C   UNL     1      -0.017   1.378   0.010  0.00  0.00    +0.001 A 
ATOM     25  C   UNL     1       1.171   2.085   0.002  0.00  0.00    +0.007 A 
ATOM     26  C   UNL     1       2.377   1.411  -0.013  0.00  0.00    -0.006 A 
ATOM     27  C   UNL     1       2.396   0.028  -0.020  0.00  0.00    +0.019 A 
ATOM     28  C   UNL     1       1.209  -0.679  -0.012  0.00  0.00    +0.055 A 
ATOM     29  C   UNL     1       0.002  -0.004   0.002  0.00  0.00    +0.012 A 
BRANCH  28  30
ATOM     30  C   UNL     1       1.229  -2.186  -0.020  0.00  0.00    +0.417 C 
ATOM     31  F   UNL     1       1.249  -2.660   1.296  0.00  0.00    -0.166 F 
ATOM     32  F   UNL     1       0.086  -2.664  -0.671  0.00  0.00    -0.166 F 
ATOM     33  F   UNL     1       2.371  -2.633  -0.694  0.00  0.00    -0.166 F 
ENDBRANCH  28  30
ENDBRANCH   1  26
TORSDOF 2
