REMARK  Name = ZINC20153610
REMARK  9 active torsions:
REMARK  status: ('A' for Active; 'I' for Inactive)
REMARK    1  A    between atoms: C_1  and  C_2
REMARK    2  A    between atoms: C_2  and  N_3
REMARK    3  A    between atoms: C_11  and  C_32
REMARK    4  A    between atoms: C_14  and  N_19
REMARK    5  A    between atoms: N_19  and  C_20
REMARK    6  A    between atoms: C_20  and  N_22
REMARK    7  A    between atoms: N_22  and  C_23
REMARK    8  A    between atoms: N_22  and  C_25
REMARK    9  A    between atoms: C_23  and  C_24
REMARK                            x       y       z     vdW  Elec       q    Type
REMARK                         _______ _______ _______ _____ _____    ______ ____
ROOT
ATOM      1  N   UNL     1       6.551   5.836   0.861  0.00  0.00    +0.382 N 
ATOM      2  C   UNL     1       5.833   5.916  -0.419  0.00  0.00    -0.060 C 
ATOM      3  C   UNL     1       4.496   5.182  -0.298  0.00  0.00    +0.088 C 
ATOM      4  N   UNL     1       4.740   3.783   0.080  0.00  0.00    -0.319 N 
ATOM      5  C   UNL     1       5.457   3.704   1.360  0.00  0.00    +0.088 C 
ATOM      6  C   UNL     1       6.795   4.437   1.238  0.00  0.00    -0.060 C 
ATOM      7  C   UNL     1       3.552   3.067   0.130  0.00  0.00    +0.122 A 
ATOM      8  C   UNL     1       3.586   1.708   0.474  0.00  0.00    +0.047 A 
ATOM      9  C   UNL     1       2.428   0.993   0.528  0.00  0.00    -0.038 A 
ATOM     10  C   UNL     1       1.219   1.655   0.231  0.00  0.00    +0.005 A 
ATOM     11  C   UNL     1      -0.008   0.976   0.267  0.00  0.00    +0.033 A 
ATOM     12  C   UNL     1      -1.168   1.656  -0.035  0.00  0.00    +0.033 A 
ATOM     13  C   UNL     1      -1.131   3.014  -0.366  0.00  0.00    +0.025 A 
ATOM     14  C   UNL     1       0.048   3.692  -0.408  0.00  0.00    +0.030 A 
ATOM     15  C   UNL     1       1.251   3.029  -0.111  0.00  0.00    +0.073 A 
ATOM     16  N   UNL     1       2.420   3.679  -0.147  0.00  0.00    -0.232 NA
ATOM     17  C   UNL     1       2.439  -0.469   0.895  0.00  0.00    +0.044 C 
ATOM     18  H   UNL     1       5.915   6.292   1.635  0.00  0.00    -0.082 HD
ENDROOT
BRANCH   1  20
ATOM     19  C   UNL     1       8.400   6.699   2.215  0.00  0.00    -0.017 C 
ATOM     20  C   UNL     1       7.808   6.594   0.808  0.00  0.00    -0.082 C 
ENDBRANCH   1  20
BRANCH  12  21
ATOM     21  N   UNL     1      -2.395   0.982  -0.006  0.00  0.00    -0.296 N 
ATOM     22  H   UNL     1      -2.608   0.262   0.798  0.00  0.00    +0.154 HD
BRANCH  21  23
ATOM     23  C   UNL     1      -3.315   1.216  -0.962  0.00  0.00    +0.141 C 
ATOM     24  S   UNL     1      -2.931   2.223  -2.292  0.00  0.00    -0.018 S 
BRANCH  23  25
ATOM     25  N   UNL     1      -4.538   0.657  -0.872  0.00  0.00    -0.283 N 
BRANCH  25  26
ATOM     26  C   UNL     1      -5.460   0.818  -1.912  0.00  0.00    +0.035 A 
ATOM     27  C   UNL     1      -6.016   2.067  -2.161  0.00  0.00    +0.026 A 
ATOM     28  C   UNL     1      -6.921   2.225  -3.192  0.00  0.00    +0.040 A 
ATOM     29  C   UNL     1      -7.285   1.138  -3.969  0.00  0.00    +0.124 A 
ATOM     30  C   UNL     1      -6.736  -0.109  -3.719  0.00  0.00    +0.040 A 
ATOM     31  C   UNL     1      -5.826  -0.270  -2.693  0.00  0.00    +0.026 A 
ATOM     32  F   UNL     1      -8.175   1.294  -4.973  0.00  0.00    -0.205 F 
ENDBRANCH  25  26
BRANCH  25  33
ATOM     33  C   UNL     1      -4.902  -0.120   0.316  0.00  0.00    +0.109 C 
ATOM     34  C   UNL     1      -5.529   0.806   1.359  0.00  0.00    +0.025 C 
ENDBRANCH  25  33
ENDBRANCH  23  25
ENDBRANCH  21  23
ENDBRANCH  12  21
TORSDOF 6
