REMARK  Name = ZINC43260315
REMARK  9 active torsions:
REMARK  status: ('A' for Active; 'I' for Inactive)
REMARK    1  A    between atoms: C_1  and  C_2
REMARK    2  A    between atoms: C_2  and  C_3
REMARK    3  A    between atoms: C_3  and  C_5
REMARK    4  A    between atoms: C_3  and  N_23
REMARK    5  A    between atoms: C_5  and  C_7
REMARK    6  A    between atoms: C_5  and  N_13
REMARK    7  A    between atoms: N_13  and  C_14
REMARK    8  A    between atoms: N_13  and  C_15
REMARK    9  A    between atoms: C_15  and  C_16
REMARK                            x       y       z     vdW  Elec       q    Type
REMARK                         _______ _______ _______ _____ _____    ______ ____
ROOT
ATOM      1  C   UNL     1      -1.304  -2.041  -0.081  0.00  0.00    -0.014 C 
ENDROOT
BRANCH   1   2
ATOM      2  C   UNL     1      -2.692  -2.620  -0.168  0.00  0.00    -0.021 A 
ATOM      3  C   UNL     1      -3.446  -3.179   0.810  0.00  0.00    +0.011 A 
ATOM      4  C   UNL     1      -4.708  -3.651   0.498  0.00  0.00    +0.023 A 
ATOM      5  C   UNL     1      -5.153  -3.539  -0.778  0.00  0.00    +0.055 A 
ATOM      6  S   UNL     1      -3.773  -2.741  -1.583  0.00  0.00    -0.088 S 
ATOM      7 BR   UNL     1      -6.810  -4.080  -1.513  0.00  0.00    -0.043 Br
ENDBRANCH   1   2
BRANCH   1   8
ATOM      8  N   UNL     1      -0.542  -2.412  -1.282  0.00  0.00    +0.386 N 
ATOM      9  C   UNL     1       0.832  -1.907  -1.165  0.00  0.00    -0.095 C 
ATOM     10  H   UNL     1      -0.981  -2.009  -2.096  0.00  0.00    -0.081 HD
BRANCH   8  11
ATOM     11  C   UNL     1      -0.517  -3.875  -1.412  0.00  0.00    -0.042 C 
BRANCH  11  12
ATOM     12  C   UNL     1       0.157  -4.252  -2.706  0.00  0.00    -0.064 A 
ATOM     13  C   UNL     1      -0.591  -4.388  -3.861  0.00  0.00    +0.004 A 
ATOM     14  C   UNL     1       0.026  -4.733  -5.048  0.00  0.00    +0.038 A 
ATOM     15  C   UNL     1       1.394  -4.943  -5.081  0.00  0.00    +0.123 A 
ATOM     16  C   UNL     1       2.143  -4.807  -3.924  0.00  0.00    +0.038 A 
ATOM     17  C   UNL     1       1.524  -4.456  -2.739  0.00  0.00    +0.004 A 
ATOM     18  F   UNL     1       1.999  -5.281  -6.241  0.00  0.00    -0.205 F 
ENDBRANCH  11  12
ENDBRANCH   8  11
ENDBRANCH   1   8
BRANCH   1  19
ATOM     19  C   UNL     1      -1.393  -0.516   0.015  0.00  0.00    +0.042 C 
BRANCH  19  20
ATOM     20  N   UNL     1      -2.152   0.003  -1.130  0.00  0.00    -0.328 NA
ATOM     21  H   UNL     1      -3.088  -0.375  -1.144  0.00  0.00    +0.118 HD
ATOM     22  H   UNL     1      -2.171   1.012  -1.124  0.00  0.00    +0.118 HD
ENDBRANCH  19  20
BRANCH  19  24
ATOM     23  C   UNL     1      -2.054   1.392   1.486  0.00  0.00    +0.005 C 
ATOM     24  C   UNL     1      -2.099  -0.128   1.315  0.00  0.00    +0.014 C 
ENDBRANCH  19  24
ENDBRANCH   1  19
TORSDOF 7
