REMARK  Name = ZINC09747438
REMARK  10 active torsions:
REMARK  status: ('A' for Active; 'I' for Inactive)
REMARK    1  A    between atoms: C_1  and  N_56
REMARK    2  A    between atoms: C_2  and  N_56
REMARK    3  A    between atoms: C_3  and  C_4
REMARK    4  A    between atoms: C_3  and  N_56
REMARK    5  A    between atoms: C_4  and  N_5
REMARK    6  A    between atoms: C_8  and  S_12
REMARK    7  A    between atoms: S_12  and  C_13
REMARK    8  A    between atoms: C_13  and  C_14
REMARK    9  A    between atoms: N_16  and  C_17
REMARK   10  A    between atoms: C_19  and  C_24
REMARK                            x       y       z     vdW  Elec       q    Type
REMARK                         _______ _______ _______ _____ _____    ______ ____
ROOT
ATOM      1  N   UNL     1       3.184  10.666   0.655  0.00  0.00    -0.298 N 
ATOM      2  C   UNL     1       4.490  10.252   0.662  0.00  0.00    +0.029 A 
ATOM      3  C   UNL     1       4.757   8.935   0.578  0.00  0.00    +0.004 A 
ATOM      4  C   UNL     1       3.678   8.025   0.462  0.00  0.00    +0.108 A 
ATOM      5  N   UNL     1       2.431   8.473   0.457  0.00  0.00    -0.186 NA
ATOM      6  C   UNL     1       2.182   9.778   0.554  0.00  0.00    +0.350 A 
ATOM      7  O   UNL     1       1.027  10.172   0.550  0.00  0.00    -0.244 OA
ATOM      8  C   UNL     1       6.155   8.380   0.594  0.00  0.00    +0.039 C 
ATOM      9  C   UNL     1       7.174   9.475   0.279  0.00  0.00    +0.005 C 
ATOM     10  C   UNL     1       6.890  10.674   1.191  0.00  0.00    +0.006 C 
ATOM     11  C   UNL     1       5.564  11.301   0.763  0.00  0.00    +0.054 C 
ENDROOT
BRANCH   1  12
ATOM     12  C   UNL     1       2.878  12.095   0.761  0.00  0.00    +0.108 C 
BRANCH  12  13
ATOM     13  C   UNL     1       2.727  12.477   2.235  0.00  0.00    -0.058 C 
BRANCH  13  16
ATOM     14  C   UNL     1       1.102  14.209   1.766  0.00  0.00    -0.097 C 
ATOM     15  C   UNL     1       2.502  14.364   3.735  0.00  0.00    -0.097 C 
ATOM     16  N   UNL     1       2.440  13.924   2.325  0.00  0.00    +0.377 N 
ATOM     17  H   UNL     1       3.144  14.438   1.784  0.00  0.00    -0.083 HD
ENDBRANCH  13  16
ENDBRANCH  12  13
ENDBRANCH   1  12
BRANCH   4  18
ATOM     18  S   UNL     1       3.994   6.297   0.332  0.00  0.00    -0.096 S 
BRANCH  18  19
ATOM     19  C   UNL     1       2.297   5.675   0.225  0.00  0.00    +0.171 C 
BRANCH  19  20
ATOM     20  C   UNL     1       2.320   4.173   0.104  0.00  0.00    +0.227 C 
ATOM     21  O   UNL     1       3.378   3.581   0.091  0.00  0.00    -0.275 OA
ATOM     22  N   UNL     1       1.163   3.487   0.009  0.00  0.00    -0.284 N 
ATOM     23  H   UNL     1       0.321   3.963  -0.061  0.00  0.00    +0.155 HD
BRANCH  22  24
ATOM     24  C   UNL     1       1.177   2.087   0.013  0.00  0.00    +0.052 A 
ATOM     25  C   UNL     1       2.229   1.403   0.608  0.00  0.00    +0.037 A 
ATOM     26  C   UNL     1       2.241   0.022   0.610  0.00  0.00    +0.057 A 
ATOM     27  C   UNL     1       1.206  -0.680   0.020  0.00  0.00    +0.014 A 
ATOM     28  C   UNL     1       0.156  -0.003  -0.573  0.00  0.00    +0.022 A 
ATOM     29  C   UNL     1       0.139   1.379  -0.579  0.00  0.00    +0.062 A 
ATOM     30 CL   UNL     1      -1.175   2.228  -1.331  0.00  0.00    -0.082 Cl
BRANCH  26  31
ATOM     31  C   UNL     1       3.383  -0.720   1.254  0.00  0.00    +0.417 C 
ATOM     32  F   UNL     1       3.173  -2.097   1.130  0.00  0.00    -0.166 F 
ATOM     33  F   UNL     1       4.581  -0.372   0.622  0.00  0.00    -0.166 F 
ATOM     34  F   UNL     1       3.454  -0.379   2.610  0.00  0.00    -0.166 F 
ENDBRANCH  26  31
ENDBRANCH  22  24
ENDBRANCH  19  20
ENDBRANCH  18  19
ENDBRANCH   4  18
TORSDOF 8
