REMARK  Name = ZINC09126379
REMARK  8 active torsions:
REMARK  status: ('A' for Active; 'I' for Inactive)
REMARK    1  A    between atoms: C_1  and  C_2
REMARK    2  A    between atoms: C_2  and  C_4
REMARK    3  A    between atoms: C_2  and  N_20
REMARK    4  A    between atoms: N_6  and  C_7
REMARK    5  A    between atoms: C_7  and  C_8
REMARK    6  A    between atoms: N_10  and  C_11
REMARK    7  A    between atoms: N_23  and  C_26
REMARK    8  A    between atoms: C_29  and  O_32
REMARK                            x       y       z     vdW  Elec       q    Type
REMARK                         _______ _______ _______ _____ _____    ______ ____
ROOT
ATOM      1  C   UNL     1       0.878  -0.946   1.233  0.00  0.00    +0.200 C 
ATOM      2  O   UNL     1       1.868  -1.609   1.005  0.00  0.00    -0.278 OA
ATOM      3  N   UNL     1       0.584  -0.588   2.498  0.00  0.00    -0.308 N 
ATOM      4  H   UNL     1      -0.208  -0.058   2.681  0.00  0.00    +0.149 HD
ENDROOT
BRANCH   1   6
ATOM      5  C   UNL     1       0.412   0.851  -0.411  0.00  0.00    -0.004 C 
ATOM      6  C   UNL     1      -0.023  -0.523   0.101  0.00  0.00    +0.016 C 
BRANCH   6   7
ATOM      7  N   UNL     1       0.067  -1.504  -0.989  0.00  0.00    +0.389 N 
ATOM      8  C   UNL     1      -0.753  -1.052  -2.120  0.00  0.00    -0.059 C 
ATOM      9  C   UNL     1      -0.570  -2.014  -3.299  0.00  0.00    +0.086 C 
ATOM     10  N   UNL     1      -0.870  -3.378  -2.838  0.00  0.00    -0.333 N 
ATOM     11  C   UNL     1      -0.212  -3.856  -1.612  0.00  0.00    +0.086 C 
ATOM     12  C   UNL     1      -0.412  -2.808  -0.513  0.00  0.00    -0.059 C 
ATOM     13  H   UNL     1       1.028  -1.588  -1.285  0.00  0.00    -0.081 HD
BRANCH  10  14
ATOM     14  C   UNL     1      -1.755  -4.198  -3.546  0.00  0.00    +0.030 A 
ATOM     15  C   UNL     1      -2.268  -3.777  -4.766  0.00  0.00    +0.026 A 
ATOM     16  C   UNL     1      -3.142  -4.587  -5.464  0.00  0.00    +0.047 A 
ATOM     17  C   UNL     1      -3.508  -5.821  -4.947  0.00  0.00    +0.117 A 
ATOM     18  C   UNL     1      -2.997  -6.242  -3.728  0.00  0.00    +0.047 A 
ATOM     19  C   UNL     1      -2.118  -5.436  -3.032  0.00  0.00    +0.026 A 
BRANCH  17  20
ATOM     20  O   UNL     1      -4.369  -6.618  -5.635  0.00  0.00    -0.507 OA
ATOM     21  H   UNL     1      -3.936  -7.225  -6.251  0.00  0.00    +0.292 HD
ENDBRANCH  17  20
ENDBRANCH  10  14
ENDBRANCH   6   7
ENDBRANCH   1   6
BRANCH   3  22
ATOM     22  C   UNL     1       1.460  -0.999   3.599  0.00  0.00    +0.200 C 
BRANCH  22  23
ATOM     23  C   UNL     1       0.912  -0.473   4.900  0.00  0.00    +0.234 C 
ATOM     24  O   UNL     1      -0.110   0.181   4.908  0.00  0.00    -0.274 OA
ATOM     25  N   UNL     1       1.557  -0.729   6.055  0.00  0.00    -0.282 N 
ATOM     26  H   UNL     1       2.412  -1.187   6.042  0.00  0.00    +0.155 HD
BRANCH  25  27
ATOM     27  C   UNL     1       0.993  -0.334   7.276  0.00  0.00    +0.072 A 
ATOM     28  C   UNL     1      -0.366  -0.061   7.357  0.00  0.00    +0.029 A 
ATOM     29  C   UNL     1      -0.922   0.329   8.561  0.00  0.00    +0.043 A 
ATOM     30  C   UNL     1      -0.125   0.449   9.687  0.00  0.00    +0.161 A 
ATOM     31  C   UNL     1       1.232   0.178   9.610  0.00  0.00    +0.195 A 
ATOM     32  C   UNL     1       1.792  -0.219   8.407  0.00  0.00    +0.182 A 
ATOM     33  F   UNL     1       3.113  -0.489   8.332  0.00  0.00    -0.200 F 
ATOM     34  F   UNL     1       2.008   0.297  10.710  0.00  0.00    -0.199 F 
ATOM     35  F   UNL     1      -0.672   0.831  10.862  0.00  0.00    -0.202 F 
ENDBRANCH  25  27
ENDBRANCH  22  23
ENDBRANCH   3  22
TORSDOF 7
