REMARK  Name = ZINC51331364
REMARK  8 active torsions:
REMARK  status: ('A' for Active; 'I' for Inactive)
REMARK    1  A    between atoms: C_1  and  C_2
REMARK    2  A    between atoms: C_2  and  C_3
REMARK    3  A    between atoms: C_3  and  C_5
REMARK    4  A    between atoms: C_3  and  N_21
REMARK    5  A    between atoms: C_5  and  C_7
REMARK    6  A    between atoms: C_5  and  S_13
REMARK    7  A    between atoms: S_13  and  C_14
REMARK    8  A    between atoms: C_18  and  C_20
REMARK                            x       y       z     vdW  Elec       q    Type
REMARK                         _______ _______ _______ _____ _____    ______ ____
ROOT
ATOM      1  C   UNL     1      -1.427  -2.041  -0.249  0.00  0.00    +0.076 C 
ENDROOT
BRANCH   1   2
ATOM      2  C   UNL     1      -2.890  -2.353  -0.432  0.00  0.00    +0.003 A 
ATOM      3  C   UNL     1      -3.665  -3.239   0.240  0.00  0.00    +0.027 A 
ATOM      4  C   UNL     1      -4.999  -3.359  -0.103  0.00  0.00    +0.025 A 
ATOM      5  C   UNL     1      -5.492  -2.588  -1.103  0.00  0.00    +0.060 A 
ATOM      6  S   UNL     1      -4.053  -1.647  -1.588  0.00  0.00    -0.099 S 
ATOM      7 BR   UNL     1      -6.118  -4.582   0.807  0.00  0.00    -0.050 Br
ENDBRANCH   1   2
BRANCH   1   8
ATOM      8  C   UNL     1      -1.263  -0.565   0.118  0.00  0.00    -0.057 C 
BRANCH   8   9
ATOM      9  N   UNL     1      -2.046  -0.270   1.326  0.00  0.00    +0.381 N 
ATOM     10  H   UNL     1      -1.718  -0.845   2.088  0.00  0.00    -0.090 HD
ATOM     11  H   UNL     1      -1.938   0.703   1.567  0.00  0.00    -0.090 HD
ATOM     12  H   UNL     1      -3.020  -0.467   1.151  0.00  0.00    -0.090 HD
ENDBRANCH   8   9
BRANCH   8  14
ATOM     13  C   UNL     1       0.397   1.235   0.616  0.00  0.00    +0.002 C 
ATOM     14  C   UNL     1       0.214  -0.266   0.382  0.00  0.00    -0.018 C 
ENDBRANCH   8  14
ENDBRANCH   1   8
BRANCH   1  15
ATOM     15  S   UNL     1      -0.537  -2.384  -1.792  0.00  0.00    -0.079 S 
BRANCH  15  16
ATOM     16  C   UNL     1      -0.611  -4.137  -1.946  0.00  0.00    +0.189 A 
ATOM     17  N   UNL     1      -1.149  -4.851  -0.967  0.00  0.00    -0.230 NA
ATOM     18  C   UNL     1      -1.220  -6.169  -1.052  0.00  0.00    +0.115 A 
ATOM     19  C   UNL     1      -0.725  -6.802  -2.182  0.00  0.00    +0.043 A 
ATOM     20  C   UNL     1      -0.169  -6.025  -3.187  0.00  0.00    +0.043 A 
ATOM     21  N   UNL     1      -0.133  -4.711  -3.041  0.00  0.00    -0.227 NA
ATOM     22  C   UNL     1       0.382  -6.670  -4.432  0.00  0.00    +0.066 C 
ENDBRANCH  15  16
ENDBRANCH   1  15
TORSDOF 6
