REMARK  Name = ZINC02213956
REMARK  11 active torsions:
REMARK  status: ('A' for Active; 'I' for Inactive)
REMARK    1  A    between atoms: C_1  and  C_2
REMARK    2  A    between atoms: C_2  and  O_3
REMARK    3  A    between atoms: O_3  and  C_4
REMARK    4  A    between atoms: C_9  and  C_10
REMARK    5  A    between atoms: C_18  and  O_38
REMARK    6  A    between atoms: C_21  and  C_22
REMARK    7  A    between atoms: C_21  and  N_75
REMARK    8  A    between atoms: N_24  and  C_25
REMARK    9  A    between atoms: C_26  and  C_34
REMARK   10  A    between atoms: C_34  and  O_36
REMARK   11  A    between atoms: O_36  and  C_37
REMARK                            x       y       z     vdW  Elec       q    Type
REMARK                         _______ _______ _______ _____ _____    ______ ____
ROOT
ATOM      1  C   UNL     1       2.144   1.569   1.252  0.00  0.00    -0.028 C 
ATOM      2  C   UNL     1       1.399   2.088   0.022  0.00  0.00    +0.011 C 
ATOM      3  C   UNL     1       2.108   1.619  -1.248  0.00  0.00    +0.005 C 
ATOM      4  C   UNL     1       2.127   0.090  -1.291  0.00  0.00    +0.000 C 
ATOM      5  C   UNL     1       0.690  -0.436  -1.285  0.00  0.00    +0.003 C 
ATOM      6  C   UNL     1      -0.016   0.028  -0.009  0.00  0.00    +0.035 C 
ATOM      7  C   UNL     1      -0.037   1.557   0.039  0.00  0.00    +0.066 C 
ATOM      8  C   UNL     1      -0.718   2.009   1.335  0.00  0.00    +0.016 C 
ATOM      9  C   UNL     1       0.086   1.493   2.531  0.00  0.00    -0.075 C 
ATOM     10  N   UNL     1       1.454   2.051   2.468  0.00  0.00    +0.390 N 
ATOM     11  H   UNL     1       1.395   3.075   2.434  0.00  0.00    -0.080 HD
ENDROOT
BRANCH   1  17
ATOM     12  C   UNL     1       3.794   3.433   1.557  0.00  0.00    +0.122 A 
ATOM     13  C   UNL     1       5.093   3.920   1.552  0.00  0.00    +0.046 A 
ATOM     14  C   UNL     1       6.144   3.080   1.239  0.00  0.00    +0.004 A 
ATOM     15  C   UNL     1       5.902   1.754   0.930  0.00  0.00    +0.000 A 
ATOM     16  C   UNL     1       4.609   1.264   0.940  0.00  0.00    +0.005 A 
ATOM     17  C   UNL     1       3.554   2.102   1.247  0.00  0.00    -0.019 A 
BRANCH  12  18
ATOM     18  O   UNL     1       2.759   4.257   1.866  0.00  0.00    -0.492 OA
BRANCH  18  20
ATOM     19  C   UNL     1       1.808   6.381   2.517  0.00  0.00    +0.048 C 
ATOM     20  C   UNL     1       3.067   5.638   2.067  0.00  0.00    +0.225 C 
ENDBRANCH  18  20
ENDBRANCH  12  18
ENDBRANCH   1  17
BRANCH   7  21
ATOM     21  O   UNL     1      -0.749   2.063  -1.092  0.00  0.00    -0.388 OA
ATOM     22  H   UNL     1      -1.669   1.767  -1.142  0.00  0.00    +0.210 HD
ENDBRANCH   7  21
BRANCH  10  23
ATOM     23  C   UNL     1       2.215   1.655   3.671  0.00  0.00    +0.020 C 
BRANCH  23  24
ATOM     24  C   UNL     1       1.614   2.338   4.872  0.00  0.00    +0.201 C 
ATOM     25  O   UNL     1       0.648   3.059   4.739  0.00  0.00    -0.278 OA
ATOM     26  N   UNL     1       2.151   2.149   6.094  0.00  0.00    -0.281 N 
ATOM     27  H   UNL     1       2.924   1.572   6.200  0.00  0.00    +0.155 HD
BRANCH  26  28
ATOM     28  C   UNL     1       1.598   2.778   7.199  0.00  0.00    +0.086 A 
ATOM     29  C   UNL     1       2.002   2.703   8.525  0.00  0.00    +0.091 A 
ATOM     30  C   UNL     1       1.246   3.472   9.501  0.00  0.00    -0.021 A 
ATOM     31  C   UNL     1       0.210   4.178   8.999  0.00  0.00    -0.004 A 
ATOM     32  S   UNL     1       0.232   3.841   7.261  0.00  0.00    -0.077 S 
ATOM     33  C   UNL     1      -0.742   5.049   9.759  0.00  0.00    +0.043 C 
ATOM     34  C   UNL     1      -0.600   4.731  11.254  0.00  0.00    +0.005 C 
ATOM     35  C   UNL     1       0.888   4.719  11.617  0.00  0.00    +0.005 C 
ATOM     36  C   UNL     1       1.566   3.499  10.990  0.00  0.00    +0.037 C 
BRANCH  29  37
ATOM     37  C   UNL     1       3.147   1.884   8.927  0.00  0.00    +0.342 C 
ATOM     38  O   UNL     1       4.263   2.366   8.945  0.00  0.00    -0.245 OA
BRANCH  37  39
ATOM     39  O   UNL     1       2.964   0.594   9.275  0.00  0.00    -0.464 OA
ATOM     40  C   UNL     1       4.145  -0.158   9.662  0.00  0.00    +0.280 C 
ENDBRANCH  37  39
ENDBRANCH  29  37
ENDBRANCH  26  28
ENDBRANCH  23  24
ENDBRANCH  10  23
TORSDOF 9
