REMARK  Name = ZINC66402067
REMARK  7 active torsions:
REMARK  status: ('A' for Active; 'I' for Inactive)
REMARK    1  A    between atoms: C_1  and  C_2
REMARK    2  A    between atoms: N_7  and  C_9
REMARK    3  A    between atoms: C_9  and  C_10
REMARK    4  A    between atoms: C_10  and  C_12
REMARK    5  A    between atoms: C_10  and  N_13
REMARK    6  A    between atoms: N_16  and  C_17
REMARK    7  A    between atoms: C_19  and  C_25
REMARK                            x       y       z     vdW  Elec       q    Type
REMARK                         _______ _______ _______ _____ _____    ______ ____
ROOT
ATOM      1  N   UNL     1      -0.071  -4.473   2.548  0.00  0.00    -0.298 N 
ATOM      2  C   UNL     1      -0.392  -5.695   2.078  0.00  0.00    +0.304 C 
ATOM      3  O   UNL     1       0.479  -6.524   1.895  0.00  0.00    -0.253 OA
ATOM      4  N   UNL     1      -1.677  -5.997   1.810  0.00  0.00    -0.265 N 
ATOM      5  H   UNL     1      -0.765  -3.812   2.693  0.00  0.00    +0.150 HD
ATOM      6  H   UNL     1      -2.380  -5.363   2.025  0.00  0.00    +0.157 HD
ENDROOT
BRANCH   4   7
ATOM      7  C   UNL     1      -2.000  -7.228   1.221  0.00  0.00    +0.100 A 
ATOM      8  C   UNL     1      -2.851  -8.095   1.851  0.00  0.00    +0.042 A 
ATOM      9  C   UNL     1      -3.158  -9.319   1.240  0.00  0.00    +0.073 A 
ATOM     10  C   UNL     1      -2.613  -9.633   0.042  0.00  0.00    +0.098 A 
ATOM     11  N   UNL     1      -1.767  -8.773  -0.585  0.00  0.00    -0.327 N 
ATOM     12  H   UNL     1      -1.387  -9.016  -1.444  0.00  0.00    +0.168 HD
ATOM     13  C   UNL     1      -1.455  -7.586  -0.031  0.00  0.00    +0.270 A 
ATOM     14  O   UNL     1      -0.698  -6.822  -0.608  0.00  0.00    -0.266 OA
BRANCH   9  15
ATOM     15  C   UNL     1      -4.093 -10.286   1.919  0.00  0.00    +0.419 C 
ATOM     16  F   UNL     1      -4.243 -11.427   1.122  0.00  0.00    -0.166 F 
ATOM     17  F   UNL     1      -3.565 -10.651   3.162  0.00  0.00    -0.166 F 
ATOM     18  F   UNL     1      -5.340  -9.678   2.102  0.00  0.00    -0.166 F 
ENDBRANCH   9  15
ENDBRANCH   4   7
BRANCH   1  19
ATOM     19  C   UNL     1       1.327  -4.144   2.839  0.00  0.00    +0.055 C 
ATOM     20  C   UNL     1       1.679  -4.618   4.250  0.00  0.00    +0.026 C 
BRANCH  19  21
ATOM     21  C   UNL     1       1.524  -2.630   2.746  0.00  0.00    -0.057 C 
BRANCH  21  27
ATOM     22  C   UNL     1       0.674   1.338   0.007  0.00  0.00    +0.005 C 
ATOM     23  C   UNL     1       0.598  -0.189   0.049  0.00  0.00    -0.031 C 
ATOM     24  C   UNL     1       1.438  -0.775  -1.089  0.00  0.00    -0.001 C 
ATOM     25  C   UNL     1       1.419  -2.303  -0.991  0.00  0.00    -0.018 C 
ATOM     26  C   UNL     1       1.933  -2.727   0.386  0.00  0.00    -0.079 C 
ATOM     27  N   UNL     1       1.073  -2.157   1.430  0.00  0.00    +0.381 N 
ATOM     28  C   UNL     1       1.142  -0.691   1.389  0.00  0.00    -0.076 C 
ATOM     29  H   UNL     1       0.120  -2.452   1.278  0.00  0.00    -0.082 HD
ENDBRANCH  21  27
ENDBRANCH  19  21
ENDBRANCH   1  19
TORSDOF 5
