REMARK  Name = ZINC04087270
REMARK  6 active torsions:
REMARK  status: ('A' for Active; 'I' for Inactive)
REMARK    1  A    between atoms: C_1  and  C_2
REMARK    2  A    between atoms: C_2  and  N_43
REMARK    3  A    between atoms: C_8  and  N_13
REMARK    4  A    between atoms: C_9  and  C_10
REMARK    5  A    between atoms: C_14  and  C_16
REMARK    6  A    between atoms: C_17  and  C_18
REMARK                            x       y       z     vdW  Elec       q    Type
REMARK                         _______ _______ _______ _____ _____    ______ ____
ROOT
ATOM      1  C   UNL     1       2.017   2.978  -3.634  0.00  0.00    -0.074 C 
ATOM      2  C   UNL     1       1.330   2.047  -2.631  0.00  0.00    +0.018 C 
ATOM      3  C   UNL     1       1.880   2.355  -1.243  0.00  0.00    -0.027 A 
ATOM      4  C   UNL     1       3.038   3.042  -1.109  0.00  0.00    -0.021 A 
ATOM      5  S   UNL     1       3.287   3.171   0.637  0.00  0.00    -0.079 S 
ATOM      6  C   UNL     1       1.873   2.331   1.184  0.00  0.00    +0.085 A 
ATOM      7  C   UNL     1       1.245   1.963   0.001  0.00  0.00    +0.068 A 
ATOM      8  C   UNL     1       3.896   3.562  -2.220  0.00  0.00    -0.035 C 
ATOM      9  N   UNL     1       3.482   2.880  -3.470  0.00  0.00    +0.383 N 
ATOM     10  H   UNL     1       3.746   1.889  -3.414  0.00  0.00    -0.081 HD
ENDROOT
BRANCH   7  11
ATOM     11  C   UNL     1      -0.014   1.213   0.009  0.00  0.00    +0.244 C 
ATOM     12  O   UNL     1       0.002  -0.004   0.002  0.00  0.00    -0.270 OA
ATOM     13  N   UNL     1      -1.191   1.871   0.018  0.00  0.00    -0.325 N 
ATOM     14  H   UNL     1      -2.024   1.375   0.019  0.00  0.00    +0.145 HD
ATOM     15  H   UNL     1      -1.204   2.841   0.023  0.00  0.00    +0.145 HD
ENDBRANCH   7  11
BRANCH   6  16
ATOM     16  N   UNL     1       1.469   2.084   2.485  0.00  0.00    -0.276 N 
ATOM     17  C   UNL     1       2.216   2.523   3.518  0.00  0.00    +0.241 C 
ATOM     18  O   UNL     1       3.246   3.137   3.306  0.00  0.00    -0.270 OA
ATOM     19  H   UNL     1       0.648   1.595   2.654  0.00  0.00    +0.156 HD
BRANCH  17  20
ATOM     20  C   UNL     1       1.803   2.271   4.846  0.00  0.00    +0.068 C 
ATOM     21  C   UNL     1       2.555   2.713   5.886  0.00  0.00    +0.020 C 
BRANCH  21  22
ATOM     22  C   UNL     1       2.142   2.460   7.216  0.00  0.00    +0.012 A 
ATOM     23  C   UNL     1       2.761   2.816   8.409  0.00  0.00    +0.015 A 
ATOM     24  C   UNL     1       2.135   2.444   9.571  0.00  0.00    +0.008 A 
ATOM     25  C   UNL     1       0.968   1.750   9.504  0.00  0.00    +0.046 A 
ATOM     26  S   UNL     1       0.695   1.595   7.799  0.00  0.00    -0.097 S 
ENDBRANCH  21  22
ENDBRANCH  17  20
ENDBRANCH   6  16
BRANCH   9  28
ATOM     27  C   UNL     1       3.711   4.944  -4.810  0.00  0.00    -0.017 C 
ATOM     28  C   UNL     1       4.163   3.493  -4.631  0.00  0.00    -0.082 C 
ENDBRANCH   9  28
TORSDOF 5
