REMARK  Name = ZINC20024020
REMARK  6 active torsions:
REMARK  status: ('A' for Active; 'I' for Inactive)
REMARK    1  A    between atoms: C_1  and  C_2
REMARK    2  A    between atoms: C_5  and  N_8
REMARK    3  A    between atoms: C_12  and  N_13
REMARK    4  A    between atoms: N_13  and  C_14
REMARK    5  A    between atoms: C_14  and  C_15
REMARK    6  A    between atoms: C_15  and  N_16
REMARK                            x       y       z     vdW  Elec       q    Type
REMARK                         _______ _______ _______ _____ _____    ______ ____
ROOT
ATOM      1  N   UNL     1       0.075  -4.174  -0.025  0.00  0.00    -0.190 N 
ATOM      2  C   UNL     1       0.200  -4.837   1.143  0.00  0.00    +0.265 C 
ATOM      3  O   UNL     1       0.325  -4.235   2.193  0.00  0.00    -0.269 OA
ATOM      4  C   UNL     1       0.179  -6.310   1.114  0.00  0.00    +0.113 C 
ATOM      5  C   UNL     1       0.301  -7.056   2.271  0.00  0.00    +0.086 C 
ATOM      6  C   UNL     1       0.022  -6.952  -0.203  0.00  0.00    +0.258 C 
ATOM      7  O   UNL     1      -0.004  -8.164  -0.308  0.00  0.00    -0.270 OA
ATOM      8  N   UNL     1      -0.092  -6.161  -1.290  0.00  0.00    -0.235 N 
ATOM      9  C   UNL     1      -0.070  -4.824  -1.188  0.00  0.00    +0.320 C 
ATOM     10  O   UNL     1      -0.183  -4.168  -2.204  0.00  0.00    -0.251 OA
ATOM     11  H   UNL     1      -0.196  -6.568  -2.164  0.00  0.00    +0.159 HD
ENDROOT
BRANCH   1  16
ATOM     12  C   UNL     1       0.142   1.501  -0.011  0.00  0.00    +0.044 C 
ATOM     13  C   UNL     1       0.124  -0.006  -0.015  0.00  0.00    -0.050 A 
ATOM     14  C   UNL     1      -1.047  -0.681  -0.304  0.00  0.00    +0.005 A 
ATOM     15  C   UNL     1      -1.067  -2.062  -0.308  0.00  0.00    +0.024 A 
ATOM     16  C   UNL     1       0.091  -2.772  -0.022  0.00  0.00    +0.046 A 
ATOM     17  C   UNL     1       1.266  -2.091   0.268  0.00  0.00    +0.024 A 
ATOM     18  C   UNL     1       1.281  -0.710   0.266  0.00  0.00    +0.005 A 
ENDBRANCH   1  16
BRANCH   5  19
ATOM     19  N   UNL     1       0.416  -8.398   2.199  0.00  0.00    -0.348 N 
ATOM     20  H   UNL     1       0.493  -8.832   1.335  0.00  0.00    +0.146 HD
BRANCH  19  21
ATOM     21  C   UNL     1       0.424  -9.199   3.425  0.00  0.00    +0.116 C 
BRANCH  21  22
ATOM     22  C   UNL     1       0.564 -10.680   3.066  0.00  0.00    +0.103 C 
BRANCH  22  23
ATOM     23  N   UNL     1       0.572 -11.484   4.295  0.00  0.00    -0.304 NA
ATOM     24  C   UNL     1      -0.728 -11.416   4.977  0.00  0.00    +0.065 C 
ATOM     25  C   UNL     1      -0.660 -12.216   6.280  0.00  0.00    -0.067 C 
ATOM     26  N   UNL     1      -0.317 -13.612   5.980  0.00  0.00    +0.381 N 
ATOM     27  C   UNL     1       0.995 -13.665   5.321  0.00  0.00    -0.067 C 
ATOM     28  C   UNL     1       0.940 -12.878   4.011  0.00  0.00    +0.065 C 
ATOM     29  H   UNL     1      -0.284 -14.142   6.838  0.00  0.00    -0.086 HD
ATOM     30  H   UNL     1      -1.016 -14.006   5.369  0.00  0.00    -0.086 HD
ENDBRANCH  22  23
ENDBRANCH  21  22
ENDBRANCH  19  21
ENDBRANCH   5  19
TORSDOF 5
