REMARK  Name = ZINC19413167
REMARK  7 active torsions:
REMARK  status: ('A' for Active; 'I' for Inactive)
REMARK    1  A    between atoms: C_1  and  C_2
REMARK    2  A    between atoms: C_2  and  C_3
REMARK    3  A    between atoms: C_3  and  N_4
REMARK    4  A    between atoms: N_7  and  C_8
REMARK    5  A    between atoms: C_8  and  C_18
REMARK    6  A    between atoms: C_9  and  C_17
REMARK    7  A    between atoms: C_14  and  C_16
REMARK                            x       y       z     vdW  Elec       q    Type
REMARK                         _______ _______ _______ _____ _____    ______ ____
ROOT
ATOM      1  C   UNL     1      -1.404   3.604   0.084  0.00  0.00    +0.142 C 
ATOM      2  C   UNL     1      -0.794   3.196  -1.259  0.00  0.00    +0.021 C 
ATOM      3  C   UNL     1      -0.941   1.685  -1.448  0.00  0.00    +0.006 C 
ATOM      4  C   UNL     1      -0.215   0.956  -0.316  0.00  0.00    +0.001 C 
ATOM      5  C   UNL     1      -0.824   1.364   1.027  0.00  0.00    +0.006 C 
ATOM      6  C   UNL     1      -0.677   2.875   1.216  0.00  0.00    +0.021 C 
ATOM      7  C   UNL     1      -1.287   3.282   2.559  0.00  0.00    +0.010 C 
ATOM      8  C   UNL     1       0.690   3.571  -1.280  0.00  0.00    +0.010 C 
ENDROOT
BRANCH   1  12
ATOM      9  N   UNL     1      -4.925   3.263  -0.913  0.00  0.00    -0.299 N 
ATOM     10  C   UNL     1      -3.640   3.671  -0.880  0.00  0.00    +0.300 C 
ATOM     11  O   UNL     1      -3.219   4.422  -1.737  0.00  0.00    -0.253 OA
ATOM     12  N   UNL     1      -2.824   3.245   0.104  0.00  0.00    -0.283 N 
ATOM     13  H   UNL     1      -5.306   2.583  -0.138  0.00  0.00    +0.150 HD
ATOM     14  H   UNL     1      -3.224   2.628   0.923  0.00  0.00    +0.151 HD
BRANCH   9  15
ATOM     15  C   UNL     1      -5.812   3.726  -1.983  0.00  0.00    +0.105 C 
BRANCH  15  17
ATOM     16  C   UNL     1      -8.131   3.603  -2.906  0.00  0.00    +0.005 C 
ATOM     17  C   UNL     1      -7.204   3.120  -1.789  0.00  0.00    +0.015 C 
ENDBRANCH  15  17
ENDBRANCH   9  15
ENDBRANCH   1  12
BRANCH   1  18
ATOM     18  C   UNL     1      -1.259   5.092   0.271  0.00  0.00    +0.379 C 
ATOM     19  O   UNL     1      -0.300   5.537   0.856  0.00  0.00    -0.244 OA
ATOM     20  O   UNL     1      -2.195   5.924  -0.214  0.00  0.00    -0.244 OA
ENDBRANCH   1  18
TORSDOF 4
