REMARK  Name = ZINC43260007
REMARK  7 active torsions:
REMARK  status: ('A' for Active; 'I' for Inactive)
REMARK    1  A    between atoms: C_1  and  C_2
REMARK    2  A    between atoms: C_2  and  C_3
REMARK    3  A    between atoms: C_3  and  C_5
REMARK    4  A    between atoms: C_3  and  N_21
REMARK    5  A    between atoms: C_5  and  C_7
REMARK    6  A    between atoms: C_5  and  N_13
REMARK    7  A    between atoms: C_18  and  C_20
REMARK                            x       y       z     vdW  Elec       q    Type
REMARK                         _______ _______ _______ _____ _____    ______ ____
ROOT
ATOM      1  C   UNL     1       1.169  -2.497  -1.166  0.00  0.00    +0.080 C 
ENDROOT
BRANCH   1   2
ATOM      2  N   UNL     1       1.661  -2.803   0.184  0.00  0.00    -0.290 NA
ATOM      3  C   UNL     1       2.845  -1.994   0.509  0.00  0.00    +0.113 C 
ATOM      4  C   UNL     1       3.358  -2.386   1.897  0.00  0.00    +0.175 C 
ATOM      5  O   UNL     1       2.308  -2.217   2.853  0.00  0.00    -0.377 OA
ATOM      6  C   UNL     1       1.140  -2.991   2.568  0.00  0.00    +0.178 C 
ATOM      7  C   UNL     1       0.604  -2.605   1.187  0.00  0.00    +0.080 C 
ATOM      8  C   UNL     1      -0.599  -3.485   0.842  0.00  0.00    +0.026 C 
ENDBRANCH   1   2
BRANCH   1   9
ATOM      9  C   UNL     1       1.908  -3.341  -2.172  0.00  0.00    +0.006 A 
ATOM     10  C   UNL     1       1.418  -4.029  -3.233  0.00  0.00    +0.014 A 
ATOM     11  C   UNL     1       2.293  -4.744  -4.030  0.00  0.00    +0.023 A 
ATOM     12  C   UNL     1       3.615  -4.735  -3.727  0.00  0.00    +0.055 A 
ATOM     13  S   UNL     1       3.656  -3.688  -2.282  0.00  0.00    -0.085 S 
ATOM     14 BR   UNL     1       5.045  -5.601  -4.611  0.00  0.00    -0.043 Br
ENDBRANCH   1   9
BRANCH   1  15
ATOM     15  C   UNL     1       1.404  -1.017  -1.472  0.00  0.00    -0.053 C 
BRANCH  15  16
ATOM     16  N   UNL     1       1.019  -0.737  -2.861  0.00  0.00    +0.381 N 
ATOM     17  H   UNL     1       0.043  -0.956  -2.991  0.00  0.00    -0.090 HD
ATOM     18  H   UNL     1       1.174   0.240  -3.063  0.00  0.00    -0.090 HD
ATOM     19  H   UNL     1       1.576  -1.301  -3.485  0.00  0.00    -0.090 HD
ENDBRANCH  15  16
BRANCH  15  21
ATOM     20  C   UNL     1       0.770   1.319  -0.852  0.00  0.00    +0.002 C 
ATOM     21  C   UNL     1       0.559  -0.161  -0.526  0.00  0.00    -0.018 C 
ENDBRANCH  15  21
ENDBRANCH   1  15
TORSDOF 5
