REMARK  Name = ZINC60343217
REMARK  11 active torsions:
REMARK  status: ('A' for Active; 'I' for Inactive)
REMARK    1  A    between atoms: C_1  and  C_2
REMARK    2  A    between atoms: C_4  and  C_34
REMARK    3  A    between atoms: C_5  and  C_9
REMARK    4  A    between atoms: C_6  and  C_8
REMARK    5  A    between atoms: C_15  and  C_17
REMARK    6  A    between atoms: C_17  and  N_18
REMARK    7  A    between atoms: N_18  and  C_19
REMARK    8  A    between atoms: N_18  and  C_27
REMARK    9  A    between atoms: C_19  and  C_20
REMARK   10  A    between atoms: C_24  and  O_26
REMARK   11  A    between atoms: C_30  and  O_33
REMARK                            x       y       z     vdW  Elec       q    Type
REMARK                         _______ _______ _______ _____ _____    ______ ____
ROOT
ATOM      1  C   UNL     1      -0.442 -10.062  -2.591  0.00  0.00    +0.020 C 
ENDROOT
BRANCH   1   8
ATOM      2  C   UNL     1       3.066  -6.756  -6.263  0.00  0.00    +0.081 A 
ATOM      3  C   UNL     1       3.938  -7.793  -6.444  0.00  0.00    +0.076 A 
ATOM      4  S   UNL     1       3.173  -9.052  -5.431  0.00  0.00    -0.060 S 
ATOM      5  C   UNL     1       1.782  -8.076  -4.876  0.00  0.00    +0.165 A 
ATOM      6  N   UNL     1       2.012  -6.924  -5.478  0.00  0.00    -0.225 NA
ATOM      7  N   UNL     1       0.738  -8.433  -4.031  0.00  0.00    -0.266 N 
ATOM      8  C   UNL     1       0.690  -9.675  -3.508  0.00  0.00    +0.202 C 
ATOM      9  O   UNL     1       1.556 -10.480  -3.776  0.00  0.00    -0.277 OA
ATOM     10  H   UNL     1       0.045  -7.789  -3.817  0.00  0.00    +0.157 HD
BRANCH   2  15
ATOM     11  C   UNL     1       3.973  -1.701  -8.868  0.00  0.00    +0.044 C 
ATOM     12  C   UNL     1       3.736  -3.024  -8.186  0.00  0.00    -0.050 A 
ATOM     13  C   UNL     1       3.729  -4.191  -8.929  0.00  0.00    +0.007 A 
ATOM     14  C   UNL     1       3.513  -5.405  -8.310  0.00  0.00    -0.041 A 
ATOM     15  C   UNL     1       3.300  -5.454  -6.934  0.00  0.00    +0.007 A 
ATOM     16  C   UNL     1       3.307  -4.276  -6.190  0.00  0.00    -0.041 A 
ATOM     17  C   UNL     1       3.530  -3.067  -6.819  0.00  0.00    +0.007 A 
ATOM     18  C   UNL     1       3.078  -4.321  -4.701  0.00  0.00    +0.044 C 
ATOM     19  C   UNL     1       3.505  -6.675  -9.121  0.00  0.00    +0.044 C 
ENDBRANCH   2  15
ENDBRANCH   1   8
BRANCH   1  20
ATOM     20  N   UNL     1      -0.339 -11.490  -2.264  0.00  0.00    +0.390 N 
ATOM     21  H   UNL     1      -1.133 -11.765  -1.704  0.00  0.00    -0.080 HD
BRANCH  20  22
ATOM     22  C   UNL     1      -0.320 -12.277  -3.504  0.00  0.00    -0.067 C 
ATOM     23  C   UNL     1      -1.540 -11.919  -4.354  0.00  0.00    -0.013 C 
ATOM     24  C   UNL     1      -1.520 -12.739  -5.646  0.00  0.00    +0.030 C 
ATOM     25  C   UNL     1      -1.555 -14.230  -5.305  0.00  0.00    +0.114 C 
ATOM     26  C   UNL     1      -0.335 -14.588  -4.455  0.00  0.00    +0.030 C 
ATOM     27  C   UNL     1      -0.355 -13.768  -3.163  0.00  0.00    -0.013 C 
BRANCH  25  28
ATOM     28  O   UNL     1      -1.536 -14.995  -6.512  0.00  0.00    -0.392 OA
ATOM     29  H   UNL     1      -1.557 -15.952  -6.371  0.00  0.00    +0.210 HD
ENDBRANCH  25  28
ENDBRANCH  20  22
BRANCH  20  30
ATOM     30  C   UNL     1       0.899 -11.732  -1.511  0.00  0.00    -0.042 C 
BRANCH  30  31
ATOM     31  C   UNL     1       0.824 -11.027  -0.181  0.00  0.00    -0.060 A 
ATOM     32  C   UNL     1       1.222  -9.706  -0.077  0.00  0.00    +0.002 A 
ATOM     33  C   UNL     1       1.155  -9.056   1.141  0.00  0.00    +0.004 A 
ATOM     34  C   UNL     1       0.690  -9.724   2.258  0.00  0.00    +0.045 A 
ATOM     35  C   UNL     1       0.290 -11.049   2.155  0.00  0.00    +0.117 A 
ATOM     36  C   UNL     1       0.353 -11.697   0.930  0.00  0.00    +0.047 A 
BRANCH  35  37
ATOM     37  O   UNL     1      -0.168 -11.708   3.252  0.00  0.00    -0.507 OA
ATOM     38  H   UNL     1      -1.123 -11.636   3.384  0.00  0.00    +0.292 HD
ENDBRANCH  35  37
ENDBRANCH  30  31
ENDBRANCH  20  30
ENDBRANCH   1  20
TORSDOF 8
