REMARK  Name = ZINC13729383
REMARK  7 active torsions:
REMARK  status: ('A' for Active; 'I' for Inactive)
REMARK    1  A    between atoms: C_4  and  C_7
REMARK    2  A    between atoms: C_7  and  O_8
REMARK    3  A    between atoms: O_8  and  C_9
REMARK    4  A    between atoms: C_12  and  C_16
REMARK    5  A    between atoms: C_16  and  N_17
REMARK    6  A    between atoms: N_17  and  C_18
REMARK    7  A    between atoms: C_27  and  O_30
REMARK                            x       y       z     vdW  Elec       q    Type
REMARK                         _______ _______ _______ _____ _____    ______ ____
ROOT
ATOM      1  C   UNL     1       5.287  -1.589  -1.586  0.00  0.00    +0.149 A 
ATOM      2  C   UNL     1       6.473  -0.876  -1.691  0.00  0.00    +0.061 A 
ATOM      3  C   UNL     1       7.667  -1.547  -1.883  0.00  0.00    +0.020 A 
ATOM      4  C   UNL     1       7.678  -2.926  -1.982  0.00  0.00    -0.062 A 
ATOM      5  C   UNL     1       6.497  -3.638  -1.882  0.00  0.00    +0.020 A 
ATOM      6  C   UNL     1       5.301  -2.973  -1.685  0.00  0.00    +0.061 A 
ATOM      7 BR   UNL     1       3.687  -3.948  -1.550  0.00  0.00    -0.046 Br
ATOM      8 BR   UNL     1       6.458   1.011  -1.564  0.00  0.00    -0.046 Br
ENDROOT
BRANCH   1   9
ATOM      9  O   UNL     1       4.113  -0.932  -1.392  0.00  0.00    -0.485 OA
BRANCH   9  10
ATOM     10  C   UNL     1       3.711  -0.707  -0.039  0.00  0.00    +0.264 C 
BRANCH  10  14
ATOM     11  C   UNL     1      -0.017   1.378   0.010  0.00  0.00    +0.000 A 
ATOM     12  C   UNL     1       1.171   2.086   0.002  0.00  0.00    +0.000 A 
ATOM     13  C   UNL     1       2.377   1.411  -0.014  0.00  0.00    +0.007 A 
ATOM     14  C   UNL     1       2.396   0.029  -0.022  0.00  0.00    -0.010 A 
ATOM     15  C   UNL     1       1.208  -0.679  -0.014  0.00  0.00    +0.007 A 
ATOM     16  C   UNL     1       0.002  -0.004   0.002  0.00  0.00    +0.000 A 
ENDBRANCH  10  14
ENDBRANCH   9  10
ENDBRANCH   1   9
BRANCH   4  17
ATOM     17  C   UNL     1       8.979  -3.654  -2.198  0.00  0.00    -0.046 C 
BRANCH  17  18
ATOM     18  N   UNL     1       9.229  -3.794  -3.639  0.00  0.00    +0.386 N 
ATOM     19  H   UNL     1       8.409  -4.364  -4.099  0.00  0.00    -0.085 HD
ATOM     20  H   UNL     1       9.285  -2.796  -4.100  0.00  0.00    -0.085 HD
BRANCH  18  21
ATOM     21  C   UNL     1      10.492  -4.500  -3.889  0.00  0.00    -0.065 C 
ATOM     22  C   UNL     1      11.648  -3.715  -3.265  0.00  0.00    -0.009 C 
ATOM     23  C   UNL     1      12.963  -4.451  -3.525  0.00  0.00    -0.009 C 
ATOM     24  C   UNL     1      12.899  -5.847  -2.900  0.00  0.00    +0.007 C 
ATOM     25  C   UNL     1      11.744  -6.632  -3.524  0.00  0.00    -0.009 C 
ATOM     26  C   UNL     1      10.428  -5.896  -3.264  0.00  0.00    -0.009 C 
ATOM     27  C   UNL     1      11.968  -6.758  -5.032  0.00  0.00    +0.038 C 
ATOM     28  C   UNL     1      12.033  -5.362  -5.657  0.00  0.00    +0.065 C 
ATOM     29  C   UNL     1      13.188  -4.577  -5.033  0.00  0.00    +0.038 C 
ATOM     30  C   UNL     1      10.717  -4.627  -5.397  0.00  0.00    +0.022 C 
BRANCH  28  31
ATOM     31  O   UNL     1      12.242  -5.480  -7.065  0.00  0.00    -0.389 OA
ATOM     32  H   UNL     1      12.316  -4.576  -7.688  0.00  0.00    +0.210 HD
ENDBRANCH  28  31
ENDBRANCH  18  21
ENDBRANCH  17  18
ENDBRANCH   4  17
TORSDOF 7
