REMARK  Name = ZINC40776324
REMARK  5 active torsions:
REMARK  status: ('A' for Active; 'I' for Inactive)
REMARK    1  A    between atoms: C_1  and  C_2
REMARK    2  A    between atoms: C_2  and  C_13
REMARK    3  A    between atoms: N_15  and  C_16
REMARK    4  A    between atoms: C_16  and  C_17
REMARK    5  A    between atoms: C_17  and  N_18
REMARK                            x       y       z     vdW  Elec       q    Type
REMARK                         _______ _______ _______ _____ _____    ______ ____
ROOT
ATOM      1  C   UNL     1      -1.412  -0.525   0.015  0.00  0.00    +0.266 C 
ATOM      2  O   UNL     1      -1.961  -0.815  -1.027  0.00  0.00    -0.271 OA
ATOM      3  N   UNL     1      -2.067  -0.668   1.184  0.00  0.00    -0.310 N 
ATOM      4  H   UNL     1      -1.628  -0.437   2.017  0.00  0.00    +0.149 HD
ENDROOT
BRANCH   1   6
ATOM      5  C   UNL     1      -0.019   1.526   0.010  0.00  0.00    +0.076 C 
ATOM      6  C   UNL     1       0.002  -0.004   0.002  0.00  0.00    +0.257 C 
ATOM      7  C   UNL     1       0.704  -0.490  -1.241  0.00  0.00    +0.270 C 
ATOM      8  O   UNL     1       0.065  -0.745  -2.240  0.00  0.00    -0.271 OA
ATOM      9  N   UNL     1       2.045  -0.638  -1.238  0.00  0.00    -0.279 N 
ATOM     10  C   UNL     1       2.750  -0.461  -0.040  0.00  0.00    +0.076 A 
ATOM     11  C   UNL     1       4.133  -0.380  -0.041  0.00  0.00    +0.027 A 
ATOM     12  C   UNL     1       4.813  -0.191   1.148  0.00  0.00    +0.002 A 
ATOM     13  C   UNL     1       4.116  -0.082   2.337  0.00  0.00    +0.004 A 
ATOM     14  C   UNL     1       2.736  -0.166   2.346  0.00  0.00    +0.047 A 
ATOM     15  C   UNL     1       2.049  -0.361   1.160  0.00  0.00    +0.144 A 
ATOM     16  O   UNL     1       0.694  -0.477   1.160  0.00  0.00    -0.466 OA
ATOM     17  H   UNL     1       2.516  -0.866  -2.055  0.00  0.00    +0.155 HD
ENDBRANCH   1   6
BRANCH   3  18
ATOM     18  C   UNL     1      -3.441  -1.175   1.196  0.00  0.00    +0.126 C 
BRANCH  18  19
ATOM     19  C   UNL     1      -3.948  -1.241   2.639  0.00  0.00    +0.142 C 
BRANCH  19  20
ATOM     20  N   UNL     1      -5.322  -1.747   2.651  0.00  0.00    -0.329 N 
ATOM     21  C   UNL     1      -6.458  -0.998   2.661  0.00  0.00    +0.200 A 
ATOM     22  N   UNL     1      -7.504  -1.771   2.670  0.00  0.00    -0.236 NA
ATOM     23  C   UNL     1      -7.111  -3.071   2.666  0.00  0.00    +0.089 A 
ATOM     24  C   UNL     1      -5.706  -3.073   2.648  0.00  0.00    +0.069 A 
ATOM     25  C   UNL     1      -5.018  -4.279   2.635  0.00  0.00    +0.028 A 
ATOM     26  C   UNL     1      -5.720  -5.466   2.637  0.00  0.00    +0.002 A 
ATOM     27  C   UNL     1      -7.107  -5.462   2.651  0.00  0.00    +0.002 A 
ATOM     28  C   UNL     1      -7.801  -4.285   2.671  0.00  0.00    +0.030 A 
ENDBRANCH  19  20
ENDBRANCH  18  19
ENDBRANCH   3  18
TORSDOF 4
