REMARK  Name = ZINC41661649
REMARK  5 active torsions:
REMARK  status: ('A' for Active; 'I' for Inactive)
REMARK    1  A    between atoms: C_1  and  C_2
REMARK    2  A    between atoms: C_2  and  C_3
REMARK    3  A    between atoms: C_2  and  C_4
REMARK    4  A    between atoms: C_4  and  N_5
REMARK    5  A    between atoms: C_15  and  C_16
REMARK                            x       y       z     vdW  Elec       q    Type
REMARK                         _______ _______ _______ _____ _____    ______ ____
ROOT
ATOM      1  N   UNL     1      -0.965  -0.821   2.456  0.00  0.00    -0.266 NA
ATOM      2  C   UNL     1      -0.051  -1.095   3.573  0.00  0.00    +0.130 C 
ATOM      3  C   UNL     1      -0.552  -0.408   4.817  0.00  0.00    +0.051 A 
ATOM      4  C   UNL     1      -1.484   0.613   4.738  0.00  0.00    +0.130 A 
ATOM      5  C   UNL     1      -1.938   1.243   5.896  0.00  0.00    +0.047 A 
ATOM      6  C   UNL     1      -1.471   0.859   7.120  0.00  0.00    +0.019 A 
ATOM      7  C   UNL     1      -0.534  -0.170   7.213  0.00  0.00    +0.068 A 
ATOM      8  C   UNL     1      -0.066  -0.812   6.056  0.00  0.00    +0.147 A 
ATOM      9  O   UNL     1       0.828  -1.767   6.394  0.00  0.00    -0.451 OA
ATOM     10  C   UNL     1       1.014  -1.829   7.734  0.00  0.00    +0.176 C 
ATOM     11  C   UNL     1       1.846  -2.680   8.389  0.00  0.00    +0.061 C 
ATOM     12  C   UNL     1       0.154  -0.810   8.350  0.00  0.00    +0.231 C 
ATOM     13  O   UNL     1       0.035  -0.551   9.535  0.00  0.00    -0.283 OA
ATOM     14  O   UNL     1      -1.973   1.015   3.536  0.00  0.00    -0.476 OA
ATOM     15  C   UNL     1      -1.243   0.622   2.371  0.00  0.00    +0.318 C 
ENDROOT
BRANCH  11  16
ATOM     16  C   UNL     1       2.546  -3.736   7.649  0.00  0.00    +0.022 A 
ATOM     17  C   UNL     1       2.650  -3.669   6.255  0.00  0.00    +0.031 A 
ATOM     18  C   UNL     1       3.308  -4.667   5.568  0.00  0.00    +0.042 A 
ATOM     19  C   UNL     1       3.866  -5.736   6.252  0.00  0.00    +0.029 A 
ATOM     20  C   UNL     1       3.771  -5.815   7.629  0.00  0.00    +0.022 A 
ATOM     21  C   UNL     1       3.123  -4.818   8.337  0.00  0.00    +0.136 A 
ATOM     22  O   UNL     1       3.036  -4.875   9.691  0.00  0.00    -0.465 OA
ATOM     23  C   UNL     1       3.305  -6.139  10.303  0.00  0.00    +0.395 C 
ATOM     24  O   UNL     1       4.512  -6.671   9.743  0.00  0.00    -0.339 OA
ATOM     25  C   UNL     1       4.381  -6.990   8.351  0.00  0.00    +0.202 C 
ATOM     26 CL   UNL     1       3.439  -4.583   3.839  0.00  0.00    -0.084 Cl
ENDBRANCH  11  16
BRANCH   1  27
ATOM     27  C   UNL     1      -0.417  -1.326   1.190  0.00  0.00    +0.091 C 
BRANCH  27  29
ATOM     28  C   UNL     1      -2.053  -3.214   1.140  0.00  0.00    +0.008 C 
ATOM     29  C   UNL     1      -0.568  -2.848   1.141  0.00  0.00    -0.003 C 
ATOM     30  C   UNL     1       0.090  -3.385  -0.132  0.00  0.00    +0.008 C 
ENDBRANCH  27  29
ENDBRANCH   1  27
TORSDOF 3
