REMARK  Name = ZINC21319205
REMARK  10 active torsions:
REMARK  status: ('A' for Active; 'I' for Inactive)
REMARK    1  A    between atoms: C_1  and  O_2
REMARK    2  A    between atoms: O_2  and  C_3
REMARK    3  A    between atoms: C_8  and  N_9
REMARK    4  A    between atoms: C_10  and  C_12
REMARK    5  A    between atoms: C_12  and  S_13
REMARK    6  A    between atoms: S_13  and  C_14
REMARK    7  A    between atoms: N_18  and  N_19
REMARK    8  A    between atoms: N_20  and  N_21
REMARK    9  A    between atoms: C_22  and  C_23
REMARK   10  A    between atoms: C_28  and  O_29
REMARK                            x       y       z     vdW  Elec       q    Type
REMARK                         _______ _______ _______ _____ _____    ______ ____
ROOT
ATOM      1  C   UNL     1      -0.252   1.828  -2.272  0.00  0.00    +0.210 A 
ATOM      2  N   UNL     1      -1.251   2.268  -2.999  0.00  0.00    -0.119 NA
ATOM      3  N   UNL     1      -2.404   2.257  -2.203  0.00  0.00    -0.109 NA
ATOM      4  C   UNL     1      -2.073   1.807  -1.017  0.00  0.00    +0.254 A 
ATOM      5  N   UNL     1      -0.735   1.527  -1.030  0.00  0.00    -0.211 N 
ATOM      6  N   UNL     1      -2.930   1.644   0.061  0.00  0.00    -0.204 N 
ATOM      7  H   UNL     1      -2.545   1.257   1.016  0.00  0.00    +0.177 HD
ENDROOT
BRANCH   5   8
ATOM      8  N   UNL     1      -0.007   1.038   0.018  0.00  0.00    -0.294 N 
ATOM      9  H   UNL     1      -0.498   0.830   0.979  0.00  0.00    +0.163 HD
ATOM     10  H   UNL     1       1.071   0.853  -0.101  0.00  0.00    +0.163 HD
ENDBRANCH   5   8
BRANCH   6  11
ATOM     11  N   UNL     1      -4.286   1.973  -0.065  0.00  0.00    -0.187 NA
ATOM     12  C   UNL     1      -5.088   1.820   0.944  0.00  0.00    +0.142 C 
BRANCH  12  13
ATOM     13  C   UNL     1      -6.515   2.166   0.811  0.00  0.00    +0.037 A 
ATOM     14  C   UNL     1      -7.381   2.003   1.895  0.00  0.00    +0.028 A 
ATOM     15  C   UNL     1      -8.715   2.328   1.763  0.00  0.00    +0.019 A 
ATOM     16  C   UNL     1      -9.200   2.815   0.560  0.00  0.00    +0.019 A 
ATOM     17  C   UNL     1      -8.351   2.981  -0.519  0.00  0.00    +0.047 A 
ATOM     18  C   UNL     1      -7.008   2.664  -0.402  0.00  0.00    +0.126 A 
ATOM     19 BR   UNL     1      -9.888   2.108   3.230  0.00  0.00    -0.050 Br
BRANCH  18  20
ATOM     20  O   UNL     1      -6.173   2.832  -1.461  0.00  0.00    -0.506 OA
ATOM     21  H   UNL     1      -6.563   3.223  -2.412  0.00  0.00    +0.292 HD
ENDBRANCH  18  20
ENDBRANCH  12  13
ENDBRANCH   6  11
BRANCH   1  22
ATOM     22  S   UNL     1       1.419   1.653  -2.804  0.00  0.00    -0.075 S 
BRANCH  22  23
ATOM     23  C   UNL     1       1.391   2.216  -4.528  0.00  0.00    +0.173 C 
BRANCH  23  25
ATOM     24  N   UNL     1       2.998   2.484  -6.389  0.00  0.00    -0.282 N 
ATOM     25  C   UNL     1       2.777   2.117  -5.112  0.00  0.00    +0.228 C 
ATOM     26  O   UNL     1       3.693   1.706  -4.431  0.00  0.00    -0.275 OA
ATOM     27  H   UNL     1       2.154   2.769  -7.034  0.00  0.00    +0.155 HD
BRANCH  24  33
ATOM     28  C   UNL     1       4.523   2.371  -8.266  0.00  0.00    +0.141 A 
ATOM     29  C   UNL     1       5.817   2.389  -8.763  0.00  0.00    +0.047 A 
ATOM     30  C   UNL     1       6.886   2.538  -7.899  0.00  0.00    +0.004 A 
ATOM     31  C   UNL     1       6.670   2.668  -6.540  0.00  0.00    +0.002 A 
ATOM     32  C   UNL     1       5.382   2.655  -6.038  0.00  0.00    +0.027 A 
ATOM     33  C   UNL     1       4.304   2.502  -6.897  0.00  0.00    +0.076 A 
BRANCH  28  35
ATOM     34  C   UNL     1       3.770   2.097 -10.505  0.00  0.00    +0.277 C 
ATOM     35  O   UNL     1       3.470   2.226  -9.114  0.00  0.00    -0.493 OA
ENDBRANCH  28  35
ENDBRANCH  24  33
ENDBRANCH  23  25
ENDBRANCH  22  23
ENDBRANCH   1  22
TORSDOF 9
