REMARK  Name = ZINC09302176
REMARK  14 active torsions:
REMARK  status: ('A' for Active; 'I' for Inactive)
REMARK    1  A    between atoms: C_1  and  C_2
REMARK    2  A    between atoms: C_2  and  N_69
REMARK    3  A    between atoms: C_3  and  C_4
REMARK    4  A    between atoms: C_3  and  N_69
REMARK    5  A    between atoms: C_5  and  C_6
REMARK    6  A    between atoms: C_5  and  N_69
REMARK    7  A    between atoms: C_6  and  N_7
REMARK    8  A    between atoms: C_8  and  C_26
REMARK    9  A    between atoms: C_11  and  C_12
REMARK   10  A    between atoms: C_11  and  O_21
REMARK   11  A    between atoms: C_29  and  C_32
REMARK   12  A    between atoms: C_32  and  C_33
REMARK   13  A    between atoms: C_32  and  C_34
REMARK   14  A    between atoms: C_32  and  C_35
REMARK                            x       y       z     vdW  Elec       q    Type
REMARK                         _______ _______ _______ _____ _____    ______ ____
ROOT
ATOM      1  N   UNL     1       2.184  -3.884  -2.063  0.00  0.00    -0.285 N 
ATOM      2  C   UNL     1       3.495  -4.293  -1.549  0.00  0.00    +0.144 C 
ATOM      3  C   UNL     1       3.508  -5.804  -1.552  0.00  0.00    +0.074 C 
ATOM      4  C   UNL     1       4.545  -6.628  -1.146  0.00  0.00    +0.168 C 
ATOM      5  C   UNL     1       2.263  -6.204  -2.053  0.00  0.00    +0.249 C 
ATOM      6  O   UNL     1       1.892  -7.354  -2.212  0.00  0.00    -0.282 OA
ATOM      7  C   UNL     1       1.470  -4.983  -2.359  0.00  0.00    +0.288 C 
ATOM      8  O   UNL     1       0.343  -4.980  -2.809  0.00  0.00    -0.266 OA
ENDROOT
BRANCH   4   9
ATOM      9  C   UNL     1       4.454  -8.073  -1.350  0.00  0.00    +0.171 A 
ATOM     10  C   UNL     1       4.703  -9.020  -0.402  0.00  0.00    +0.061 A 
ATOM     11  C   UNL     1       4.495 -10.280  -1.015  0.00  0.00    +0.021 A 
ATOM     12  C   UNL     1       4.590 -11.602  -0.567  0.00  0.00    +0.011 A 
ATOM     13  C   UNL     1       4.325 -12.630  -1.426  0.00  0.00    +0.001 A 
ATOM     14  C   UNL     1       3.962 -12.373  -2.741  0.00  0.00    +0.004 A 
ATOM     15  C   UNL     1       3.863 -11.079  -3.204  0.00  0.00    +0.047 A 
ATOM     16  C   UNL     1       4.128 -10.016  -2.349  0.00  0.00    +0.136 A 
ATOM     17  O   UNL     1       4.115  -8.677  -2.510  0.00  0.00    -0.452 OA
ENDBRANCH   4   9
BRANCH   2  18
ATOM     18  C   UNL     1       3.682  -3.780  -0.144  0.00  0.00    -0.022 A 
ATOM     19  C   UNL     1       2.624  -3.801   0.745  0.00  0.00    +0.006 A 
ATOM     20  C   UNL     1       2.796  -3.335   2.035  0.00  0.00    +0.004 A 
ATOM     21  C   UNL     1       4.024  -2.839   2.433  0.00  0.00    -0.042 A 
ATOM     22  C   UNL     1       5.080  -2.813   1.541  0.00  0.00    +0.004 A 
ATOM     23  C   UNL     1       4.909  -3.284   0.253  0.00  0.00    +0.006 A 
BRANCH  21  24
ATOM     24  C   UNL     1       4.210  -2.327   3.837  0.00  0.00    -0.013 C 
ATOM     25  C   UNL     1       4.619  -0.853   3.793  0.00  0.00    +0.015 C 
ATOM     26  C   UNL     1       2.897  -2.468   4.611  0.00  0.00    +0.015 C 
ATOM     27  C   UNL     1       5.303  -3.139   4.536  0.00  0.00    +0.015 C 
ENDBRANCH  21  24
ENDBRANCH   2  18
BRANCH   4  28
ATOM     28  O   UNL     1       5.641  -6.096  -0.560  0.00  0.00    -0.503 OA
ATOM     29  H   UNL     1       6.285  -6.826  -0.332  0.00  0.00    +0.292 HD
ENDBRANCH   4  28
BRANCH   1  30
ATOM     30  C   UNL     1       1.729  -2.502  -2.232  0.00  0.00    +0.090 C 
BRANCH  30  31
ATOM     31  C   UNL     1       1.036  -2.033  -0.952  0.00  0.00    -0.060 C 
BRANCH  31  32
ATOM     32  N   UNL     1       0.453  -0.695  -1.189  0.00  0.00    +0.380 N 
ATOM     33  H   UNL     1      -0.074  -0.712  -2.070  0.00  0.00    -0.082 HD
BRANCH  32  35
ATOM     34  C   UNL     1      -1.219   0.936  -0.463  0.00  0.00    -0.017 C 
ATOM     35  C   UNL     1      -0.465  -0.341  -0.087  0.00  0.00    -0.082 C 
ENDBRANCH  32  35
BRANCH  32  36
ATOM     36  C   UNL     1       1.530   0.313  -1.293  0.00  0.00    -0.082 C 
ATOM     37  C   UNL     1       2.343   0.365   0.002  0.00  0.00    -0.017 C 
ENDBRANCH  32  36
ENDBRANCH  31  32
ENDBRANCH  30  31
ENDBRANCH   1  30
TORSDOF 9
