REMARK  Name = ZINC58288884
REMARK  11 active torsions:
REMARK  status: ('A' for Active; 'I' for Inactive)
REMARK    1  A    between atoms: C_1  and  C_2
REMARK    2  A    between atoms: C_2  and  C_4
REMARK    3  A    between atoms: C_2  and  N_15
REMARK    4  A    between atoms: N_6  and  C_7
REMARK    5  A    between atoms: C_8  and  C_12
REMARK    6  A    between atoms: N_15  and  C_16
REMARK    7  A    between atoms: N_15  and  C_17
REMARK    8  A    between atoms: C_17  and  C_18
REMARK    9  A    between atoms: C_21  and  C_24
REMARK   10  A    between atoms: C_24  and  C_25
REMARK   11  A    between atoms: C_24  and  C_26
REMARK                            x       y       z     vdW  Elec       q    Type
REMARK                         _______ _______ _______ _____ _____    ______ ____
ROOT
ATOM      1  C   UNL     1       0.068   1.315   0.778  0.00  0.00    -0.004 C 
ATOM      2  C   UNL     1      -0.013  -0.010   0.017  0.00  0.00    +0.016 C 
ENDROOT
BRANCH   2   3
ATOM      3  C   UNL     1      -1.402  -0.581   0.148  0.00  0.00    +0.204 C 
ATOM      4  O   UNL     1      -1.656  -1.359   1.043  0.00  0.00    -0.277 OA
ATOM      5  N   UNL     1      -2.362  -0.225  -0.729  0.00  0.00    -0.281 N 
ATOM      6  H   UNL     1      -2.159   0.398  -1.444  0.00  0.00    +0.155 HD
BRANCH   5   7
ATOM      7  C   UNL     1      -3.640  -0.750  -0.608  0.00  0.00    +0.084 A 
ATOM      8  C   UNL     1      -4.742  -0.505  -1.414  0.00  0.00    +0.065 A 
ATOM      9  C   UNL     1      -5.965  -1.189  -1.062  0.00  0.00    +0.022 A 
ATOM     10  C   UNL     1      -5.898  -1.992   0.016  0.00  0.00    +0.048 A 
ATOM     11  S   UNL     1      -4.206  -1.833   0.542  0.00  0.00    -0.081 S 
BRANCH   8  12
ATOM     12  C   UNL     1      -4.670   0.402  -2.564  0.00  0.00    +0.244 C 
ATOM     13  O   UNL     1      -3.623   0.962  -2.832  0.00  0.00    -0.270 OA
ATOM     14  N   UNL     1      -5.762   0.615  -3.324  0.00  0.00    -0.325 N 
ATOM     15  H   UNL     1      -6.596   0.168  -3.110  0.00  0.00    +0.145 HD
ATOM     16  H   UNL     1      -5.714   1.215  -4.085  0.00  0.00    +0.145 HD
ENDBRANCH   8  12
ENDBRANCH   5   7
ENDBRANCH   2   3
BRANCH   2  17
ATOM     17  N   UNL     1       0.960  -0.957   0.577  0.00  0.00    +0.388 N 
ATOM     18  C   UNL     1       0.926  -2.207  -0.194  0.00  0.00    -0.095 C 
ATOM     19  H   UNL     1       0.726  -1.149   1.540  0.00  0.00    -0.081 HD
BRANCH  17  20
ATOM     20  C   UNL     1       2.307  -0.375   0.507  0.00  0.00    -0.042 C 
BRANCH  20  21
ATOM     21  C   UNL     1       3.287  -1.292   1.192  0.00  0.00    -0.064 A 
ATOM     22  C   UNL     1       3.541  -1.148   2.543  0.00  0.00    +0.002 A 
ATOM     23  C   UNL     1       4.440  -1.989   3.171  0.00  0.00    +0.004 A 
ATOM     24  C   UNL     1       5.085  -2.975   2.448  0.00  0.00    -0.045 A 
ATOM     25  C   UNL     1       4.831  -3.119   1.097  0.00  0.00    +0.004 A 
ATOM     26  C   UNL     1       3.928  -2.281   0.470  0.00  0.00    +0.002 A 
BRANCH  24  27
ATOM     27  C   UNL     1       6.066  -3.891   3.132  0.00  0.00    +0.013 C 
ATOM     28  C   UNL     1       5.590  -5.339   2.999  0.00  0.00    +0.012 C 
ATOM     29  C   UNL     1       7.442  -3.745   2.479  0.00  0.00    +0.012 C 
ENDBRANCH  24  27
ENDBRANCH  20  21
ENDBRANCH  17  20
ENDBRANCH   2  17
TORSDOF 7
