REMARK  Name = ZINC20465149
REMARK  9 active torsions:
REMARK  status: ('A' for Active; 'I' for Inactive)
REMARK    1  A    between atoms: C_1  and  N_2
REMARK    2  A    between atoms: N_5  and  C_8
REMARK    3  A    between atoms: C_10  and  C_20
REMARK    4  A    between atoms: C_13  and  C_18
REMARK    5  A    between atoms: C_15  and  O_17
REMARK    6  A    between atoms: C_18  and  O_19
REMARK    7  A    between atoms: C_20  and  N_21
REMARK    8  A    between atoms: N_21  and  S_22
REMARK    9  A    between atoms: S_22  and  C_25
REMARK                            x       y       z     vdW  Elec       q    Type
REMARK                         _______ _______ _______ _____ _____    ______ ____
ROOT
ATOM      1  C   UNL     1      -2.417   7.008  -4.565  0.00  0.00    +0.118 C 
ATOM      2  C   UNL     1      -1.271   7.352  -3.588  0.00  0.00    +0.154 C 
ATOM      3  O   UNL     1      -0.063   7.011  -4.301  0.00  0.00    -0.366 OA
ATOM      4  C   UNL     1      -0.286   7.450  -5.659  0.00  0.00    +0.174 C 
ATOM      5  C   UNL     1      -1.754   7.074  -5.959  0.00  0.00    +0.165 C 
ENDROOT
BRANCH   1  10
ATOM      6  C   UNL     1      -4.093   1.615  -4.700  0.00  0.00    -0.096 C 
ATOM      7  N   UNL     1      -3.579   2.966  -4.965  0.00  0.00    +0.379 N 
ATOM      8  C   UNL     1      -4.636   3.973  -4.801  0.00  0.00    -0.064 C 
ATOM      9  C   UNL     1      -4.082   5.354  -5.162  0.00  0.00    +0.066 C 
ATOM     10  N   UNL     1      -2.931   5.657  -4.300  0.00  0.00    -0.298 NA
ATOM     11  C   UNL     1      -1.874   4.650  -4.464  0.00  0.00    +0.066 C 
ATOM     12  C   UNL     1      -2.428   3.269  -4.103  0.00  0.00    -0.064 C 
ATOM     13  H   UNL     1      -3.238   2.997  -6.010  0.00  0.00    -0.082 HD
ENDBRANCH   1  10
BRANCH   5  14
ATOM     14  O   UNL     1      -1.823   5.802  -6.607  0.00  0.00    -0.388 OA
ATOM     15  H   UNL     1      -1.395   5.674  -7.613  0.00  0.00    +0.210 HD
ENDBRANCH   5  14
BRANCH   4  16
ATOM     16  C   UNL     1       0.657   6.721  -6.617  0.00  0.00    +0.190 C 
BRANCH  16  17
ATOM     17  O   UNL     1       1.996   7.169  -6.401  0.00  0.00    -0.392 OA
ATOM     18  H   UNL     1       2.819   6.754  -7.001  0.00  0.00    +0.210 HD
ENDBRANCH  16  17
ENDBRANCH   4  16
BRANCH   2  19
ATOM     19  C   UNL     1      -1.390   6.515  -2.312  0.00  0.00    +0.139 C 
BRANCH  19  20
ATOM     20  N   UNL     1      -0.390   6.963  -1.339  0.00  0.00    -0.187 NA
ATOM     21  H   UNL     1       0.529   7.460  -1.684  0.00  0.00    +0.148 HD
BRANCH  20  22
ATOM     22  S   UNL     1      -0.516   6.507   0.248  0.00  0.00    +0.058 S 
ATOM     23  O   UNL     1      -1.856   6.772   0.640  0.00  0.00    -0.153 OA
ATOM     24  O   UNL     1       0.601   7.071   0.922  0.00  0.00    -0.153 OA
BRANCH  22  25
ATOM     25  C   UNL     1      -0.310   4.758   0.305  0.00  0.00    +0.105 A 
ATOM     26  C   UNL     1       0.952   4.216   0.463  0.00  0.00    +0.030 A 
ATOM     27  C   UNL     1       1.114   2.845   0.508  0.00  0.00    +0.022 A 
ATOM     28  C   UNL     1       0.013   2.014   0.396  0.00  0.00    +0.041 A 
ATOM     29  C   UNL     1      -1.249   2.557   0.232  0.00  0.00    +0.022 A 
ATOM     30  C   UNL     1      -1.410   3.929   0.193  0.00  0.00    +0.030 A 
ATOM     31 CL   UNL     1       0.217   0.291   0.452  0.00  0.00    -0.084 Cl
ENDBRANCH  22  25
ENDBRANCH  20  22
ENDBRANCH  19  20
ENDBRANCH   2  19
TORSDOF 8
