REMARK  Name = ZINC43287145
REMARK  7 active torsions:
REMARK  status: ('A' for Active; 'I' for Inactive)
REMARK    1  A    between atoms: C_1  and  C_2
REMARK    2  A    between atoms: C_2  and  C_3
REMARK    3  A    between atoms: C_3  and  C_5
REMARK    4  A    between atoms: C_3  and  N_23
REMARK    5  A    between atoms: C_5  and  C_7
REMARK    6  A    between atoms: C_5  and  N_13
REMARK    7  A    between atoms: C_18  and  C_20
REMARK                            x       y       z     vdW  Elec       q    Type
REMARK                         _______ _______ _______ _____ _____    ______ ____
ROOT
ATOM      1  C   UNL     1       1.328  -3.043   2.603  0.00  0.00    -0.045 C 
ENDROOT
BRANCH   1   2
ATOM      2  N   UNL     1       1.832  -3.108   1.225  0.00  0.00    +0.391 N 
ATOM      3  C   UNL     1       3.172  -2.510   1.167  0.00  0.00    -0.077 C 
ATOM      4  C   UNL     1       3.669  -2.502  -0.280  0.00  0.00    -0.019 C 
ATOM      5  C   UNL     1       3.728  -3.941  -0.802  0.00  0.00    -0.003 C 
ATOM      6  C   UNL     1       2.342  -4.579  -0.668  0.00  0.00    -0.006 C 
ATOM      7  C   UNL     1       1.894  -4.510   0.794  0.00  0.00    +0.020 C 
ATOM      8  H   UNL     1       1.212  -2.597   0.616  0.00  0.00    -0.080 HD
BRANCH   7   9
ATOM      9  C   UNL     1       0.530  -5.137   0.930  0.00  0.00    +0.197 C 
ATOM     10  O   UNL     1      -0.444  -4.575   0.477  0.00  0.00    -0.278 OA
ATOM     11  N   UNL     1       0.394  -6.323   1.556  0.00  0.00    -0.331 N 
ATOM     12  H   UNL     1       1.173  -6.773   1.919  0.00  0.00    +0.145 HD
ATOM     13  H   UNL     1      -0.484  -6.727   1.644  0.00  0.00    +0.145 HD
ENDBRANCH   7   9
ENDBRANCH   1   2
BRANCH   1  14
ATOM     14  C   UNL     1      -0.179  -3.075   2.588  0.00  0.00    -0.024 A 
ATOM     15  C   UNL     1      -1.015  -4.079   2.947  0.00  0.00    +0.024 A 
ATOM     16  C   UNL     1      -2.380  -3.882   2.850  0.00  0.00    +0.025 A 
ATOM     17  C   UNL     1      -2.842  -2.690   2.398  0.00  0.00    +0.060 A 
ATOM     18  S   UNL     1      -1.325  -1.796   2.100  0.00  0.00    -0.102 S 
ATOM     19 BR   UNL     1      -3.585  -5.255   3.339  0.00  0.00    -0.050 Br
ENDBRANCH   1  14
BRANCH   1  20
ATOM     20  C   UNL     1       1.804  -1.746   3.260  0.00  0.00    -0.085 C 
BRANCH  20  21
ATOM     21  N   UNL     1       1.202  -1.623   4.594  0.00  0.00    +0.379 N 
ATOM     22  H   UNL     1       1.480  -2.410   5.162  0.00  0.00    -0.090 HD
ATOM     23  H   UNL     1       1.516  -0.768   5.028  0.00  0.00    -0.090 HD
ATOM     24  H   UNL     1       0.197  -1.608   4.510  0.00  0.00    -0.090 HD
ENDBRANCH  20  21
BRANCH  20  26
ATOM     25  C   UNL     1       1.965   0.733   2.989  0.00  0.00    +0.002 C 
ATOM     26  C   UNL     1       1.383  -0.554   2.399  0.00  0.00    -0.021 C 
ENDBRANCH  20  26
ENDBRANCH   1  20
TORSDOF 6
