REMARK  Name = ZINC22074859
REMARK  11 active torsions:
REMARK  status: ('A' for Active; 'I' for Inactive)
REMARK    1  A    between atoms: C_1  and  C_2
REMARK    2  A    between atoms: C_2  and  C_4
REMARK    3  A    between atoms: C_2  and  O_20
REMARK    4  A    between atoms: C_4  and  N_5
REMARK    5  A    between atoms: N_5  and  C_6
REMARK    6  A    between atoms: C_6  and  C_7
REMARK    7  A    between atoms: C_7  and  N_8
REMARK    8  A    between atoms: N_8  and  C_9
REMARK    9  A    between atoms: C_9  and  C_10
REMARK   10  A    between atoms: C_15  and  O_16
REMARK   11  A    between atoms: O_16  and  C_17
REMARK                            x       y       z     vdW  Elec       q    Type
REMARK                         _______ _______ _______ _____ _____    ______ ____
ROOT
ATOM      1  N   UNL     1      -0.012   1.005   0.008  0.00  0.00    -0.314 NA
ATOM      2  H   UNL     1       0.031  -0.092  -0.070  0.00  0.00    +0.122 HD
ENDROOT
BRANCH   1   3
ATOM      3  C   UNL     1       1.353   1.550  -0.003  0.00  0.00    +0.062 C 
BRANCH   3   4
ATOM      4  C   UNL     1       2.136   0.985   1.184  0.00  0.00    -0.067 C 
BRANCH   4   5
ATOM      5  N   UNL     1       3.501   1.530   1.173  0.00  0.00    +0.382 N 
ATOM      6  H   UNL     1       3.443   2.626   1.244  0.00  0.00    -0.086 HD
ATOM      7  H   UNL     1       3.986   1.248   0.228  0.00  0.00    -0.086 HD
BRANCH   5   8
ATOM      8  C   UNL     1       4.284   1.008   2.301  0.00  0.00    -0.051 C 
BRANCH   8  10
ATOM      9  C   UNL     1       6.549   0.959   3.355  0.00  0.00    +0.035 C 
ATOM     10  C   UNL     1       5.696   1.596   2.257  0.00  0.00    +0.095 C 
BRANCH  10  11
ATOM     11  O   UNL     1       5.630   3.009   2.464  0.00  0.00    -0.394 OA
ATOM     12  H   UNL     1       5.056   3.640   1.770  0.00  0.00    +0.210 HD
ENDBRANCH  10  11
ENDBRANCH   8  10
ENDBRANCH   5   8
ENDBRANCH   4   5
ENDBRANCH   3   4
ENDBRANCH   1   3
BRANCH   1  13
ATOM     13  C   UNL     1      -0.795   1.527  -1.120  0.00  0.00    +0.120 C 
BRANCH  13  14
ATOM     14  C   UNL     1      -2.186   0.947  -1.076  0.00  0.00    +0.010 A 
ATOM     15  C   UNL     1      -2.517  -0.117  -1.894  0.00  0.00    +0.023 A 
ATOM     16  C   UNL     1      -3.793  -0.650  -1.855  0.00  0.00    +0.019 A 
ATOM     17  C   UNL     1      -4.740  -0.120  -0.997  0.00  0.00    +0.034 A 
ATOM     18  C   UNL     1      -4.413   0.944  -0.177  0.00  0.00    +0.061 A 
ATOM     19  C   UNL     1      -3.132   1.477  -0.212  0.00  0.00    +0.138 A 
ATOM     20 BR   UNL     1      -5.708   1.668   0.995  0.00  0.00    -0.046 Br
ATOM     21 BR   UNL     1      -4.243  -2.105  -2.975  0.00  0.00    -0.050 Br
BRANCH  19  22
ATOM     22  O   UNL     1      -2.806   2.519   0.598  0.00  0.00    -0.494 OA
ATOM     23  C   UNL     1      -3.020   3.834   0.080  0.00  0.00    +0.277 C 
ENDBRANCH  19  22
ENDBRANCH  13  14
ENDBRANCH   1  13
TORSDOF 9
