REMARK  Name = ZINC39389094
REMARK  13 active torsions:
REMARK  status: ('A' for Active; 'I' for Inactive)
REMARK    1  A    between atoms: C_1  and  C_2
REMARK    2  A    between atoms: C_2  and  C_3
REMARK    3  A    between atoms: C_2  and  C_4
REMARK    4  A    between atoms: C_2  and  C_5
REMARK    5  A    between atoms: C_12  and  N_27
REMARK    6  A    between atoms: C_13  and  C_14
REMARK    7  A    between atoms: N_16  and  C_17
REMARK    8  A    between atoms: C_22  and  C_23
REMARK    9  A    between atoms: C_23  and  O_25
REMARK   10  A    between atoms: O_25  and  C_26
REMARK   11  A    between atoms: C_28  and  C_30
REMARK   12  A    between atoms: C_30  and  O_31
REMARK   13  A    between atoms: O_31  and  C_32
REMARK                            x       y       z     vdW  Elec       q    Type
REMARK                         _______ _______ _______ _____ _____    ______ ____
ROOT
ATOM      1  C   UNL     1       0.668  -0.479  -1.275  0.00  0.00    -0.000 C 
ATOM      2  C   UNL     1      -0.051   0.033  -2.527  0.00  0.00    +0.009 C 
ATOM      3  C   UNL     1       0.514  -0.656  -3.771  0.00  0.00    +0.037 C 
ATOM      4  C   UNL     1       2.029  -0.510  -3.763  0.00  0.00    -0.023 A 
ATOM      5  C   UNL     1       2.698  -0.194  -2.634  0.00  0.00    -0.004 A 
ATOM      6  S   UNL     1       4.398  -0.140  -3.119  0.00  0.00    -0.077 S 
ATOM      7  C   UNL     1       4.243  -0.519  -4.748  0.00  0.00    +0.085 A 
ATOM      8  C   UNL     1       2.879  -0.690  -4.927  0.00  0.00    +0.069 A 
ATOM      9  C   UNL     1       2.111   0.048  -1.277  0.00  0.00    +0.046 C 
ENDROOT
BRANCH   1  11
ATOM     10  C   UNL     1      -0.071   1.551  -0.021  0.00  0.00    +0.011 C 
ATOM     11  C   UNL     1      -0.059   0.021  -0.026  0.00  0.00    -0.035 C 
ATOM     12  C   UNL     1       0.665  -0.487   1.223  0.00  0.00    +0.011 C 
ATOM     13  C   UNL     1      -1.497  -0.500  -0.029  0.00  0.00    +0.011 C 
ENDBRANCH   1  11
BRANCH   8  14
ATOM     14  C   UNL     1       2.318  -1.036  -6.237  0.00  0.00    +0.251 C 
ATOM     15  O   UNL     1       1.988  -0.156  -7.009  0.00  0.00    -0.270 OA
ATOM     16  N   UNL     1       2.169  -2.330  -6.584  0.00  0.00    -0.281 N 
ATOM     17  H   UNL     1       2.506  -3.030  -6.004  0.00  0.00    +0.155 HD
BRANCH  16  18
ATOM     18  C   UNL     1       1.532  -2.660  -7.777  0.00  0.00    +0.048 A 
ATOM     19  C   UNL     1       0.614  -1.786  -8.344  0.00  0.00    +0.024 A 
ATOM     20  C   UNL     1      -0.016  -2.116  -9.526  0.00  0.00    +0.002 A 
ATOM     21  C   UNL     1       0.259  -3.319 -10.156  0.00  0.00    +0.001 A 
ATOM     22  C   UNL     1       1.166  -4.200  -9.608  0.00  0.00    +0.017 A 
ATOM     23  C   UNL     1       1.817  -3.877  -8.415  0.00  0.00    +0.080 A 
BRANCH  23  24
ATOM     24  C   UNL     1       2.793  -4.812  -7.827  0.00  0.00    +0.341 C 
ATOM     25  O   UNL     1       3.287  -4.572  -6.743  0.00  0.00    -0.245 OA
BRANCH  24  26
ATOM     26  O   UNL     1       3.139  -5.932  -8.492  0.00  0.00    -0.464 OA
ATOM     27  C   UNL     1       4.090  -6.793  -7.863  0.00  0.00    +0.280 C 
ENDBRANCH  24  26
ENDBRANCH  23  24
ENDBRANCH  16  18
ENDBRANCH   8  14
BRANCH   7  28
ATOM     28  N   UNL     1       5.249  -0.635  -5.695  0.00  0.00    -0.277 N 
ATOM     29  C   UNL     1       6.534  -0.433  -5.343  0.00  0.00    +0.255 C 
ATOM     30  O   UNL     1       6.810  -0.150  -4.196  0.00  0.00    -0.272 OA
ATOM     31  H   UNL     1       5.027  -0.861  -6.612  0.00  0.00    +0.155 HD
BRANCH  29  32
ATOM     32  C   UNL     1       7.627  -0.558  -6.373  0.00  0.00    +0.324 C 
BRANCH  32  33
ATOM     33  O   UNL     1       8.891  -0.300  -5.759  0.00  0.00    -0.483 OA
BRANCH  33  34
ATOM     34  C   UNL     1       9.990  -0.373  -6.556  0.00  0.00    +0.121 A 
ATOM     35  C   UNL     1       9.853  -0.680  -7.902  0.00  0.00    +0.045 A 
ATOM     36  C   UNL     1      10.971  -0.753  -8.710  0.00  0.00    +0.004 A 
ATOM     37  C   UNL     1      12.226  -0.520  -8.178  0.00  0.00    +0.000 A 
ATOM     38  C   UNL     1      12.365  -0.214  -6.837  0.00  0.00    +0.004 A 
ATOM     39  C   UNL     1      11.249  -0.134  -6.026  0.00  0.00    +0.045 A 
ENDBRANCH  33  34
ENDBRANCH  32  33
ENDBRANCH  29  32
ENDBRANCH   7  28
TORSDOF 9
