REMARK  Name = ZINC20914092
REMARK  12 active torsions:
REMARK  status: ('A' for Active; 'I' for Inactive)
REMARK    1  A    between atoms: C_1  and  O_2
REMARK    2  A    between atoms: O_2  and  C_3
REMARK    3  A    between atoms: C_3  and  C_5
REMARK    4  A    between atoms: C_8  and  C_11
REMARK    5  A    between atoms: N_12  and  N_13
REMARK    6  A    between atoms: C_17  and  S_20
REMARK    7  A    between atoms: N_18  and  N_19
REMARK    8  A    between atoms: S_20  and  C_21
REMARK    9  A    between atoms: C_21  and  C_22
REMARK   10  A    between atoms: C_22  and  C_23
REMARK   11  A    between atoms: N_25  and  C_26
REMARK   12  A    between atoms: N_25  and  C_32
REMARK                            x       y       z     vdW  Elec       q    Type
REMARK                         _______ _______ _______ _____ _____    ______ ____
ROOT
ATOM      1  N   UNL     1      -2.051   1.137  -0.403  0.00  0.00    -0.204 N 
ATOM      2  C   UNL     1      -1.750  -0.216  -0.361  0.00  0.00    +0.254 A 
ATOM      3  N   UNL     1      -2.592  -1.206  -0.522  0.00  0.00    -0.109 NA
ATOM      4  N   UNL     1      -1.976  -2.330  -0.424  0.00  0.00    -0.119 NA
ATOM      5  C   UNL     1      -0.703  -2.125  -0.186  0.00  0.00    +0.210 A 
ATOM      6  N   UNL     1      -0.515  -0.769  -0.137  0.00  0.00    -0.211 N 
ATOM      7  H   UNL     1      -1.258   1.882  -0.244  0.00  0.00    +0.177 HD
ENDROOT
BRANCH   6   8
ATOM      8  N   UNL     1       0.658  -0.106   0.087  0.00  0.00    -0.294 N 
ATOM      9  H   UNL     1       1.587  -0.672   0.254  0.00  0.00    +0.163 HD
ATOM     10  H   UNL     1       0.675   0.993   0.101  0.00  0.00    +0.163 HD
ENDBRANCH   6   8
BRANCH   1  12
ATOM     11  C   UNL     1      -3.648   2.823  -0.689  0.00  0.00    +0.138 C 
ATOM     12  N   UNL     1      -3.365   1.555  -0.649  0.00  0.00    -0.188 NA
BRANCH  11  16
ATOM     13  C   UNL     1      -7.622   4.086  -1.433  0.00  0.00    +0.059 A 
ATOM     14  C   UNL     1      -6.614   5.034  -1.230  0.00  0.00    +0.015 A 
ATOM     15  C   UNL     1      -5.333   4.628  -0.990  0.00  0.00    +0.010 A 
ATOM     16  C   UNL     1      -5.029   3.262  -0.947  0.00  0.00    -0.005 A 
ATOM     17  C   UNL     1      -6.037   2.314  -1.156  0.00  0.00    +0.010 A 
ATOM     18  C   UNL     1      -7.319   2.721  -1.390  0.00  0.00    +0.015 A 
BRANCH  13  19
ATOM     19  C   UNL     1      -9.005   4.526  -1.692  0.00  0.00    +0.339 C 
ATOM     20  O   UNL     1      -9.269   5.711  -1.729  0.00  0.00    -0.245 OA
BRANCH  19  22
ATOM     21  C   UNL     1     -11.315   4.118  -2.137  0.00  0.00    +0.280 C 
ATOM     22  O   UNL     1      -9.977   3.613  -1.887  0.00  0.00    -0.464 OA
ENDBRANCH  19  22
ENDBRANCH  13  19
ENDBRANCH  11  16
ENDBRANCH   1  12
BRANCH   5  23
ATOM     23  S   UNL     1       0.532  -3.362   0.032  0.00  0.00    -0.084 S 
BRANCH  23  24
ATOM     24  C   UNL     1      -0.475  -4.852  -0.171  0.00  0.00    +0.087 C 
BRANCH  24  25
ATOM     25  C   UNL     1       0.410  -6.091  -0.018  0.00  0.00    +0.108 C 
BRANCH  25  26
ATOM     26  C   UNL     1      -0.428  -7.331  -0.187  0.00  0.00    +0.225 C 
ATOM     27  O   UNL     1      -1.625  -7.235  -0.360  0.00  0.00    -0.275 OA
ATOM     28  N   UNL     1       0.151  -8.547  -0.146  0.00  0.00    -0.240 N 
BRANCH  28  29
ATOM     29  C   UNL     1      -0.607  -9.694  -0.412  0.00  0.00    +0.041 A 
ATOM     30  C   UNL     1      -1.602 -10.091   0.471  0.00  0.00    +0.024 A 
ATOM     31  C   UNL     1      -2.352 -11.219   0.204  0.00  0.00    +0.002 A 
ATOM     32  C   UNL     1      -2.106 -11.960  -0.938  0.00  0.00    +0.000 A 
ATOM     33  C   UNL     1      -1.112 -11.570  -1.817  0.00  0.00    +0.002 A 
ATOM     34  C   UNL     1      -0.363 -10.440  -1.558  0.00  0.00    +0.024 A 
ENDBRANCH  28  29
BRANCH  28  35
ATOM     35  C   UNL     1       1.512  -8.664   0.162  0.00  0.00    +0.041 A 
ATOM     36  C   UNL     1       2.471  -8.227  -0.743  0.00  0.00    +0.024 A 
ATOM     37  C   UNL     1       3.812  -8.339  -0.434  0.00  0.00    +0.002 A 
ATOM     38  C   UNL     1       4.201  -8.896   0.771  0.00  0.00    +0.000 A 
ATOM     39  C   UNL     1       3.249  -9.337   1.671  0.00  0.00    +0.002 A 
ATOM     40  C   UNL     1       1.906  -9.223   1.371  0.00  0.00    +0.024 A 
ENDBRANCH  28  35
ENDBRANCH  25  26
ENDBRANCH  24  25
ENDBRANCH  23  24
ENDBRANCH   5  23
TORSDOF 11
