REMARK  Name = ZINC06086195
REMARK  10 active torsions:
REMARK  status: ('A' for Active; 'I' for Inactive)
REMARK    1  A    between atoms: C_1  and  C_2
REMARK    2  A    between atoms: C_2  and  C_4
REMARK    3  A    between atoms: C_2  and  N_14
REMARK    4  A    between atoms: N_6  and  C_7
REMARK    5  A    between atoms: C_7  and  C_8
REMARK    6  A    between atoms: N_14  and  C_15
REMARK    7  A    between atoms: C_15  and  C_16
REMARK    8  A    between atoms: C_16  and  C_17
REMARK    9  A    between atoms: C_20  and  S_23
REMARK   10  A    between atoms: S_23  and  N_26
REMARK                            x       y       z     vdW  Elec       q    Type
REMARK                         _______ _______ _______ _____ _____    ______ ____
ROOT
ATOM      1  N   UNL     1      -1.376  -0.512   0.012  0.00  0.00    +0.387 N 
ATOM      2  H   UNL     1      -1.888  -0.113  -0.760  0.00  0.00    -0.085 HD
ATOM      3  H   UNL     1      -1.364  -1.518  -0.076  0.00  0.00    -0.085 HD
ENDROOT
BRANCH   1   5
ATOM      4  C   UNL     1      -0.019   1.526   0.010  0.00  0.00    -0.004 C 
ATOM      5  C   UNL     1       0.002  -0.004   0.002  0.00  0.00    +0.013 C 
BRANCH   5   6
ATOM      6  C   UNL     1       0.707  -0.490  -1.238  0.00  0.00    +0.199 C 
ATOM      7  O   UNL     1       0.120  -1.191  -2.034  0.00  0.00    -0.278 OA
ATOM      8  N   UNL     1       1.991  -0.146  -1.462  0.00  0.00    -0.313 N 
ATOM      9  H   UNL     1       2.461   0.415  -0.825  0.00  0.00    +0.149 HD
BRANCH   8  10
ATOM     10  C   UNL     1       2.677  -0.618  -2.667  0.00  0.00    +0.139 C 
BRANCH  10  11
ATOM     11  C   UNL     1       4.091  -0.097  -2.678  0.00  0.00    -0.030 A 
ATOM     12  C   UNL     1       4.374   1.121  -3.267  0.00  0.00    +0.005 A 
ATOM     13  C   UNL     1       5.670   1.600  -3.277  0.00  0.00    +0.000 A 
ATOM     14  C   UNL     1       6.684   0.861  -2.697  0.00  0.00    +0.000 A 
ATOM     15  C   UNL     1       6.401  -0.357  -2.106  0.00  0.00    +0.000 A 
ATOM     16  C   UNL     1       5.104  -0.833  -2.093  0.00  0.00    +0.005 A 
ENDBRANCH  10  11
ENDBRANCH   8  10
ENDBRANCH   5   6
ENDBRANCH   1   5
BRANCH   1  17
ATOM     17  C   UNL     1      -2.026  -0.140   1.276  0.00  0.00    -0.077 C 
BRANCH  17  18
ATOM     18  C   UNL     1      -3.461  -0.669   1.287  0.00  0.00    +0.016 C 
BRANCH  18  19
ATOM     19  C   UNL     1      -4.128  -0.287   2.583  0.00  0.00    -0.049 A 
ATOM     20  C   UNL     1      -4.049  -1.129   3.676  0.00  0.00    +0.005 A 
ATOM     21  C   UNL     1      -4.660  -0.778   4.865  0.00  0.00    +0.029 A 
ATOM     22  C   UNL     1      -5.351   0.415   4.961  0.00  0.00    +0.105 A 
ATOM     23  C   UNL     1      -5.430   1.258   3.868  0.00  0.00    +0.029 A 
ATOM     24  C   UNL     1      -4.814   0.909   2.681  0.00  0.00    +0.005 A 
BRANCH  22  25
ATOM     25  S   UNL     1      -6.132   0.862   6.476  0.00  0.00    +0.056 S 
ATOM     26  O   UNL     1      -7.172   1.771   6.144  0.00  0.00    -0.153 OA
ATOM     27  O   UNL     1      -6.373  -0.348   7.181  0.00  0.00    -0.153 OA
BRANCH  25  28
ATOM     28  N   UNL     1      -5.024   1.715   7.365  0.00  0.00    -0.204 NA
ATOM     29  H   UNL     1      -4.137   1.875   7.008  0.00  0.00    +0.144 HD
ATOM     30  H   UNL     1      -5.263   2.053   8.242  0.00  0.00    +0.144 HD
ENDBRANCH  25  28
ENDBRANCH  22  25
ENDBRANCH  18  19
ENDBRANCH  17  18
ENDBRANCH   1  17
TORSDOF 9
