REMARK  Name = ZINC34748424
REMARK  9 active torsions:
REMARK  status: ('A' for Active; 'I' for Inactive)
REMARK    1  A    between atoms: C_1  and  C_2
REMARK    2  A    between atoms: C_3  and  C_36
REMARK    3  A    between atoms: N_9  and  C_22
REMARK    4  A    between atoms: N_15  and  C_18
REMARK    5  A    between atoms: C_18  and  C_19
REMARK    6  A    between atoms: C_19  and  C_20
REMARK    7  A    between atoms: C_19  and  C_21
REMARK    8  A    between atoms: C_22  and  C_23
REMARK    9  A    between atoms: N_25  and  C_26
REMARK                            x       y       z     vdW  Elec       q    Type
REMARK                         _______ _______ _______ _____ _____    ______ ____
ROOT
ATOM      1  C   UNL     1       0.820   2.403   1.265  0.00  0.00    +0.045 C 
ATOM      2  C   UNL     1       0.702   0.936   0.939  0.00  0.00    -0.026 A 
ATOM      3  C   UNL     1       0.721   0.521  -0.336  0.00  0.00    -0.008 A 
ATOM      4  S   UNL     1       0.556  -1.248  -0.199  0.00  0.00    -0.073 S 
ATOM      5  C   UNL     1       0.466  -1.380   1.569  0.00  0.00    +0.117 A 
ATOM      6  C   UNL     1       0.573  -0.045   2.002  0.00  0.00    +0.075 A 
ATOM      7  C   UNL     1       0.534   0.154   3.419  0.00  0.00    +0.264 A 
ATOM      8  O   UNL     1       0.615   1.277   3.887  0.00  0.00    -0.267 OA
ATOM      9  N   UNL     1       0.407  -0.914   4.227  0.00  0.00    -0.271 N 
ATOM     10  C   UNL     1       0.315  -2.177   3.721  0.00  0.00    +0.202 A 
ATOM     11  N   UNL     1       0.338  -2.389   2.422  0.00  0.00    -0.208 NA
ATOM     12  N   UNL     1       0.187  -3.242   4.579  0.00  0.00    -0.304 N 
ATOM     13  C   UNL     1      -1.138  -3.779   4.924  0.00  0.00    +0.089 C 
ATOM     14  C   UNL     1      -1.117  -5.297   4.714  0.00  0.00    -0.060 C 
ATOM     15  N   UNL     1      -0.008  -5.880   5.479  0.00  0.00    +0.382 N 
ATOM     16  C   UNL     1       1.273  -5.391   4.955  0.00  0.00    -0.060 C 
ATOM     17  C   UNL     1       1.371  -3.882   5.173  0.00  0.00    +0.089 C 
ATOM     18  C   UNL     1       0.851   1.352  -1.587  0.00  0.00    +0.052 C 
ATOM     19  H   UNL     1      -0.096  -5.618   6.449  0.00  0.00    -0.082 HD
ENDROOT
BRANCH  15  20
ATOM     20  C   UNL     1      -0.055  -7.344   5.366  0.00  0.00    -0.076 C 
BRANCH  20  21
ATOM     21  C   UNL     1      -1.324  -7.868   6.040  0.00  0.00    -0.034 C 
ATOM     22  C   UNL     1      -1.406  -9.386   5.865  0.00  0.00    +0.005 C 
ATOM     23  C   UNL     1      -1.287  -7.528   7.532  0.00  0.00    +0.005 C 
ENDBRANCH  20  21
ENDBRANCH  15  20
BRANCH   9  24
ATOM     24  C   UNL     1       0.367  -0.717   5.678  0.00  0.00    +0.224 C 
BRANCH  24  25
ATOM     25  C   UNL     1      -1.044  -0.403   6.103  0.00  0.00    +0.237 C 
ATOM     26  O   UNL     1      -1.929  -0.350   5.276  0.00  0.00    -0.274 OA
ATOM     27  N   UNL     1      -1.323  -0.182   7.403  0.00  0.00    -0.283 N 
ATOM     28  H   UNL     1      -0.605  -0.157   8.056  0.00  0.00    +0.155 HD
BRANCH  27  29
ATOM     29  C   UNL     1      -2.644   0.012   7.811  0.00  0.00    +0.041 A 
ATOM     30  C   UNL     1      -3.577   0.514   6.930  0.00  0.00    +0.024 A 
ATOM     31  C   UNL     1      -4.897   0.710   7.326  0.00  0.00    +0.002 A 
ATOM     32  C   UNL     1      -5.302   0.413   8.591  0.00  0.00    +0.008 A 
ATOM     33  C   UNL     1      -4.382  -0.101   9.521  0.00  0.00    -0.016 A 
ATOM     34  C   UNL     1      -3.037  -0.310   9.127  0.00  0.00    +0.003 A 
ATOM     35  C   UNL     1      -2.120  -0.828  10.055  0.00  0.00    +0.010 A 
ATOM     36  C   UNL     1      -2.535  -1.127  11.317  0.00  0.00    +0.001 A 
ATOM     37  C   UNL     1      -3.858  -0.927  11.703  0.00  0.00    +0.001 A 
ATOM     38  C   UNL     1      -4.772  -0.417  10.834  0.00  0.00    +0.008 A 
ENDBRANCH  27  29
ENDBRANCH  24  25
ENDBRANCH   9  24
TORSDOF 5
