REMARK  Name = ZINC36660450
REMARK  10 active torsions:
REMARK  status: ('A' for Active; 'I' for Inactive)
REMARK    1  A    between atoms: C_1  and  C_2
REMARK    2  A    between atoms: C_2  and  C_3
REMARK    3  A    between atoms: N_12  and  C_13
REMARK    4  A    between atoms: C_13  and  C_14
REMARK    5  A    between atoms: C_14  and  N_15
REMARK    6  A    between atoms: N_15  and  C_16
REMARK    7  A    between atoms: N_15  and  C_17
REMARK    8  A    between atoms: C_18  and  C_20
REMARK    9  A    between atoms: N_25  and  S_26
REMARK   10  A    between atoms: S_26  and  C_29
REMARK                            x       y       z     vdW  Elec       q    Type
REMARK                         _______ _______ _______ _____ _____    ______ ____
ROOT
ATOM      1  C   UNL     1      -2.149  -1.268   1.119  0.00  0.00    -0.046 A 
ATOM      2  C   UNL     1      -3.035  -1.388   2.180  0.00  0.00    +0.006 A 
ATOM      3  C   UNL     1      -4.344  -1.741   1.984  0.00  0.00    +0.029 A 
ATOM      4  C   UNL     1      -4.837  -1.995   0.683  0.00  0.00    +0.080 A 
ATOM      5  C   UNL     1      -3.907  -1.863  -0.373  0.00  0.00    +0.041 A 
ATOM      6  C   UNL     1      -2.598  -1.504  -0.167  0.00  0.00    +0.021 A 
ATOM      7  S   UNL     1      -4.894  -2.255  -1.797  0.00  0.00    -0.052 S 
ATOM      8  C   UNL     1      -6.427  -2.559  -0.931  0.00  0.00    +0.168 A 
ATOM      9  N   UNL     1      -6.088  -2.349   0.320  0.00  0.00    -0.224 NA
ATOM     10  N   UNL     1      -7.660  -2.924  -1.448  0.00  0.00    -0.251 N 
ATOM     11  C   UNL     1      -7.810  -3.094  -2.776  0.00  0.00    +0.240 C 
ATOM     12  O   UNL     1      -6.847  -3.019  -3.510  0.00  0.00    -0.273 OA
ENDROOT
BRANCH  11  13
ATOM     13  C   UNL     1      -9.174  -3.377  -3.350  0.00  0.00    +0.166 C 
ATOM     14  C   UNL     1      -9.415  -4.900  -3.406  0.00  0.00    +0.031 C 
ATOM     15  C   UNL     1     -10.175  -5.083  -4.746  0.00  0.00    +0.019 C 
ATOM     16  C   UNL     1      -9.501  -4.008  -5.635  0.00  0.00    +0.110 C 
ATOM     17  N   UNL     1      -9.252  -2.869  -4.728  0.00  0.00    -0.165 NA
BRANCH  17  18
ATOM     18  S   UNL     1      -9.088  -1.285  -5.183  0.00  0.00    +0.062 S 
ATOM     19  O   UNL     1      -9.881  -1.114  -6.350  0.00  0.00    -0.153 OA
ATOM     20  O   UNL     1      -9.279  -0.504  -4.011  0.00  0.00    -0.153 OA
BRANCH  18  21
ATOM     21  C   UNL     1      -7.412  -1.055  -5.675  0.00  0.00    +0.106 A 
ATOM     22  C   UNL     1      -6.487  -0.571  -4.769  0.00  0.00    +0.030 A 
ATOM     23  C   UNL     1      -5.172  -0.390  -5.154  0.00  0.00    +0.022 A 
ATOM     24  C   UNL     1      -4.782  -0.694  -6.447  0.00  0.00    +0.041 A 
ATOM     25  C   UNL     1      -5.708  -1.179  -7.352  0.00  0.00    +0.022 A 
ATOM     26  C   UNL     1      -7.022  -1.364  -6.964  0.00  0.00    +0.030 A 
ATOM     27 CL   UNL     1      -3.130  -0.467  -6.931  0.00  0.00    -0.084 Cl
ENDBRANCH  18  21
ENDBRANCH  17  18
ENDBRANCH  11  13
BRANCH   1  29
ATOM     28  C   UNL     1      -0.584   0.645   1.317  0.00  0.00    +0.009 C 
ATOM     29  C   UNL     1      -0.714  -0.879   1.365  0.00  0.00    +0.032 C 
ENDBRANCH   1  29
BRANCH  10  30
ATOM     30  C   UNL     1      -8.800  -3.124  -0.550  0.00  0.00    +0.097 C 
BRANCH  30  31
ATOM     31  C   UNL     1      -9.518  -1.791  -0.332  0.00  0.00    -0.060 C 
BRANCH  31  32
ATOM     32  N   UNL     1     -10.662  -1.993   0.568  0.00  0.00    +0.377 N 
ATOM     33  C   UNL     1     -11.279  -0.695   0.873  0.00  0.00    -0.097 C 
ATOM     34  C   UNL     1     -11.649  -2.864  -0.082  0.00  0.00    -0.097 C 
ATOM     35  H   UNL     1     -10.345  -2.423   1.424  0.00  0.00    -0.083 HD
ENDBRANCH  31  32
ENDBRANCH  30  31
ENDBRANCH  10  30
TORSDOF 7
