REMARK  Name = ZINC09109463
REMARK  10 active torsions:
REMARK  status: ('A' for Active; 'I' for Inactive)
REMARK    1  A    between atoms: C_1  and  C_2
REMARK    2  A    between atoms: C_5  and  N_9
REMARK    3  A    between atoms: C_6  and  C_8
REMARK    4  A    between atoms: C_12  and  C_18
REMARK    5  A    between atoms: C_13  and  O_17
REMARK    6  A    between atoms: C_15  and  O_16
REMARK    7  A    between atoms: C_22  and  O_30
REMARK    8  A    between atoms: C_23  and  O_28
REMARK    9  A    between atoms: O_28  and  C_29
REMARK   10  A    between atoms: O_30  and  C_31
REMARK                            x       y       z     vdW  Elec       q    Type
REMARK                         _______ _______ _______ _____ _____    ______ ____
ROOT
ATOM      1  N   UNL     1      -2.669   2.917   4.677  0.00  0.00    -0.230 N 
ATOM      2  C   UNL     1      -3.161   2.028   5.565  0.00  0.00    +0.267 A 
ATOM      3  O   UNL     1      -3.042   0.828   5.374  0.00  0.00    -0.267 OA
ATOM      4  C   UNL     1      -3.812   2.506   6.709  0.00  0.00    +0.069 A 
ATOM      5  C   UNL     1      -3.925   3.874   6.886  0.00  0.00    +0.224 A 
ATOM      6  N   UNL     1      -3.417   4.707   5.971  0.00  0.00    -0.161 NA
ATOM      7  C   UNL     1      -2.803   4.252   4.902  0.00  0.00    +0.306 A 
ENDROOT
BRANCH   4   8
ATOM      8  C   UNL     1      -4.378   1.550   7.727  0.00  0.00    +0.001 C 
ATOM      9  C   UNL     1      -5.504   0.768   7.103  0.00  0.00    -0.050 A 
ATOM     10  C   UNL     1      -6.407   1.445   6.294  0.00  0.00    +0.052 A 
ATOM     11  C   UNL     1      -7.459   0.770   5.702  0.00  0.00    +0.162 A 
ATOM     12  C   UNL     1      -7.613  -0.596   5.921  0.00  0.00    +0.162 A 
ATOM     13  C   UNL     1      -6.710  -1.267   6.726  0.00  0.00    +0.053 A 
ATOM     14  C   UNL     1      -5.655  -0.586   7.315  0.00  0.00    -0.044 A 
ATOM     15  C   UNL     1      -4.692  -1.363   8.177  0.00  0.00    +0.016 C 
ATOM     16  C   UNL     1      -3.880  -0.404   9.048  0.00  0.00    -0.077 C 
ATOM     17  N   UNL     1      -3.312   0.647   8.183  0.00  0.00    +0.387 N 
ATOM     18  H   UNL     1      -2.615   1.183   8.712  0.00  0.00    -0.085 HD
ATOM     19  H   UNL     1      -2.863   0.212   7.368  0.00  0.00    -0.085 HD
BRANCH  12  20
ATOM     20  O   UNL     1      -8.645  -1.268   5.345  0.00  0.00    -0.491 OA
ATOM     21  C   UNL     1      -8.738  -2.669   5.614  0.00  0.00    +0.277 C 
ENDBRANCH  12  20
BRANCH  11  22
ATOM     22  O   UNL     1      -8.340   1.439   4.911  0.00  0.00    -0.491 OA
ATOM     23  C   UNL     1      -8.119   2.839   4.733  0.00  0.00    +0.277 C 
ENDBRANCH  11  22
ENDBRANCH   4   8
BRANCH   1  28
ATOM     24  C   UNL     1      -0.013   1.086   0.008  0.00  0.00    +0.044 C 
ATOM     25  C   UNL     1      -0.718   1.572   1.248  0.00  0.00    -0.050 A 
ATOM     26  C   UNL     1      -2.084   1.789   1.225  0.00  0.00    +0.005 A 
ATOM     27  C   UNL     1      -2.734   2.230   2.361  0.00  0.00    +0.027 A 
ATOM     28  C   UNL     1      -2.013   2.465   3.524  0.00  0.00    +0.057 A 
ATOM     29  C   UNL     1      -0.641   2.251   3.543  0.00  0.00    -0.026 A 
ATOM     30  C   UNL     1       0.002   1.805   2.405  0.00  0.00    +0.008 A 
ATOM     31  C   UNL     1       0.144   2.505   4.803  0.00  0.00    +0.046 C 
ENDBRANCH   1  28
BRANCH   7  32
ATOM     32  O   UNL     1      -2.300   5.127   4.007  0.00  0.00    -0.479 OA
ATOM     33  H   UNL     1      -2.415   6.067   4.201  0.00  0.00    +0.295 HD
ENDBRANCH   7  32
BRANCH   5  34
ATOM     34  O   UNL     1      -4.549   4.367   7.981  0.00  0.00    -0.492 OA
ATOM     35  H   UNL     1      -4.578   5.333   8.016  0.00  0.00    +0.294 HD
ENDBRANCH   5  34
TORSDOF 6
