REMARK  Name = ZINC09388134
REMARK  8 active torsions:
REMARK  status: ('A' for Active; 'I' for Inactive)
REMARK    1  A    between atoms: C_1  and  C_2
REMARK    2  A    between atoms: C_2  and  C_4
REMARK    3  A    between atoms: C_2  and  N_55
REMARK    4  A    between atoms: N_6  and  C_7
REMARK    5  A    between atoms: C_8  and  C_12
REMARK    6  A    between atoms: C_20  and  C_22
REMARK    7  A    between atoms: C_25  and  O_28
REMARK    8  A    between atoms: O_28  and  C_29
REMARK                            x       y       z     vdW  Elec       q    Type
REMARK                         _______ _______ _______ _____ _____    ______ ____
ROOT
ATOM      1  C   UNL     1      -3.272   4.462  -1.648  0.00  0.00    -0.004 C 
ATOM      2  C   UNL     1      -2.461   4.491  -0.351  0.00  0.00    +0.017 C 
ENDROOT
BRANCH   2   9
ATOM      3  C   UNL     1      -1.147   6.173  -1.364  0.00  0.00    -0.077 C 
ATOM      4  C   UNL     1      -0.289   7.440  -1.153  0.00  0.00    -0.019 C 
ATOM      5  C   UNL     1      -1.188   8.651  -1.170  0.00  0.00    -0.002 C 
ATOM      6  C   UNL     1      -1.661   9.058   0.239  0.00  0.00    -0.001 C 
ATOM      7  C   UNL     1      -2.040   7.837   1.094  0.00  0.00    -0.011 C 
ATOM      8  C   UNL     1      -2.796   6.808   0.291  0.00  0.00    -0.037 C 
ATOM      9  N   UNL     1      -1.794   5.789  -0.160  0.00  0.00    +0.392 N 
ATOM     10  H   UNL     1      -1.080   5.690   0.572  0.00  0.00    -0.080 HD
BRANCH   8  11
ATOM     11  C   UNL     1      -3.825   6.136   1.163  0.00  0.00    -0.061 A 
ATOM     12  C   UNL     1      -3.424   5.418   2.275  0.00  0.00    +0.005 A 
ATOM     13  C   UNL     1      -4.365   4.805   3.079  0.00  0.00    +0.046 A 
ATOM     14  C   UNL     1      -5.713   4.902   2.765  0.00  0.00    +0.120 A 
ATOM     15  C   UNL     1      -6.112   5.619   1.646  0.00  0.00    +0.046 A 
ATOM     16  C   UNL     1      -5.167   6.234   0.848  0.00  0.00    +0.005 A 
BRANCH  14  17
ATOM     17  O   UNL     1      -6.641   4.296   3.552  0.00  0.00    -0.495 OA
ATOM     18  C   UNL     1      -6.157   3.576   4.687  0.00  0.00    +0.277 C 
ENDBRANCH  14  17
ENDBRANCH   8  11
ENDBRANCH   2   9
BRANCH   2  19
ATOM     19  C   UNL     1      -1.398   3.424  -0.399  0.00  0.00    +0.204 C 
ATOM     20  O   UNL     1      -0.227   3.730  -0.315  0.00  0.00    -0.277 OA
ATOM     21  N   UNL     1      -1.748   2.130  -0.535  0.00  0.00    -0.281 N 
ATOM     22  H   UNL     1      -2.684   1.885  -0.603  0.00  0.00    +0.155 HD
BRANCH  21  23
ATOM     23  C   UNL     1      -0.770   1.148  -0.580  0.00  0.00    +0.084 A 
ATOM     24  C   UNL     1      -0.931  -0.226  -0.714  0.00  0.00    +0.065 A 
ATOM     25  C   UNL     1       0.273  -1.022  -0.737  0.00  0.00    +0.022 A 
ATOM     26  C   UNL     1       1.444  -0.368  -0.625  0.00  0.00    +0.048 A 
ATOM     27  S   UNL     1       0.949   1.337  -0.488  0.00  0.00    -0.081 S 
BRANCH  24  28
ATOM     28  C   UNL     1      -2.259  -0.837  -0.828  0.00  0.00    +0.244 C 
ATOM     29  O   UNL     1      -3.255  -0.137  -0.805  0.00  0.00    -0.270 OA
ATOM     30  N   UNL     1      -2.377  -2.173  -0.957  0.00  0.00    -0.325 N 
ATOM     31  H   UNL     1      -1.583  -2.731  -0.975  0.00  0.00    +0.145 HD
ATOM     32  H   UNL     1      -3.255  -2.577  -1.032  0.00  0.00    +0.145 HD
ENDBRANCH  24  28
ENDBRANCH  21  23
ENDBRANCH   2  19
TORSDOF 6
