REMARK  Name = ZINC08302185
REMARK  7 active torsions:
REMARK  status: ('A' for Active; 'I' for Inactive)
REMARK    1  A    between atoms: C_1  and  C_2
REMARK    2  A    between atoms: C_5  and  C_32
REMARK    3  A    between atoms: C_6  and  O_8
REMARK    4  A    between atoms: O_8  and  C_9
REMARK    5  A    between atoms: C_11  and  O_31
REMARK    6  A    between atoms: C_13  and  O_30
REMARK    7  A    between atoms: C_22  and  C_25
REMARK                            x       y       z     vdW  Elec       q    Type
REMARK                         _______ _______ _______ _____ _____    ______ ____
ROOT
ATOM      1  C   UNL     1       4.160   1.592   2.346  0.00  0.00    +0.339 C 
ATOM      2  C   UNL     1       4.247   0.065   2.387  0.00  0.00    +0.214 C 
ATOM      3  C   UNL     1       2.834  -0.533   2.385  0.00  0.00    +0.180 C 
ATOM      4  C   UNL     1       2.091  -0.013   1.155  0.00  0.00    +0.184 C 
ATOM      5  C   UNL     1       2.061   1.520   1.211  0.00  0.00    +0.179 C 
ATOM      6  O   UNL     1       3.400   2.009   1.206  0.00  0.00    -0.331 OA
ATOM      7  C   UNL     1       1.280   2.034   0.001  0.00  0.00    +0.197 C 
ATOM      8  O   UNL     1      -0.017   1.424   0.010  0.00  0.00    -0.342 OA
ATOM      9  C   UNL     1       0.002  -0.004   0.002  0.00  0.00    +0.319 C 
ATOM     10  O   UNL     1       0.746  -0.492   1.124  0.00  0.00    -0.336 OA
ENDROOT
BRANCH   9  11
ATOM     11  C   UNL     1      -1.411  -0.523   0.075  0.00  0.00    +0.161 A 
ATOM     12  C   UNL     1      -2.388  -0.273  -0.815  0.00  0.00    +0.050 A 
ATOM     13  C   UNL     1      -3.540  -0.956  -0.360  0.00  0.00    +0.041 A 
ATOM     14  C   UNL     1      -3.200  -1.575   0.785  0.00  0.00    +0.195 A 
ATOM     15  O   UNL     1      -1.909  -1.310   1.044  0.00  0.00    -0.463 OA
ENDBRANCH   9  11
BRANCH   3  16
ATOM     16  O   UNL     1       2.916  -1.959   2.329  0.00  0.00    -0.386 OA
ATOM     17  H   UNL     1       3.377  -2.356   3.081  0.00  0.00    +0.210 HD
ENDBRANCH   3  16
BRANCH   2  18
ATOM     18  O   UNL     1       4.961  -0.402   1.241  0.00  0.00    -0.383 OA
ATOM     19  H   UNL     1       5.866  -0.066   1.177  0.00  0.00    +0.210 HD
ENDBRANCH   2  18
BRANCH   1  20
ATOM     20  O   UNL     1       5.477   2.139   2.263  0.00  0.00    -0.461 OA
BRANCH  20  26
ATOM     21  C   UNL     1       3.381   6.460   3.132  0.00  0.00    +0.044 C 
ATOM     22  C   UNL     1       4.602   5.619   2.864  0.00  0.00    -0.047 A 
ATOM     23  C   UNL     1       5.849   6.213   2.797  0.00  0.00    +0.004 A 
ATOM     24  C   UNL     1       6.971   5.444   2.552  0.00  0.00    +0.007 A 
ATOM     25  C   UNL     1       6.850   4.079   2.378  0.00  0.00    -0.009 A 
ATOM     26  C   UNL     1       5.600   3.481   2.439  0.00  0.00    +0.127 A 
ATOM     27  C   UNL     1       4.475   4.255   2.686  0.00  0.00    +0.049 A 
ATOM     28  C   UNL     1       8.075   3.240   2.116  0.00  0.00    +0.047 C 
ENDBRANCH  20  26
ENDBRANCH   1  20
TORSDOF 5
