REMARK  Name = ZINC63933148
REMARK  7 active torsions:
REMARK  status: ('A' for Active; 'I' for Inactive)
REMARK    1  A    between atoms: C_1  and  O_2
REMARK    2  A    between atoms: O_2  and  C_3
REMARK    3  A    between atoms: C_6  and  C_9
REMARK    4  A    between atoms: C_9  and  N_10
REMARK    5  A    between atoms: C_11  and  O_35
REMARK    6  A    between atoms: C_14  and  O_34
REMARK    7  A    between atoms: C_15  and  C_19
REMARK                            x       y       z     vdW  Elec       q    Type
REMARK                         _______ _______ _______ _____ _____    ______ ____
ROOT
ATOM      1  N   UNL     1       4.085  -2.559  -4.131  0.00  0.00    -0.252 N 
ATOM      2  C   UNL     1       5.139  -1.616  -4.477  0.00  0.00    +0.334 C 
ATOM      3  N   UNL     1       6.445  -2.251  -4.537  0.00  0.00    -0.204 NA
ATOM      4  C   UNL     1       6.729  -3.361  -3.973  0.00  0.00    +0.200 C 
ATOM      5  C   UNL     1       5.732  -4.150  -3.176  0.00  0.00    +0.179 C 
ATOM      6  C   UNL     1       4.332  -3.725  -3.519  0.00  0.00    +0.233 C 
ATOM      7  O   UNL     1       3.406  -4.456  -3.240  0.00  0.00    -0.275 OA
ENDROOT
BRANCH   5   8
ATOM      8  C   UNL     1       5.973  -3.911  -1.685  0.00  0.00    +0.101 C 
ATOM      9  C   UNL     1       5.038  -4.799  -0.862  0.00  0.00    +0.124 C 
ATOM     10  C   UNL     1       5.220  -4.378   0.592  0.00  0.00    -0.036 C 
ATOM     11  C   UNL     1       5.516  -5.480   1.267  0.00  0.00    -0.001 A 
ATOM     12  C   UNL     1       5.717  -5.727   2.704  0.00  0.00    +0.010 A 
ATOM     13  C   UNL     1       6.029  -7.002   3.056  0.00  0.00    +0.001 A 
ATOM     14  C   UNL     1       6.160  -8.044   2.134  0.00  0.00    +0.002 A 
ATOM     15  C   UNL     1       5.987  -7.910   0.795  0.00  0.00    +0.026 A 
ATOM     16  C   UNL     1       5.650  -6.615   0.303  0.00  0.00    +0.043 A 
ATOM     17  N   UNL     1       5.402  -6.214  -0.929  0.00  0.00    -0.376 N 
ATOM     18  C   UNL     1       5.147  -2.930   1.012  0.00  0.00    +0.048 C 
ATOM     19  C   UNL     1       6.035  -2.152   0.024  0.00  0.00    +0.085 C 
ATOM     20  N   UNL     1       5.687  -2.505  -1.355  0.00  0.00    -0.310 NA
ATOM     21  H   UNL     1       6.131  -1.882  -2.012  0.00  0.00    +0.122 HD
ATOM     22  H   UNL     1       5.454  -6.749  -1.736  0.00  0.00    +0.160 HD
ENDBRANCH   5   8
BRANCH   4  23
ATOM     23  O   UNL     1       7.982  -3.846  -4.101  0.00  0.00    -0.495 OA
ATOM     24  H   UNL     1       8.569  -3.286  -4.627  0.00  0.00    +0.293 HD
ENDBRANCH   4  23
BRANCH   2  25
ATOM     25  O   UNL     1       4.846  -1.040  -5.752  0.00  0.00    -0.356 OA
ATOM     26  H   UNL     1       5.503  -0.399  -6.054  0.00  0.00    +0.214 HD
ENDBRANCH   2  25
BRANCH   1  27
ATOM     27  C   UNL     1       2.699  -2.217  -4.459  0.00  0.00    +0.147 C 
BRANCH  27  31
ATOM     28  C   UNL     1       0.945  -0.090  -1.194  0.00  0.00    +0.120 A 
ATOM     29  C   UNL     1       1.600   0.602  -2.202  0.00  0.00    +0.046 A 
ATOM     30  C   UNL     1       2.166  -0.088  -3.256  0.00  0.00    +0.009 A 
ATOM     31  C   UNL     1       2.081  -1.467  -3.307  0.00  0.00    -0.030 A 
ATOM     32  C   UNL     1       1.429  -2.159  -2.304  0.00  0.00    +0.009 A 
ATOM     33  C   UNL     1       0.866  -1.474  -1.244  0.00  0.00    +0.046 A 
BRANCH  28  35
ATOM     34  C   UNL     1       0.508   2.010  -0.169  0.00  0.00    +0.277 C 
ATOM     35  O   UNL     1       0.388   0.586  -0.155  0.00  0.00    -0.495 OA
ENDBRANCH  28  35
ENDBRANCH  27  31
ENDBRANCH   1  27
TORSDOF 6
