REMARK  Name = ZINC12515637
REMARK  6 active torsions:
REMARK  status: ('A' for Active; 'I' for Inactive)
REMARK    1  A    between atoms: C_1  and  N_2
REMARK    2  A    between atoms: N_2  and  C_3
REMARK    3  A    between atoms: C_11  and  C_13
REMARK    4  A    between atoms: C_13  and  N_14
REMARK    5  A    between atoms: C_21  and  S_23
REMARK    6  A    between atoms: S_23  and  N_26
REMARK                            x       y       z     vdW  Elec       q    Type
REMARK                         _______ _______ _______ _____ _____    ______ ____
ROOT
ATOM      1  N   UNL     1      -2.976   3.233   4.785  0.00  0.00    -0.321 N 
ATOM      2  C   UNL     1      -2.166   2.643   3.697  0.00  0.00    +0.110 C 
ATOM      3  C   UNL     1      -2.725   3.348   2.440  0.00  0.00    +0.056 C 
ATOM      4  C   UNL     1      -4.133   3.718   2.859  0.00  0.00    -0.023 A 
ATOM      5  C   UNL     1      -4.209   3.618   4.244  0.00  0.00    +0.033 A 
ATOM      6  C   UNL     1      -5.416   3.901   4.879  0.00  0.00    +0.025 A 
ATOM      7  C   UNL     1      -6.517   4.280   4.139  0.00  0.00    +0.030 A 
ATOM      8  C   UNL     1      -6.431   4.381   2.763  0.00  0.00    +0.105 A 
ATOM      9  C   UNL     1      -5.238   4.094   2.124  0.00  0.00    +0.034 A 
ENDROOT
BRANCH   8  10
ATOM     10  S   UNL     1      -7.840   4.867   1.823  0.00  0.00    +0.056 S 
ATOM     11  O   UNL     1      -8.981   4.544   2.607  0.00  0.00    -0.153 OA
ATOM     12  O   UNL     1      -7.649   4.357   0.511  0.00  0.00    -0.153 OA
BRANCH  10  13
ATOM     13  N   UNL     1      -7.801   6.517   1.700  0.00  0.00    -0.204 NA
ATOM     14  H   UNL     1      -8.534   7.047   2.052  0.00  0.00    +0.144 HD
ATOM     15  H   UNL     1      -7.046   6.955   1.277  0.00  0.00    +0.144 HD
ENDBRANCH  10  13
ENDBRANCH   8  10
BRANCH   1  16
ATOM     16  C   UNL     1      -3.160   2.274   5.883  0.00  0.00    +0.201 C 
BRANCH  16  19
ATOM     17  C   UNL     1      -2.954   0.224   7.829  0.00  0.00    +0.132 C 
ATOM     18  N   UNL     1      -1.733   0.844   7.310  0.00  0.00    -0.299 N 
ATOM     19  C   UNL     1      -1.813   1.820   6.384  0.00  0.00    +0.233 C 
ATOM     20  O   UNL     1      -0.802   2.333   5.955  0.00  0.00    -0.274 OA
BRANCH  18  21
ATOM     21  C   UNL     1      -0.423   0.403   7.797  0.00  0.00    +0.098 C 
ATOM     22  C   UNL     1      -0.247  -1.100   7.523  0.00  0.00    +0.046 C 
ATOM     23  C   UNL     1       0.973  -1.640   8.308  0.00  0.00    +0.168 C 
ATOM     24  S   UNL     1       1.050  -0.514   9.760  0.00  0.00    -0.029 S 
ATOM     25  O   UNL     1       2.274   0.206   9.722  0.00  0.00    -0.174 OA
ATOM     26  O   UNL     1       0.702  -1.243  10.929  0.00  0.00    -0.174 OA
ATOM     27  C   UNL     1      -0.331   0.629   9.333  0.00  0.00    +0.188 C 
ENDBRANCH  18  21
ENDBRANCH  16  19
ENDBRANCH   1  16
TORSDOF 5
