REMARK  Name = ZINC59170900
REMARK  4 active torsions:
REMARK  status: ('A' for Active; 'I' for Inactive)
REMARK    1  A    between atoms: C_3  and  N_8
REMARK    2  A    between atoms: C_10  and  C_20
REMARK    3  A    between atoms: C_15  and  O_19
REMARK    4  A    between atoms: C_20  and  N_22
REMARK                            x       y       z     vdW  Elec       q    Type
REMARK                         _______ _______ _______ _____ _____    ______ ____
ROOT
ATOM      1  N   UNL     1       3.490   2.523   0.178  0.00  0.00    -0.325 N 
ATOM      2  C   UNL     1       4.464   1.957   0.858  0.00  0.00    +0.209 A 
ATOM      3  C   UNL     1       5.862   2.412   0.713  0.00  0.00    +0.064 A 
ATOM      4  C   UNL     1       6.720   2.188   1.781  0.00  0.00    +0.027 A 
ATOM      5  C   UNL     1       6.209   1.513   2.920  0.00  0.00    +0.018 A 
ATOM      6  C   UNL     1       6.967   1.438   4.098  0.00  0.00    +0.015 A 
ATOM      7  C   UNL     1       6.450   0.823   5.200  0.00  0.00    +0.046 A 
ATOM      8  C   UNL     1       5.175   0.261   5.163  0.00  0.00    +0.120 A 
ATOM      9  C   UNL     1       4.419   0.308   4.002  0.00  0.00    +0.092 A 
ATOM     10  C   UNL     1       4.932   0.922   2.871  0.00  0.00    +0.141 A 
ATOM     11  O   UNL     1       4.219   0.939   1.722  0.00  0.00    -0.439 OA
ATOM     12  H   UNL     1       3.669   3.310  -0.361  0.00  0.00    +0.169 HD
ENDROOT
BRANCH   1  15
ATOM     13  C   UNL     1      -0.145   2.317   0.454  0.00  0.00    +0.003 A 
ATOM     14  C   UNL     1       1.127   2.848   0.401  0.00  0.00    +0.026 A 
ATOM     15  C   UNL     1       2.227   2.003   0.232  0.00  0.00    +0.043 A 
ATOM     16  C   UNL     1       2.030   0.625   0.119  0.00  0.00    +0.045 A 
ATOM     17  C   UNL     1       0.752   0.107   0.174  0.00  0.00    +0.043 A 
ATOM     18  C   UNL     1      -0.334   0.952   0.341  0.00  0.00    +0.020 A 
ATOM     19 CL   UNL     1       0.503  -1.605   0.033  0.00  0.00    -0.083 Cl
ENDBRANCH   1  15
BRANCH   8  20
ATOM     20  O   UNL     1       4.670  -0.337   6.272  0.00  0.00    -0.507 OA
ATOM     21  H   UNL     1       4.176   0.260   6.851  0.00  0.00    +0.292 HD
ENDBRANCH   8  20
BRANCH   3  22
ATOM     22  C   UNL     1       6.326   3.075  -0.514  0.00  0.00    +0.082 C 
ATOM     23  S   UNL     1       5.286   3.195  -1.868  0.00  0.00    -0.035 S 
BRANCH  22  24
ATOM     24  N   UNL     1       7.571   3.589  -0.572  0.00  0.00    -0.352 N 
ATOM     25  H   UNL     1       8.160   3.521   0.195  0.00  0.00    +0.143 HD
ATOM     26  H   UNL     1       7.877   4.027  -1.382  0.00  0.00    +0.143 HD
ENDBRANCH  22  24
ENDBRANCH   3  22
TORSDOF 4
