REMARK  Name = ZINC64062241
REMARK  6 active torsions:
REMARK  status: ('A' for Active; 'I' for Inactive)
REMARK    1  A    between atoms: C_4  and  C_7
REMARK    2  A    between atoms: C_7  and  C_28
REMARK    3  A    between atoms: C_13  and  C_15
REMARK    4  A    between atoms: C_15  and  C_17
REMARK    5  A    between atoms: C_15  and  N_27
REMARK    6  A    between atoms: C_17  and  C_18
REMARK                            x       y       z     vdW  Elec       q    Type
REMARK                         _______ _______ _______ _____ _____    ______ ____
ROOT
ATOM      1  C   UNL     1       3.711  -0.707  -0.038  0.00  0.00    +0.100 C 
ATOM      2  C   UNL     1       4.496  -0.319  -1.293  0.00  0.00    +0.042 C 
ATOM      3  C   UNL     1       5.847  -1.042  -1.290  0.00  0.00    +0.109 C 
ATOM      4  N   UNL     1       5.610  -2.485  -1.148  0.00  0.00    -0.303 N 
ATOM      5  C   UNL     1       4.790  -2.960  -0.025  0.00  0.00    +0.109 C 
ATOM      6  C   UNL     1       3.452  -2.215  -0.042  0.00  0.00    +0.042 C 
ATOM      7  C   UNL     1       6.135  -3.357  -2.032  0.00  0.00    +0.201 C 
ATOM      8  O   UNL     1       6.809  -2.952  -2.955  0.00  0.00    -0.277 OA
ENDROOT
BRANCH   1  12
ATOM      9  C   UNL     1      -0.017   1.378   0.010  0.00  0.00    +0.000 A 
ATOM     10  C   UNL     1       1.171   2.086   0.002  0.00  0.00    +0.000 A 
ATOM     11  C   UNL     1       2.377   1.411  -0.013  0.00  0.00    +0.005 A 
ATOM     12  C   UNL     1       2.396   0.029  -0.020  0.00  0.00    -0.030 A 
ATOM     13  C   UNL     1       1.208  -0.679  -0.012  0.00  0.00    +0.005 A 
ATOM     14  C   UNL     1       0.002  -0.004   0.002  0.00  0.00    +0.000 A 
ENDBRANCH   1  12
BRANCH   1  15
ATOM     15  C   UNL     1       4.509  -0.339   1.187  0.00  0.00    +0.366 C 
ATOM     16  O   UNL     1       4.052   0.448   1.998  0.00  0.00    -0.245 OA
ATOM     17  O   UNL     1       5.611  -0.828   1.366  0.00  0.00    -0.245 OA
ENDBRANCH   1  15
BRANCH   7  18
ATOM     18  C   UNL     1       5.883  -4.834  -1.874  0.00  0.00    +0.017 C 
BRANCH  18  19
ATOM     19  N   UNL     1       6.123  -5.512  -3.155  0.00  0.00    +0.386 N 
ATOM     20  H   UNL     1       7.079  -5.362  -3.441  0.00  0.00    -0.089 HD
ATOM     21  H   UNL     1       5.954  -6.501  -3.049  0.00  0.00    -0.089 HD
ATOM     22  H   UNL     1       5.500  -5.138  -3.855  0.00  0.00    -0.089 HD
ENDBRANCH  18  19
BRANCH  18  23
ATOM     23  C   UNL     1       6.828  -5.401  -0.812  0.00  0.00    +0.026 C 
BRANCH  23  24
ATOM     24  C   UNL     1       6.494  -6.850  -0.565  0.00  0.00    -0.043 C 
ATOM     25  C   UNL     1       7.079  -7.928  -1.135  0.00  0.00    -0.001 A 
ATOM     26  C   UNL     1       8.159  -8.069  -2.119  0.00  0.00    +0.010 A 
ATOM     27  C   UNL     1       8.535  -9.308  -2.507  0.00  0.00    +0.001 A 
ATOM     28  C   UNL     1       7.921 -10.459  -1.995  0.00  0.00    +0.002 A 
ATOM     29  C   UNL     1       6.922 -10.410  -1.088  0.00  0.00    +0.026 A 
ATOM     30  C   UNL     1       6.447  -9.159  -0.609  0.00  0.00    +0.043 A 
ATOM     31  N   UNL     1       5.507  -8.853   0.253  0.00  0.00    -0.380 N 
ATOM     32  C   UNL     1       5.441  -7.393   0.376  0.00  0.00    +0.144 C 
ATOM     33  H   UNL     1       4.951  -9.487   0.732  0.00  0.00    +0.160 HD
ENDBRANCH  23  24
ENDBRANCH  18  23
ENDBRANCH   7  18
TORSDOF 6
