REMARK  Name = ZINC37174182
REMARK  7 active torsions:
REMARK  status: ('A' for Active; 'I' for Inactive)
REMARK    1  A    between atoms: C_1  and  C_2
REMARK    2  A    between atoms: C_2  and  C_4
REMARK    3  A    between atoms: C_2  and  N_16
REMARK    4  A    between atoms: N_6  and  C_7
REMARK    5  A    between atoms: C_10  and  N_14
REMARK    6  A    between atoms: N_16  and  C_17
REMARK    7  A    between atoms: N_16  and  C_18
REMARK                            x       y       z     vdW  Elec       q    Type
REMARK                         _______ _______ _______ _____ _____    ______ ____
ROOT
ATOM      1  C   UNL     1      -1.239  -0.887   0.426  0.00  0.00    +0.203 C 
ATOM      2  O   UNL     1      -1.461  -1.890  -0.219  0.00  0.00    -0.277 OA
ATOM      3  N   UNL     1      -2.251  -0.240   1.036  0.00  0.00    -0.284 N 
ATOM      4  H   UNL     1      -2.087   0.605   1.484  0.00  0.00    +0.155 HD
ENDROOT
BRANCH   3   5
ATOM      5  C   UNL     1      -3.542  -0.787   1.024  0.00  0.00    +0.070 A 
ATOM      6  C   UNL     1      -4.123  -1.172  -0.178  0.00  0.00    +0.065 A 
ATOM      7  C   UNL     1      -5.395  -1.711  -0.189  0.00  0.00    +0.044 A 
ATOM      8  C   UNL     1      -6.093  -1.870   1.001  0.00  0.00    +0.027 A 
ATOM      9  C   UNL     1      -5.513  -1.485   2.203  0.00  0.00    +0.044 A 
ATOM     10  C   UNL     1      -4.238  -0.951   2.215  0.00  0.00    +0.065 A 
ATOM     11 CL   UNL     1      -3.510  -0.478   3.719  0.00  0.00    -0.082 Cl
ATOM     12 CL   UNL     1      -3.251  -0.973  -1.666  0.00  0.00    -0.082 Cl
BRANCH   8  13
ATOM     13  N   UNL     1      -7.380  -2.416   0.989  0.00  0.00    -0.358 N 
ATOM     14  H   UNL     1      -7.786  -2.684   0.150  0.00  0.00    +0.142 HD
ATOM     15  H   UNL     1      -7.868  -2.527   1.820  0.00  0.00    +0.142 HD
ENDBRANCH   8  13
ENDBRANCH   3   5
BRANCH   1  17
ATOM     16  C   UNL     1       0.270   0.996  -0.145  0.00  0.00    -0.004 C 
ATOM     17  C   UNL     1       0.170  -0.365   0.545  0.00  0.00    +0.016 C 
BRANCH  17  18
ATOM     18  N   UNL     1       1.097  -1.308  -0.094  0.00  0.00    +0.388 N 
ATOM     19  C   UNL     1       0.855  -1.327  -1.543  0.00  0.00    -0.095 C 
ATOM     20  H   UNL     1       0.951  -2.232   0.283  0.00  0.00    -0.081 HD
BRANCH  18  21
ATOM     21  C   UNL     1       2.481  -0.887   0.165  0.00  0.00    -0.057 C 
ATOM     22  C   UNL     1       3.423  -1.769  -0.653  0.00  0.00    -0.004 C 
ATOM     23  C   UNL     1       4.802  -1.885   0.054  0.00  0.00    +0.067 C 
ATOM     24  S   UNL     1       4.239  -2.015   1.808  0.00  0.00    -0.162 S 
ATOM     25  C   UNL     1       2.742  -0.956   1.683  0.00  0.00    +0.054 C 
ENDBRANCH  18  21
ENDBRANCH  17  18
ENDBRANCH   1  17
TORSDOF 5
