REMARK  Name = ZINC29124326
REMARK  8 active torsions:
REMARK  status: ('A' for Active; 'I' for Inactive)
REMARK    1  A    between atoms: C_1  and  O_2
REMARK    2  A    between atoms: O_2  and  N_3
REMARK    3  A    between atoms: C_4  and  C_5
REMARK    4  A    between atoms: C_8  and  C_11
REMARK    5  A    between atoms: C_16  and  C_20
REMARK    6  A    between atoms: C_23  and  C_26
REMARK    7  A    between atoms: N_27  and  O_28
REMARK    8  A    between atoms: O_28  and  C_29
REMARK                            x       y       z     vdW  Elec       q    Type
REMARK                         _______ _______ _______ _____ _____    ______ ____
ROOT
ATOM      1  C   UNL     1      -0.475  -4.474   0.147  0.00  0.00    -0.001 A 
ATOM      2  C   UNL     1       0.938  -4.429   0.213  0.00  0.00    +0.013 A 
ATOM      3  C   UNL     1       1.570  -3.228   0.227  0.00  0.00    +0.047 A 
ATOM      4  C   UNL     1       0.809  -2.040   0.177  0.00  0.00    +0.138 A 
ATOM      5  N   UNL     1       1.161  -0.763   0.172  0.00  0.00    -0.228 NA
ATOM      6  C   UNL     1       0.056  -0.003   0.116  0.00  0.00    +0.090 A 
ATOM      7  C   UNL     1      -1.029  -0.827   0.075  0.00  0.00    +0.121 A 
ATOM      8  N   UNL     1      -0.560  -2.110   0.114  0.00  0.00    -0.305 N 
ATOM      9  C   UNL     1      -1.192  -3.318   0.099  0.00  0.00    +0.101 A 
ENDROOT
BRANCH   1  13
ATOM     10  C   UNL     1      -2.482  -8.226   0.098  0.00  0.00    +0.018 A 
ATOM     11  C   UNL     1      -1.089  -8.180   0.163  0.00  0.00    +0.012 A 
ATOM     12  C   UNL     1      -0.440  -6.966   0.179  0.00  0.00    +0.009 A 
ATOM     13  C   UNL     1      -1.174  -5.781   0.130  0.00  0.00    -0.016 A 
ATOM     14  C   UNL     1      -2.567  -5.826   0.071  0.00  0.00    +0.009 A 
ATOM     15  C   UNL     1      -3.217  -7.040   0.050  0.00  0.00    +0.012 A 
BRANCH  10  17
ATOM     16  N   UNL     1      -4.479  -9.572   0.020  0.00  0.00    -0.069 NA
ATOM     17  C   UNL     1      -3.180  -9.530   0.080  0.00  0.00    +0.163 C 
ATOM     18  N   UNL     1      -2.451 -10.706   0.128  0.00  0.00    -0.340 N 
ATOM     19  H   UNL     1      -1.353 -10.671   0.178  0.00  0.00    +0.144 HD
ATOM     20  H   UNL     1      -2.970 -11.676   0.114  0.00  0.00    +0.144 HD
BRANCH  16  22
ATOM     21  C   UNL     1      -6.571 -10.717  -0.065  0.00  0.00    +0.313 C 
ATOM     22  O   UNL     1      -5.147 -10.820   0.003  0.00  0.00    -0.396 OA
ENDBRANCH  16  22
ENDBRANCH  10  17
ENDBRANCH   1  13
BRANCH   6  23
ATOM     23  C   UNL     1       0.021   1.480   0.095  0.00  0.00    +0.002 A 
ATOM     24  C   UNL     1      -1.201   2.148   0.022  0.00  0.00    +0.011 A 
ATOM     25  C   UNL     1      -1.233   3.525   0.007  0.00  0.00    +0.012 A 
ATOM     26  C   UNL     1      -0.042   4.251   0.053  0.00  0.00    +0.018 A 
ATOM     27  C   UNL     1       1.181   3.582   0.120  0.00  0.00    +0.012 A 
ATOM     28  C   UNL     1       1.212   2.205   0.141  0.00  0.00    +0.011 A 
BRANCH  26  29
ATOM     29  C   UNL     1      -0.076   5.730   0.032  0.00  0.00    +0.163 C 
ATOM     30  N   UNL     1       0.932   6.397  -0.451  0.00  0.00    -0.069 NA
ATOM     31  N   UNL     1      -1.180   6.404   0.525  0.00  0.00    -0.340 N 
ATOM     32  H   UNL     1      -1.205   7.504   0.509  0.00  0.00    +0.144 HD
ATOM     33  H   UNL     1      -2.032   5.841   0.933  0.00  0.00    +0.144 HD
BRANCH  30  34
ATOM     34  O   UNL     1       2.000   5.710  -1.078  0.00  0.00    -0.396 OA
ATOM     35  C   UNL     1       3.038   6.566  -1.561  0.00  0.00    +0.313 C 
ENDBRANCH  30  34
ENDBRANCH  26  29
ENDBRANCH   6  23
TORSDOF 6
