REMARK  Name = ZINC01319834
REMARK  5 active torsions:
REMARK  status: ('A' for Active; 'I' for Inactive)
REMARK    1  A    between atoms: N_9  and  C1*_12
REMARK    2  A    between atoms: C2*_14  and  O2*_24
REMARK    3  A    between atoms: C3*_16  and  O3*_23
REMARK    4  A    between atoms: C4*_18  and  C5*_21
REMARK    5  A    between atoms: C5*_21  and  O5*_22
REMARK                            x       y       z     vdW  Elec       q    Type
REMARK                         _______ _______ _______ _____ _____    ______ ____
ROOT
ATOM      1  C1* UNL     1       4.841   2.099  -0.034  0.00  0.00    +0.252 C 
ATOM      2  C2* UNL     1       5.343   1.930  -1.485  0.00  0.00    +0.195 C 
ATOM      3  C3* UNL     1       6.727   2.617  -1.486  0.00  0.00    +0.178 C 
ATOM      4  C4* UNL     1       6.897   3.120  -0.035  0.00  0.00    +0.177 C 
ATOM      5  O4* UNL     1       5.551   3.250   0.473  0.00  0.00    -0.346 OA
ENDROOT
BRANCH   1  14
ATOM      6  C   UNL     1      -0.017   1.373   0.010  0.00  0.00    +0.051 A 
ATOM      7  C   UNL     1       1.187   2.083   0.002  0.00  0.00    +0.091 A 
ATOM      8  C   UNL     1       2.404   1.382  -0.013  0.00  0.00    +0.072 A 
ATOM      9  C   UNL     1       2.405  -0.006  -0.020  0.00  0.00    +0.049 A 
ATOM     10  C   UNL     1       1.209  -0.693  -0.012  0.00  0.00    +0.061 A 
ATOM     11  C   UNL     1       0.002  -0.004   0.002  0.00  0.00    +0.061 A 
ATOM     12 CL   UNL     1      -1.493  -0.886   0.012  0.00  0.00    -0.082 Cl
ATOM     13 CL   UNL     1       1.212  -2.429  -0.021  0.00  0.00    -0.082 Cl
ATOM     14  N   UNL     1       3.397   2.343  -0.018  0.00  0.00    -0.301 N 
ATOM     15  C   UNL     1       2.784   3.557  -0.007  0.00  0.00    +0.202 A 
ATOM     16  N   UNL     1       1.492   3.406   0.005  0.00  0.00    -0.236 NA
ENDBRANCH   1  14
BRANCH   3  17
ATOM     17  O3* UNL     1       6.741   3.713  -2.403  0.00  0.00    -0.386 OA
ATOM     18  H3* UNL     1       7.587   4.181  -2.444  0.00  0.00    +0.210 HD
ENDBRANCH   3  17
BRANCH   2  19
ATOM     19  O2* UNL     1       5.469   0.545  -1.813  0.00  0.00    -0.385 OA
ATOM     20  H2* UNL     1       5.781   0.381  -2.714  0.00  0.00    +0.210 HD
ENDBRANCH   2  19
BRANCH   4  21
ATOM     21  C5* UNL     1       7.609   4.475  -0.021  0.00  0.00    +0.190 C 
BRANCH  21  22
ATOM     22  O5* UNL     1       7.860   4.867   1.330  0.00  0.00    -0.392 OA
ATOM     23  H5* UNL     1       8.310   5.718   1.415  0.00  0.00    +0.210 HD
ENDBRANCH  21  22
ENDBRANCH   4  21
TORSDOF 5
