REMARK  Name = ZINC31983173
REMARK  17 active torsions:
REMARK  status: ('A' for Active; 'I' for Inactive)
REMARK    1  A    between atoms: C_1  and  C_2
REMARK    2  A    between atoms: C_2  and  N_3
REMARK    3  A    between atoms: N_3  and  C_4
REMARK    4  A    between atoms: N_3  and  C_6
REMARK    5  A    between atoms: C_4  and  C_5
REMARK    6  A    between atoms: C_6  and  C_7
REMARK    7  A    between atoms: C_7  and  S_8
REMARK    8  A    between atoms: S_8  and  C_9
REMARK    9  A    between atoms: C_9  and  C_10
REMARK   10  A    between atoms: C_10  and  O_12
REMARK   11  A    between atoms: O_12  and  C_13
REMARK   12  A    between atoms: C_16  and  C_37
REMARK   13  A    between atoms: C_16  and  C_38
REMARK   14  A    between atoms: C_17  and  O_36
REMARK   15  A    between atoms: C_19  and  C_35
REMARK   16  A    between atoms: C_24  and  C_34
REMARK   17  A    between atoms: C_26  and  C_33
REMARK                            x       y       z     vdW  Elec       q    Type
REMARK                         _______ _______ _______ _____ _____    ______ ____
ROOT
ATOM      1  C   UNL     1       2.622   3.279   2.738  0.00  0.00    +0.184 C 
ATOM      2  C   UNL     1       2.807   3.026   4.199  0.00  0.00    +0.058 C 
ATOM      3  C   UNL     1       1.920   2.457   5.235  0.00  0.00    +0.015 C 
ATOM      4  C   UNL     1       1.210   3.625   5.979  0.00  0.00    +0.128 C 
ATOM      5  C   UNL     1       0.658   4.585   4.967  0.00  0.00    +0.022 C 
ATOM      6  C   UNL     1       1.464   5.632   4.304  0.00  0.00    -0.014 C 
ATOM      7  C   UNL     1       2.738   6.078   4.997  0.00  0.00    +0.008 C 
ATOM      8  C   UNL     1       4.046   5.653   4.368  0.00  0.00    +0.004 C 
ATOM      9  C   UNL     1       4.071   5.367   2.886  0.00  0.00    -0.004 C 
ATOM     10  C   UNL     1       2.789   4.753   2.326  0.00  0.00    +0.018 C 
ATOM     11  C   UNL     1       1.655   5.645   2.813  0.00  0.00    +0.071 C 
ATOM     12  C   UNL     1       0.328   5.739   2.165  0.00  0.00    +0.138 C 
ATOM     13  O   UNL     1      -0.112   5.189   1.190  0.00  0.00    -0.297 OA
ATOM     14  C   UNL     1      -0.378   6.755   3.074  0.00  0.00    +0.075 C 
ATOM     15  C   UNL     1       0.495   6.897   4.345  0.00  0.00    +0.015 C 
ATOM     16  C   UNL     1       2.867   4.822   0.788  0.00  0.00    +0.016 C 
ATOM     17  C   UNL     1       5.273   4.488   2.538  0.00  0.00    +0.008 C 
ATOM     18  C   UNL     1      -0.463   3.970   4.129  0.00  0.00    +0.011 C 
ATOM     19  C   UNL     1       0.981   1.371   4.722  0.00  0.00    +0.018 C 
ENDROOT
BRANCH   4  20
ATOM     20  O   UNL     1       2.039   4.201   6.995  0.00  0.00    -0.391 OA
ATOM     21  H   UNL     1       1.665   5.038   7.602  0.00  0.00    +0.210 HD
ENDBRANCH   4  20
BRANCH   3  22
ATOM     22  C   UNL     1       2.836   1.769   6.263  0.00  0.00    -0.025 C 
ATOM     23  C   UNL     1       2.727   0.481   6.478  0.00  0.00    +0.004 C 
ENDBRANCH   3  22
BRANCH   1  24
ATOM     24  O   UNL     1       1.351   2.783   2.252  0.00  0.00    -0.460 OA
BRANCH  24  25
ATOM     25  C   UNL     1       1.321   1.519   1.801  0.00  0.00    +0.317 C 
ATOM     26  O   UNL     1       2.328   0.850   1.812  0.00  0.00    -0.250 OA
BRANCH  25  27
ATOM     27  C   UNL     1       0.034   0.934   1.279  0.00  0.00    +0.189 C 
BRANCH  27  28
ATOM     28  S   UNL     1       0.319  -0.777   0.748  0.00  0.00    -0.151 S 
BRANCH  28  29
ATOM     29  C   UNL     1      -1.305  -1.328   0.156  0.00  0.00    +0.051 C 
BRANCH  29  30
ATOM     30  C   UNL     1      -1.207  -2.776  -0.328  0.00  0.00    -0.068 C 
BRANCH  30  31
ATOM     31  N   UNL     1      -2.521  -3.223  -0.807  0.00  0.00    +0.380 N 
ATOM     32  H   UNL     1      -3.258  -3.014  -0.018  0.00  0.00    -0.082 HD
BRANCH  31  34
ATOM     33  C   UNL     1      -1.924  -2.748  -3.135  0.00  0.00    -0.017 C 
ATOM     34  C   UNL     1      -2.924  -2.479  -2.009  0.00  0.00    -0.082 C 
ENDBRANCH  31  34
BRANCH  31  35
ATOM     35  C   UNL     1      -2.527  -4.670  -1.058  0.00  0.00    -0.082 C 
ATOM     36  C   UNL     1      -3.970  -5.159  -1.193  0.00  0.00    -0.017 C 
ENDBRANCH  31  35
ENDBRANCH  30  31
ENDBRANCH  29  30
ENDBRANCH  28  29
ENDBRANCH  27  28
ENDBRANCH  25  27
ENDBRANCH  24  25
ENDBRANCH   1  24
TORSDOF 11
