REMARK  Name = ZINC62825217
REMARK  9 active torsions:
REMARK  status: ('A' for Active; 'I' for Inactive)
REMARK    1  A    between atoms: C_1  and  C_2
REMARK    2  A    between atoms: C_2  and  N_3
REMARK    3  A    between atoms: N_3  and  C_4
REMARK    4  A    between atoms: N_3  and  C_6
REMARK    5  A    between atoms: C_4  and  C_5
REMARK    6  A    between atoms: C_6  and  C_7
REMARK    7  A    between atoms: C_7  and  C_8
REMARK    8  A    between atoms: C_10  and  C_13
REMARK    9  A    between atoms: C_18  and  N_19
REMARK                            x       y       z     vdW  Elec       q    Type
REMARK                         _______ _______ _______ _____ _____    ______ ____
ROOT
ATOM      1  C   UNL     1      -3.433  -5.101   0.918  0.00  0.00    +0.170 A 
ATOM      2  N   UNL     1      -3.212  -5.988  -0.054  0.00  0.00    -0.192 NA
ATOM      3  C   UNL     1      -3.320  -7.210   0.421  0.00  0.00    +0.260 A 
ATOM      4  O   UNL     1      -3.617  -7.122   1.729  0.00  0.00    -0.333 OA
ATOM      5  N   UNL     1      -3.679  -5.736   2.029  0.00  0.00    -0.061 NA
ENDROOT
BRANCH   3   6
ATOM      6  C   UNL     1      -3.146  -8.458  -0.347  0.00  0.00    +0.062 A 
ATOM      7  C   UNL     1      -2.053  -8.608  -1.204  0.00  0.00    +0.030 A 
ATOM      8  C   UNL     1      -1.895  -9.777  -1.919  0.00  0.00    +0.020 A 
ATOM      9  C   UNL     1      -2.817 -10.805  -1.792  0.00  0.00    +0.032 A 
ATOM     10  C   UNL     1      -3.902 -10.670  -0.949  0.00  0.00    +0.040 A 
ATOM     11  C   UNL     1      -4.074  -9.502  -0.217  0.00  0.00    +0.051 A 
ATOM     12 BR   UNL     1      -5.152 -12.079  -0.786  0.00  0.00    -0.048 Br
ATOM     13 BR   UNL     1      -0.415  -9.978  -3.079  0.00  0.00    -0.050 Br
BRANCH  11  14
ATOM     14  N   UNL     1      -5.164  -9.366   0.637  0.00  0.00    -0.357 N 
ATOM     15  H   UNL     1      -5.330  -8.519   1.080  0.00  0.00    +0.142 HD
ATOM     16  H   UNL     1      -5.757 -10.118   0.790  0.00  0.00    +0.142 HD
ENDBRANCH  11  14
ENDBRANCH   3   6
BRANCH   1  17
ATOM     17  C   UNL     1      -3.396  -3.603   0.758  0.00  0.00    +0.061 C 
BRANCH  17  18
ATOM     18  C   UNL     1      -1.976  -3.096   1.016  0.00  0.00    -0.071 C 
BRANCH  18  19
ATOM     19  N   UNL     1      -1.916  -1.652   0.756  0.00  0.00    +0.380 N 
ATOM     20  H   UNL     1      -2.248  -1.464  -0.179  0.00  0.00    -0.082 HD
BRANCH  19  22
ATOM     21  C   UNL     1      -2.798   0.546   1.380  0.00  0.00    -0.017 C 
ATOM     22  C   UNL     1      -2.761  -0.944   1.727  0.00  0.00    -0.082 C 
ENDBRANCH  19  22
BRANCH  19  23
ATOM     23  C   UNL     1      -0.528  -1.188   0.885  0.00  0.00    -0.082 C 
ATOM     24  C   UNL     1       0.322  -1.808  -0.226  0.00  0.00    -0.017 C 
ENDBRANCH  19  23
ENDBRANCH  18  19
ENDBRANCH  17  18
ENDBRANCH   1  17
TORSDOF 7
