REMARK  Name = ZINC65305871
REMARK  11 active torsions:
REMARK  status: ('A' for Active; 'I' for Inactive)
REMARK    1  A    between atoms: C_1  and  C_2
REMARK    2  A    between atoms: C_2  and  C_3
REMARK    3  A    between atoms: C_3  and  C_5
REMARK    4  A    between atoms: C_3  and  C_6
REMARK    5  A    between atoms: C_6  and  C_8
REMARK    6  A    between atoms: C_6  and  N_20
REMARK    7  A    between atoms: N_10  and  C_11
REMARK    8  A    between atoms: C_21  and  C_23
REMARK    9  A    between atoms: C_23  and  C_24
REMARK   10  A    between atoms: C_28  and  O_30
REMARK   11  A    between atoms: O_30  and  C_31
REMARK                            x       y       z     vdW  Elec       q    Type
REMARK                         _______ _______ _______ _____ _____    ______ ____
ROOT
ATOM      1  C   UNL     1      -1.420  -2.073   0.123  0.00  0.00    +0.162 C 
ENDROOT
BRANCH   1   2
ATOM      2  C   UNL     1      -0.481  -2.630  -0.916  0.00  0.00    +0.236 C 
ATOM      3  O   UNL     1       0.429  -3.358  -0.582  0.00  0.00    -0.274 OA
ATOM      4  N   UNL     1      -0.654  -2.320  -2.216  0.00  0.00    -0.277 N 
ATOM      5  H   UNL     1      -1.419  -1.792  -2.491  0.00  0.00    +0.152 HD
BRANCH   4   6
ATOM      6  C   UNL     1       0.315  -2.780  -3.214  0.00  0.00    +0.269 C 
ATOM      7  N   UNL     1       1.516  -1.936  -3.177  0.00  0.00    -0.348 N 
ATOM      8  C   UNL     1       1.639  -1.380  -4.347  0.00  0.00    +0.061 A 
ATOM      9  C   UNL     1       2.625  -0.449  -4.912  0.00  0.00    +0.027 A 
ATOM     10  C   UNL     1       2.493  -0.033  -6.187  0.00  0.00    +0.002 A 
ATOM     11  C   UNL     1       1.438  -0.454  -7.017  0.00  0.00    +0.002 A 
ATOM     12  C   UNL     1       0.480  -1.306  -6.598  0.00  0.00    +0.027 A 
ATOM     13  C   UNL     1       0.523  -1.826  -5.225  0.00  0.00    +0.061 A 
ATOM     14  N   UNL     1      -0.247  -2.641  -4.563  0.00  0.00    -0.348 N 
ATOM     15  H   UNL     1       2.109  -1.815  -2.419  0.00  0.00    +0.163 HD
ATOM     16  H   UNL     1      -1.045  -3.078  -4.900  0.00  0.00    +0.163 HD
ENDBRANCH   4   6
ENDBRANCH   1   2
BRANCH   1  17
ATOM     17  N   UNL     1      -1.409  -2.938   1.305  0.00  0.00    -0.303 N 
ATOM     18  C   UNL     1      -2.475  -2.965   2.130  0.00  0.00    +0.218 C 
ATOM     19  O   UNL     1      -3.443  -2.273   1.893  0.00  0.00    -0.275 OA
ATOM     20  H   UNL     1      -0.635  -3.491   1.495  0.00  0.00    +0.149 HD
BRANCH  18  21
ATOM     21  C   UNL     1      -2.465  -3.855   3.346  0.00  0.00    +0.131 C 
BRANCH  21  22
ATOM     22  C   UNL     1      -3.764  -3.700   4.093  0.00  0.00    -0.035 A 
ATOM     23  C   UNL     1      -3.885  -2.737   5.077  0.00  0.00    +0.004 A 
ATOM     24  C   UNL     1      -5.076  -2.593   5.764  0.00  0.00    +0.004 A 
ATOM     25  C   UNL     1      -6.149  -3.412   5.469  0.00  0.00    +0.045 A 
ATOM     26  C   UNL     1      -6.030  -4.379   4.481  0.00  0.00    +0.120 A 
ATOM     27  C   UNL     1      -4.836  -4.517   3.789  0.00  0.00    +0.049 A 
BRANCH  26  28
ATOM     28  O   UNL     1      -7.084  -5.185   4.189  0.00  0.00    -0.495 OA
ATOM     29  C   UNL     1      -8.284  -4.982   4.938  0.00  0.00    +0.277 C 
ENDBRANCH  26  28
ENDBRANCH  21  22
ENDBRANCH  18  21
ENDBRANCH   1  17
BRANCH   1  30
ATOM     30  C   UNL     1      -0.966  -0.665   0.517  0.00  0.00    +0.015 C 
ATOM     31  C   UNL     1       0.390  -0.745   1.220  0.00  0.00    +0.010 C 
BRANCH  30  33
ATOM     32  C   UNL     1      -1.608   1.406   1.757  0.00  0.00    +0.004 C 
ATOM     33  C   UNL     1      -1.996  -0.044   1.462  0.00  0.00    +0.002 C 
ENDBRANCH  30  33
ENDBRANCH   1  30
TORSDOF 8
