REMARK  Name = ZINC28243390
REMARK  9 active torsions:
REMARK  status: ('A' for Active; 'I' for Inactive)
REMARK    1  A    between atoms: C_1  and  C_2
REMARK    2  A    between atoms: C_2  and  O_3
REMARK    3  A    between atoms: O_3  and  C_4
REMARK    4  A    between atoms: C_4  and  C_6
REMARK    5  A    between atoms: C_9  and  S_13
REMARK    6  A    between atoms: S_13  and  N_16
REMARK    7  A    between atoms: N_16  and  C_17
REMARK    8  A    between atoms: C_21  and  N_23
REMARK    9  A    between atoms: C_24  and  C_26
REMARK                            x       y       z     vdW  Elec       q    Type
REMARK                         _______ _______ _______ _____ _____    ______ ____
ROOT
ATOM      1  N   UNL     1      -3.369   7.747   0.228  0.00  0.00    -0.098 NA
ENDROOT
BRANCH   1   2
ATOM      2  C   UNL     1      -3.463   6.359   0.112  0.00  0.00    +0.076 A 
ATOM      3  C   UNL     1      -4.702   5.735   0.197  0.00  0.00    +0.027 A 
ATOM      4  C   UNL     1      -4.795   4.362   0.081  0.00  0.00    +0.004 A 
ATOM      5  C   UNL     1      -3.658   3.604  -0.123  0.00  0.00    +0.023 A 
ATOM      6  C   UNL     1      -2.416   4.220  -0.203  0.00  0.00    +0.036 A 
ATOM      7  C   UNL     1      -2.319   5.600  -0.088  0.00  0.00    +0.050 A 
BRANCH   6   8
ATOM      8  N   UNL     1      -1.265   3.452  -0.405  0.00  0.00    -0.279 N 
ATOM      9  C   UNL     1      -0.104   3.811   0.177  0.00  0.00    +0.284 C 
ATOM     10  O   UNL     1      -0.035   4.852   0.805  0.00  0.00    -0.266 OA
ATOM     11  H   UNL     1      -1.308   2.554  -1.039  0.00  0.00    +0.155 HD
BRANCH   9  12
ATOM     12  C   UNL     1       1.075   2.949   0.054  0.00  0.00    +0.189 A 
ATOM     13  C   UNL     1       2.307   3.193   0.591  0.00  0.00    +0.054 A 
ATOM     14  C   UNL     1       3.126   2.111   0.232  0.00  0.00    +0.042 A 
ATOM     15  C   UNL     1       2.367   1.265  -0.500  0.00  0.00    +0.196 A 
ATOM     16  O   UNL     1       1.133   1.773  -0.605  0.00  0.00    -0.458 OA
ENDBRANCH   9  12
ENDBRANCH   6   8
ENDBRANCH   1   2
BRANCH   1  17
ATOM     17  S   UNL     1      -4.423   8.720  -0.600  0.00  0.00    +0.093 S 
ATOM     18  O   UNL     1      -5.728   8.221  -0.338  0.00  0.00    -0.148 OA
ATOM     19  O   UNL     1      -4.049  10.061  -0.313  0.00  0.00    -0.148 OA
BRANCH  17  23
ATOM     20  C   UNL     1      -3.654   8.075  -5.019  0.00  0.00    +0.060 A 
ATOM     21  C   UNL     1      -4.882   7.717  -4.461  0.00  0.00    +0.017 A 
ATOM     22  C   UNL     1      -5.110   7.915  -3.115  0.00  0.00    +0.031 A 
ATOM     23  C   UNL     1      -4.124   8.469  -2.318  0.00  0.00    +0.124 A 
ATOM     24  C   UNL     1      -2.905   8.833  -2.865  0.00  0.00    +0.045 A 
ATOM     25  C   UNL     1      -2.663   8.633  -4.209  0.00  0.00    +0.032 A 
ATOM     26 BR   UNL     1      -1.568   9.597  -1.768  0.00  0.00    -0.048 Br
BRANCH  20  27
ATOM     27  C   UNL     1      -3.403   7.865  -6.460  0.00  0.00    +0.339 C 
ATOM     28  O   UNL     1      -4.267   7.379  -7.161  0.00  0.00    -0.245 OA
BRANCH  27  29
ATOM     29  O   UNL     1      -2.217   8.212  -6.995  0.00  0.00    -0.461 OA
BRANCH  29  31
ATOM     30  C   UNL     1      -0.642   8.430  -8.840  0.00  0.00    +0.048 C 
ATOM     31  C   UNL     1      -2.041   7.977  -8.417  0.00  0.00    +0.229 C 
ENDBRANCH  29  31
ENDBRANCH  27  29
ENDBRANCH  20  27
ENDBRANCH  17  23
ENDBRANCH   1  17
TORSDOF 8
