REMARK  Name = ZINC35954673
REMARK  15 active torsions:
REMARK  status: ('A' for Active; 'I' for Inactive)
REMARK    1  A    between atoms: C_1  and  C_2
REMARK    2  A    between atoms: C_2  and  C_3
REMARK    3  A    between atoms: C_4  and  C_22
REMARK    4  A    between atoms: C_5  and  N_14
REMARK    5  A    between atoms: N_6  and  C_8
REMARK    6  A    between atoms: N_17  and  C_20
REMARK    7  A    between atoms: C_20  and  C_21
REMARK    8  A    between atoms: C_22  and  N_23
REMARK    9  A    between atoms: N_23  and  C_24
REMARK   10  A    between atoms: N_23  and  C_33
REMARK   11  A    between atoms: C_24  and  C_25
REMARK   12  A    between atoms: C_29  and  C_32
REMARK   13  A    between atoms: C_30  and  O_31
REMARK   14  A    between atoms: C_33  and  C_34
REMARK   15  A    between atoms: C_33  and  C_35
REMARK                            x       y       z     vdW  Elec       q    Type
REMARK                         _______ _______ _______ _____ _____    ______ ____
ROOT
ATOM      1  C   UNL     1      -0.985   2.509  -0.587  0.00  0.00    +0.066 A 
ATOM      2  C   UNL     1      -1.722   2.206   0.561  0.00  0.00    -0.001 A 
ATOM      3  C   UNL     1      -1.917   0.859   0.589  0.00  0.00    +0.126 A 
ATOM      4  N   UNL     1      -1.315   0.337  -0.515  0.00  0.00    -0.218 N 
ATOM      5  N   UNL     1      -0.745   1.396  -1.232  0.00  0.00    -0.169 NA
ENDROOT
BRANCH   3   6
ATOM      6  N   UNL     1      -2.604   0.146   1.567  0.00  0.00    -0.318 N 
ATOM      7  C   UNL     1      -3.889  -0.504   1.266  0.00  0.00    +0.088 C 
ATOM      8  C   UNL     1      -3.820  -1.960   1.739  0.00  0.00    -0.060 C 
ATOM      9  N   UNL     1      -3.440  -1.995   3.157  0.00  0.00    +0.382 N 
ATOM     10  C   UNL     1      -2.083  -1.460   3.325  0.00  0.00    -0.060 C 
ATOM     11  C   UNL     1      -2.064   0.016   2.929  0.00  0.00    +0.088 C 
ATOM     12  H   UNL     1      -4.089  -1.437   3.692  0.00  0.00    -0.082 HD
BRANCH   9  13
ATOM     13  C   UNL     1      -3.481  -3.382   3.639  0.00  0.00    -0.082 C 
ATOM     14  C   UNL     1      -3.208  -3.408   5.144  0.00  0.00    -0.017 C 
ENDBRANCH   9  13
ENDBRANCH   3   6
BRANCH   4  15
ATOM     15  C   UNL     1      -1.276  -1.018  -0.871  0.00  0.00    +0.067 A 
ATOM     16  C   UNL     1      -1.096  -1.990   0.104  0.00  0.00    +0.028 A 
ATOM     17  C   UNL     1      -1.059  -3.324  -0.251  0.00  0.00    +0.002 A 
ATOM     18  C   UNL     1      -1.201  -3.693  -1.576  0.00  0.00    +0.000 A 
ATOM     19  C   UNL     1      -1.381  -2.728  -2.550  0.00  0.00    +0.002 A 
ATOM     20  C   UNL     1      -1.424  -1.392  -2.200  0.00  0.00    +0.028 A 
ENDBRANCH   4  15
BRANCH   1  22
ATOM     21  C   UNL     1      -1.625   4.516  -1.896  0.00  0.00    +0.010 C 
ATOM     22  C   UNL     1      -0.545   3.886  -1.014  0.00  0.00    +0.054 C 
ENDBRANCH   1  22
BRANCH   2  23
ATOM     23  C   UNL     1      -2.214   3.195   1.586  0.00  0.00    -0.037 C 
BRANCH  23  24
ATOM     24  N   UNL     1      -3.150   4.133   0.952  0.00  0.00    +0.387 N 
ATOM     25  H   UNL     1      -2.723   4.530   0.129  0.00  0.00    -0.080 HD
BRANCH  24  26
ATOM     26  C   UNL     1      -4.376   3.418   0.571  0.00  0.00    -0.074 C 
ATOM     27  C   UNL     1      -4.062   2.430  -0.554  0.00  0.00    -0.013 C 
ATOM     28  C   UNL     1      -4.920   2.657   1.782  0.00  0.00    -0.013 C 
ENDBRANCH  24  26
BRANCH  24  29
ATOM     29  C   UNL     1      -3.483   5.207   1.897  0.00  0.00    -0.038 C 
BRANCH  29  30
ATOM     30  C   UNL     1      -4.327   6.244   1.202  0.00  0.00    -0.022 A 
ATOM     31  C   UNL     1      -3.730   7.356   0.638  0.00  0.00    +0.005 A 
ATOM     32  C   UNL     1      -4.504   8.308   0.000  0.00  0.00    +0.001 A 
ATOM     33  C   UNL     1      -5.875   8.150  -0.075  0.00  0.00    +0.007 A 
ATOM     34  C   UNL     1      -6.476   7.041   0.487  0.00  0.00    -0.009 A 
ATOM     35  C   UNL     1      -5.702   6.081   1.123  0.00  0.00    +0.121 A 
ATOM     36  C   UNL     1      -7.971   6.870   0.404  0.00  0.00    +0.047 C 
BRANCH  35  37
ATOM     37  O   UNL     1      -6.290   4.986   1.671  0.00  0.00    -0.506 OA
ATOM     38  H   UNL     1      -6.556   5.103   2.594  0.00  0.00    +0.292 HD
ENDBRANCH  35  37
ENDBRANCH  29  30
ENDBRANCH  24  29
ENDBRANCH  23  24
ENDBRANCH   2  23
TORSDOF 10
