REMARK  Name = ZINC65529467
REMARK  5 active torsions:
REMARK  status: ('A' for Active; 'I' for Inactive)
REMARK    1  A    between atoms: C_1  and  O_2
REMARK    2  A    between atoms: O_2  and  C_3
REMARK    3  A    between atoms: C_7  and  N_9
REMARK    4  A    between atoms: C_12  and  N_15
REMARK    5  A    between atoms: C_23  and  N_27
REMARK                            x       y       z     vdW  Elec       q    Type
REMARK                         _______ _______ _______ _____ _____    ______ ____
ROOT
ATOM      1  N   UNL     1      -0.230  -7.638   3.596  0.00  0.00    +0.384 N 
ATOM      2  C   UNL     1       0.584  -8.399   4.552  0.00  0.00    -0.059 C 
ATOM      3  C   UNL     1      -0.318  -9.349   5.346  0.00  0.00    +0.088 C 
ATOM      4  N   UNL     1      -1.074 -10.179   4.396  0.00  0.00    -0.320 N 
ATOM      5  C   UNL     1      -1.790  -9.504   3.302  0.00  0.00    +0.088 C 
ATOM      6  C   UNL     1      -0.818  -8.547   2.604  0.00  0.00    -0.059 C 
ATOM      7  C   UNL     1      -1.110 -11.563   4.526  0.00  0.00    +0.100 A 
ATOM      8  C   UNL     1      -0.532 -12.163   5.637  0.00  0.00    +0.064 A 
ATOM      9  C   UNL     1      -0.576 -13.549   5.754  0.00  0.00    +0.029 A 
ATOM     10  C   UNL     1      -1.204 -14.280   4.743  0.00  0.00    +0.040 A 
ATOM     11  C   UNL     1      -1.754 -13.612   3.672  0.00  0.00    +0.086 A 
ATOM     12  N   UNL     1      -1.700 -12.295   3.593  0.00  0.00    -0.350 N 
ATOM     13  H   UNL     1      -2.100 -11.851   2.828  0.00  0.00    +0.166 HD
ATOM     14  H   UNL     1      -0.968  -7.160   4.092  0.00  0.00    -0.081 HD
ENDROOT
BRANCH   1  18
ATOM     15  N   UNL     1       1.365  -4.023   2.181  0.00  0.00    -0.330 N 
ATOM     16  C   UNL     1       0.658  -4.843   1.188  0.00  0.00    +0.103 C 
ATOM     17  C   UNL     1      -0.234  -5.848   1.924  0.00  0.00    +0.004 C 
ATOM     18  C   UNL     1       0.616  -6.650   2.912  0.00  0.00    -0.066 C 
ATOM     19  C   UNL     1       1.230  -5.703   3.945  0.00  0.00    +0.004 C 
ATOM     20  C   UNL     1       2.144  -4.697   3.229  0.00  0.00    +0.103 C 
BRANCH  15  25
ATOM     21  C   UNL     1       1.812  -0.484   3.077  0.00  0.00    +0.122 A 
ATOM     22  C   UNL     1       1.175   0.137   2.011  0.00  0.00    +0.046 A 
ATOM     23  C   UNL     1       0.605  -0.623   1.007  0.00  0.00    +0.005 A 
ATOM     24  C   UNL     1       0.667  -2.002   1.061  0.00  0.00    +0.023 A 
ATOM     25  C   UNL     1       1.303  -2.628   2.126  0.00  0.00    +0.033 A 
ATOM     26  C   UNL     1       1.881  -1.867   3.132  0.00  0.00    +0.068 A 
BRANCH  21  28
ATOM     27  C   UNL     1       2.264   1.685   3.941  0.00  0.00    +0.277 C 
ATOM     28  O   UNL     1       2.373   0.265   4.063  0.00  0.00    -0.495 OA
ENDBRANCH  21  28
ENDBRANCH  15  25
ENDBRANCH   1  18
BRANCH   9  29
ATOM     29  N   UNL     1      -0.009 -14.191   6.851  0.00  0.00    -0.358 N 
ATOM     30  H   UNL     1       0.425 -13.671   7.546  0.00  0.00    +0.142 HD
ATOM     31  H   UNL     1      -0.046 -15.157   6.921  0.00  0.00    +0.142 HD
ENDBRANCH   9  29
TORSDOF 4
