REMARK  Name = ZINC40853379
REMARK  8 active torsions:
REMARK  status: ('A' for Active; 'I' for Inactive)
REMARK    1  A    between atoms: C_1  and  C_2
REMARK    2  A    between atoms: C_2  and  C_3
REMARK    3  A    between atoms: C_3  and  C_4
REMARK    4  A    between atoms: C_4  and  C_5
REMARK    5  A    between atoms: C_4  and  C_6
REMARK    6  A    between atoms: C_4  and  N_21
REMARK    7  A    between atoms: N_8  and  C_9
REMARK    8  A    between atoms: C_10  and  C_19
REMARK                            x       y       z     vdW  Elec       q    Type
REMARK                         _______ _______ _______ _____ _____    ______ ____
ROOT
ATOM      1  C   UNL     1       1.382  -2.542   2.512  0.00  0.00    +0.206 C 
ATOM      2  O   UNL     1       2.157  -1.839   3.127  0.00  0.00    -0.277 OA
ATOM      3  N   UNL     1       1.076  -3.771   2.973  0.00  0.00    -0.280 N 
ATOM      4  H   UNL     1       0.456  -4.332   2.482  0.00  0.00    +0.155 HD
ENDROOT
BRANCH   3   5
ATOM      5  C   UNL     1       1.646  -4.232   4.152  0.00  0.00    +0.090 A 
ATOM      6  C   UNL     1       1.455  -5.456   4.767  0.00  0.00    +0.084 A 
ATOM      7  C   UNL     1       2.175  -5.702   6.008  0.00  0.00    -0.018 A 
ATOM      8  C   UNL     1       2.950  -4.670   6.404  0.00  0.00    -0.004 A 
ATOM      9  S   UNL     1       2.733  -3.436   5.153  0.00  0.00    -0.077 S 
ATOM     10  C   UNL     1       3.800  -4.585   7.634  0.00  0.00    +0.043 C 
ATOM     11  C   UNL     1       4.653  -5.855   7.745  0.00  0.00    +0.005 C 
ATOM     12  C   UNL     1       3.869  -6.900   8.534  0.00  0.00    +0.001 C 
ATOM     13  C   UNL     1       2.374  -6.757   8.258  0.00  0.00    +0.005 C 
ATOM     14  C   UNL     1       2.076  -7.008   6.783  0.00  0.00    +0.037 C 
BRANCH   6  15
ATOM     15  C   UNL     1       0.582  -6.442   4.205  0.00  0.00    +0.102 C 
ATOM     16  N   UNL     1      -0.110  -7.225   3.760  0.00  0.00    -0.191 NA
ENDBRANCH   6  15
ENDBRANCH   3   5
BRANCH   1  17
ATOM     17  C   UNL     1       0.763  -2.041   1.233  0.00  0.00    +0.005 C 
ATOM     18  C   UNL     1       1.586  -2.533   0.041  0.00  0.00    -0.001 C 
BRANCH  17  19
ATOM     19  N   UNL     1      -0.611  -2.549   1.123  0.00  0.00    +0.387 N 
ATOM     20  H   UNL     1      -1.026  -2.213   0.266  0.00  0.00    -0.089 HD
ATOM     21  H   UNL     1      -0.598  -3.557   1.117  0.00  0.00    -0.089 HD
ATOM     22  H   UNL     1      -1.154  -2.224   1.909  0.00  0.00    -0.089 HD
ENDBRANCH  17  19
BRANCH  17  23
ATOM     23  C   UNL     1       0.742  -0.511   1.242  0.00  0.00    -0.004 C 
BRANCH  23  25
ATOM     24  C   UNL     1      -0.019   1.526   0.010  0.00  0.00    +0.004 C 
ATOM     25  C   UNL     1       0.002  -0.004   0.002  0.00  0.00    -0.004 C 
ENDBRANCH  23  25
ENDBRANCH  17  23
ENDBRANCH   1  17
TORSDOF 6
