REMARK  Name = ZINC34974182
REMARK  10 active torsions:
REMARK  status: ('A' for Active; 'I' for Inactive)
REMARK    1  A    between atoms: C_5  and  C_7
REMARK    2  A    between atoms: C_7  and  N_8
REMARK    3  A    between atoms: N_8  and  C_9
REMARK    4  A    between atoms: C_9  and  C_10
REMARK    5  A    between atoms: C_10  and  C_11
REMARK    6  A    between atoms: C_11  and  C_12
REMARK    7  A    between atoms: C_12  and  C_13
REMARK    8  A    between atoms: C_13  and  C_14
REMARK    9  A    between atoms: C_14  and  N_15
REMARK   10  A    between atoms: N_24  and  C_25
REMARK                            x       y       z     vdW  Elec       q    Type
REMARK                         _______ _______ _______ _____ _____    ______ ____
ROOT
ATOM      1  N   UNL     1       1.412  -2.430   1.493  0.00  0.00    -0.281 N 
ATOM      2  C   UNL     1       2.679  -2.609   1.917  0.00  0.00    +0.307 C 
ATOM      3  O   UNL     1       2.918  -2.680   3.107  0.00  0.00    -0.252 OA
ATOM      4  N   UNL     1       3.682  -2.708   1.021  0.00  0.00    -0.268 N 
ATOM      5  H   UNL     1       3.503  -2.576   0.077  0.00  0.00    +0.156 HD
ENDROOT
BRANCH   4   6
ATOM      6  C   UNL     1       4.981  -3.002   1.454  0.00  0.00    +0.053 A 
ATOM      7  C   UNL     1       5.184  -3.589   2.695  0.00  0.00    +0.026 A 
ATOM      8  C   UNL     1       6.467  -3.878   3.120  0.00  0.00    +0.022 A 
ATOM      9  C   UNL     1       7.549  -3.582   2.309  0.00  0.00    +0.042 A 
ATOM     10  C   UNL     1       7.350  -2.997   1.071  0.00  0.00    +0.041 A 
ATOM     11  C   UNL     1       6.068  -2.712   0.639  0.00  0.00    +0.064 A 
ATOM     12 CL   UNL     1       5.818  -1.985  -0.918  0.00  0.00    -0.082 Cl
ATOM     13 CL   UNL     1       9.159  -3.947   2.846  0.00  0.00    -0.083 Cl
ENDBRANCH   4   6
BRANCH   1  14
ATOM     14  C   UNL     1       1.137  -2.239   0.067  0.00  0.00    +0.147 C 
BRANCH  14  19
ATOM     15  C   UNL     1       1.559  -5.480  -1.823  0.00  0.00    +0.000 A 
ATOM     16  C   UNL     1       0.288  -6.018  -1.739  0.00  0.00    +0.003 A 
ATOM     17  C   UNL     1      -0.709  -5.334  -1.071  0.00  0.00    +0.038 A 
ATOM     18  C   UNL     1      -0.436  -4.109  -0.485  0.00  0.00    +0.128 A 
ATOM     19  C   UNL     1       0.838  -3.572  -0.570  0.00  0.00    +0.005 A 
ATOM     20  C   UNL     1       1.834  -4.258  -1.238  0.00  0.00    +0.008 A 
ATOM     21  F   UNL     1      -1.410  -3.439   0.168  0.00  0.00    -0.205 F 
ENDBRANCH  14  19
ENDBRANCH   1  14
BRANCH   1  22
ATOM     22  C   UNL     1       0.311  -2.427   2.459  0.00  0.00    +0.110 C 
BRANCH  22  23
ATOM     23  C   UNL     1      -0.124  -3.867   2.740  0.00  0.00    +0.019 C 
BRANCH  23  24
ATOM     24  C   UNL     1      -1.358  -3.859   3.646  0.00  0.00    +0.002 C 
BRANCH  24  25
ATOM     25  C   UNL     1      -1.793  -5.298   3.928  0.00  0.00    +0.002 C 
BRANCH  25  26
ATOM     26  C   UNL     1      -3.026  -5.290   4.833  0.00  0.00    +0.019 C 
BRANCH  26  27
ATOM     27  C   UNL     1      -3.462  -6.730   5.115  0.00  0.00    +0.103 C 
BRANCH  27  28
ATOM     28  N   UNL     1      -4.642  -6.722   5.982  0.00  0.00    -0.331 N 
ATOM     29  C   UNL     1      -5.223  -7.922   6.376  0.00  0.00    +0.096 A 
ATOM     30  C   UNL     1      -4.674  -9.127   5.949  0.00  0.00    +0.041 A 
ATOM     31  C   UNL     1      -5.261 -10.313   6.348  0.00  0.00    +0.005 A 
ATOM     32  C   UNL     1      -6.383 -10.255   7.166  0.00  0.00    +0.018 A 
ATOM     33  C   UNL     1      -6.874  -9.025   7.553  0.00  0.00    +0.084 A 
ATOM     34  N   UNL     1      -6.290  -7.909   7.160  0.00  0.00    -0.350 N 
ATOM     35  H   UNL     1      -5.019  -5.880   6.281  0.00  0.00    +0.147 HD
ATOM     36  H   UNL     1      -6.653  -7.057   7.450  0.00  0.00    +0.166 HD
ENDBRANCH  27  28
ENDBRANCH  26  27
ENDBRANCH  25  26
ENDBRANCH  24  25
ENDBRANCH  23  24
ENDBRANCH  22  23
ENDBRANCH   1  22
TORSDOF 10
