REMARK  Name = ZINC10750552
REMARK  8 active torsions:
REMARK  status: ('A' for Active; 'I' for Inactive)
REMARK    1  A    between atoms: C_1  and  C_2
REMARK    2  A    between atoms: C_2  and  O_3
REMARK    3  A    between atoms: O_3  and  C_4
REMARK    4  A    between atoms: C_11  and  C_13
REMARK    5  A    between atoms: C_19  and  C_21
REMARK    6  A    between atoms: C_21  and  C_22
REMARK    7  A    between atoms: C_22  and  S_23
REMARK    8  A    between atoms: S_23  and  C_24
REMARK                            x       y       z     vdW  Elec       q    Type
REMARK                         _______ _______ _______ _____ _____    ______ ____
ROOT
ATOM      1  C   UNL     1       8.072   9.217  -0.026  0.00  0.00    +0.115 A 
ATOM      2  C   UNL     1       8.873   8.107  -0.040  0.00  0.00    +0.080 A 
ATOM      3  S   UNL     1       7.644   6.809  -0.027  0.00  0.00    -0.060 S 
ATOM      4  C   UNL     1       6.201   7.863  -0.016  0.00  0.00    +0.165 A 
ATOM      5  N   UNL     1       6.749   9.063  -0.015  0.00  0.00    -0.221 NA
ATOM      6  N   UNL     1       4.857   7.512  -0.005  0.00  0.00    -0.265 N 
ATOM      7  C   UNL     1       4.500   6.212  -0.008  0.00  0.00    +0.219 C 
ATOM      8  O   UNL     1       5.352   5.350  -0.021  0.00  0.00    -0.275 OA
ATOM      9  H   UNL     1       4.175   8.202   0.005  0.00  0.00    +0.157 HD
ENDROOT
BRANCH   1  17
ATOM     10  C   UNL     1      11.371  12.937  -0.039  0.00  0.00    +0.163 A 
ATOM     11  C   UNL     1      11.280  14.318  -0.032  0.00  0.00    +0.049 A 
ATOM     12  C   UNL     1      10.043  14.945  -0.017  0.00  0.00    +0.004 A 
ATOM     13  C   UNL     1       8.885  14.199  -0.009  0.00  0.00    +0.012 A 
ATOM     14  C   UNL     1       8.961  12.805  -0.017  0.00  0.00    +0.024 A 
ATOM     15  C   UNL     1      10.211  12.165  -0.032  0.00  0.00    +0.177 A 
ATOM     16  O   UNL     1       9.988  10.834  -0.036  0.00  0.00    -0.450 OA
ATOM     17  C   UNL     1       8.667  10.569  -0.025  0.00  0.00    +0.155 A 
ATOM     18  C   UNL     1       7.966  11.729  -0.018  0.00  0.00    +0.060 A 
BRANCH  10  19
ATOM     19  O   UNL     1      12.589  12.335  -0.053  0.00  0.00    -0.489 OA
BRANCH  19  21
ATOM     20  C   UNL     1      15.006  12.338  -0.075  0.00  0.00    +0.048 C 
ATOM     21  C   UNL     1      13.735  13.189  -0.060  0.00  0.00    +0.226 C 
ENDBRANCH  19  21
ENDBRANCH  10  19
ENDBRANCH   1  17
BRANCH   7  22
ATOM     22  C   UNL     1       3.042   5.831   0.004  0.00  0.00    +0.107 C 
BRANCH  22  23
ATOM     23  C   UNL     1       2.913   4.307  -0.003  0.00  0.00    +0.083 C 
BRANCH  23  24
ATOM     24  S   UNL     1       1.158   3.848   0.011  0.00  0.00    -0.125 S 
BRANCH  24  25
ATOM     25  C   UNL     1       1.178   2.086   0.002  0.00  0.00    +0.008 A 
ATOM     26  C   UNL     1      -0.017   1.377   0.010  0.00  0.00    +0.016 A 
ATOM     27  C   UNL     1       0.002  -0.004   0.002  0.00  0.00    +0.021 A 
ATOM     28  C   UNL     1       1.209  -0.681  -0.013  0.00  0.00    +0.041 A 
ATOM     29  C   UNL     1       2.401   0.023  -0.020  0.00  0.00    +0.021 A 
ATOM     30  C   UNL     1       2.388   1.404  -0.013  0.00  0.00    +0.016 A 
ATOM     31 CL   UNL     1       1.228  -2.417  -0.021  0.00  0.00    -0.084 Cl
ENDBRANCH  24  25
ENDBRANCH  23  24
ENDBRANCH  22  23
ENDBRANCH   7  22
TORSDOF 7
