REMARK  Name = ZINC01742820
REMARK  5 active torsions:
REMARK  status: ('A' for Active; 'I' for Inactive)
REMARK    1  A    between atoms: C_1  and  C_2
REMARK    2  A    between atoms: C_7  and  N_57
REMARK    3  A    between atoms: C_22  and  C_24
REMARK    4  A    between atoms: N_26  and  C_27
REMARK    5  A    between atoms: C_27  and  C_28
REMARK                            x       y       z     vdW  Elec       q    Type
REMARK                         _______ _______ _______ _____ _____    ______ ____
ROOT
ATOM      1  C   UNL     1       1.452   2.334   7.137  0.00  0.00    -0.039 C 
ATOM      2  C   UNL     1       2.440   3.057   8.001  0.00  0.00    -0.040 A 
ATOM      3  C   UNL     1       2.500   4.436   8.032  0.00  0.00    +0.004 A 
ATOM      4  C   UNL     1       3.387   5.068   8.884  0.00  0.00    +0.000 A 
ATOM      5  C   UNL     1       4.213   4.329   9.711  0.00  0.00    +0.002 A 
ATOM      6  C   UNL     1       4.174   2.946   9.670  0.00  0.00    +0.026 A 
ATOM      7  C   UNL     1       3.308   2.317   8.799  0.00  0.00    +0.048 A 
ATOM      8  N   UNL     1       3.324   0.925   8.603  0.00  0.00    -0.321 N 
ATOM      9  C   UNL     1       3.328  -0.086   9.502  0.00  0.00    +0.091 A 
ATOM     10  C   UNL     1       3.337  -1.251   8.815  0.00  0.00    +0.020 A 
ATOM     11  C   UNL     1       3.341  -0.932   7.439  0.00  0.00    +0.022 A 
ATOM     12  C   UNL     1       3.336   0.407   7.336  0.00  0.00    +0.019 A 
ATOM     13  C   UNL     1       3.347   1.249   6.092  0.00  0.00    +0.068 C 
ATOM     14  N   UNL     1       2.026   1.874   5.854  0.00  0.00    +0.396 N 
ATOM     15  H   UNL     1       2.145   2.682   5.232  0.00  0.00    -0.079 HD
ENDROOT
BRANCH  14  22
ATOM     16  C   UNL     1      -3.584  -0.833   5.418  0.00  0.00    +0.109 C 
ATOM     17  C   UNL     1      -2.225  -1.464   5.575  0.00  0.00    +0.212 C 
ATOM     18  O   UNL     1      -2.118  -2.550   6.103  0.00  0.00    -0.276 OA
ATOM     19  N   UNL     1      -1.127  -0.822   5.127  0.00  0.00    -0.302 N 
ATOM     20  C   UNL     1      -1.241   0.491   4.479  0.00  0.00    +0.106 C 
ATOM     21  C   UNL     1      -0.304   1.474   5.198  0.00  0.00    +0.004 C 
ATOM     22  C   UNL     1       1.115   0.900   5.210  0.00  0.00    -0.064 C 
ATOM     23  C   UNL     1       1.125  -0.424   5.978  0.00  0.00    +0.004 C 
ATOM     24  C   UNL     1       0.204  -1.425   5.273  0.00  0.00    +0.106 C 
ENDBRANCH  14  22
BRANCH  13  25
ATOM     25  C   UNL     1       3.711   0.387   4.911  0.00  0.00    +0.205 C 
ATOM     26  O   UNL     1       3.187   0.581   3.834  0.00  0.00    -0.277 OA
ATOM     27  N   UNL     1       4.617  -0.601   5.051  0.00  0.00    -0.313 N 
ATOM     28  H   UNL     1       5.036  -0.756   5.912  0.00  0.00    +0.149 HD
BRANCH  27  29
ATOM     29  C   UNL     1       4.970  -1.439   3.902  0.00  0.00    +0.131 C 
BRANCH  29  30
ATOM     30  C   UNL     1       5.997  -2.459   4.322  0.00  0.00    -0.016 C 
ATOM     31  C   UNL     1       5.773  -3.734   4.122  0.00  0.00    +0.005 C 
ENDBRANCH  29  30
ENDBRANCH  27  29
ENDBRANCH  13  25
TORSDOF 4
