REMARK  Name = ZINC09542393
REMARK  7 active torsions:
REMARK  status: ('A' for Active; 'I' for Inactive)
REMARK    1  A    between atoms: C_1  and  C_2
REMARK    2  A    between atoms: C_2  and  O_3
REMARK    3  A    between atoms: O_3  and  C_4
REMARK    4  A    between atoms: C_8  and  C_11
REMARK    5  A    between atoms: C_9  and  O_10
REMARK    6  A    between atoms: C_14  and  C_25
REMARK    7  A    between atoms: C_16  and  C_18
REMARK                            x       y       z     vdW  Elec       q    Type
REMARK                         _______ _______ _______ _____ _____    ______ ____
ROOT
ATOM      1  C   UNL     1      -0.730   1.580   1.268  0.00  0.00    -0.028 C 
ATOM      2  C   UNL     1      -0.013   1.086   0.008  0.00  0.00    +0.044 C 
ATOM      3  C   UNL     1      -0.740   1.584  -1.210  0.00  0.00    +0.040 C 
ATOM      4  N   UNL     1      -1.603   2.528  -1.172  0.00  0.00    -0.299 NA
ATOM      5  C   UNL     1      -1.996   3.228   0.045  0.00  0.00    +0.081 C 
ATOM      6  N   UNL     1      -1.002   3.022   1.110  0.00  0.00    +0.401 N 
ATOM      7  H   UNL     1      -0.133   3.508   0.863  0.00  0.00    -0.081 HD
ATOM      8  H   UNL     1      -1.367   3.398   1.993  0.00  0.00    -0.081 HD
ENDROOT
BRANCH   5   9
ATOM      9  C   UNL     1      -2.107   4.703  -0.245  0.00  0.00    -0.040 A 
ATOM     10  C   UNL     1      -1.856   5.625   0.755  0.00  0.00    +0.005 A 
ATOM     11  C   UNL     1      -1.954   6.977   0.488  0.00  0.00    +0.015 A 
ATOM     12  C   UNL     1      -2.312   7.409  -0.776  0.00  0.00    +0.018 A 
ATOM     13  C   UNL     1      -2.568   6.486  -1.775  0.00  0.00    +0.015 A 
ATOM     14  C   UNL     1      -2.465   5.134  -1.509  0.00  0.00    +0.005 A 
ATOM     15 BR   UNL     1      -2.452   9.259  -1.140  0.00  0.00    -0.050 Br
ENDBRANCH   5   9
BRANCH   3  16
ATOM     16  C   UNL     1      -0.445   0.954  -2.511  0.00  0.00    -0.004 A 
ATOM     17  C   UNL     1       0.494  -0.077  -2.595  0.00  0.00    +0.011 A 
ATOM     18  C   UNL     1       0.762  -0.664  -3.813  0.00  0.00    +0.020 A 
ATOM     19  C   UNL     1       0.110  -0.229  -4.954  0.00  0.00    +0.041 A 
ATOM     20  C   UNL     1      -0.820   0.796  -4.879  0.00  0.00    +0.020 A 
ATOM     21  C   UNL     1      -1.100   1.389  -3.666  0.00  0.00    +0.011 A 
ATOM     22 CL   UNL     1       0.458  -0.969  -6.485  0.00  0.00    -0.084 Cl
ENDBRANCH   3  16
BRANCH   1  27
ATOM     23  C   UNL     1       1.043  -0.090   4.166  0.00  0.00    +0.162 A 
ATOM     24  C   UNL     1       1.771   0.969   4.686  0.00  0.00    +0.049 A 
ATOM     25  C   UNL     1       1.687   2.218   4.100  0.00  0.00    +0.004 A 
ATOM     26  C   UNL     1       0.883   2.413   2.992  0.00  0.00    +0.006 A 
ATOM     27  C   UNL     1       0.150   1.362   2.472  0.00  0.00    -0.016 A 
ATOM     28  C   UNL     1       0.230   0.108   3.055  0.00  0.00    +0.160 A 
BRANCH  28  29
ATOM     29  O   UNL     1      -0.485  -0.929   2.541  0.00  0.00    -0.503 OA
ATOM     30  H   UNL     1      -0.016  -1.432   1.862  0.00  0.00    +0.292 HD
ENDBRANCH  28  29
BRANCH  23  31
ATOM     31  O   UNL     1       1.124  -1.319   4.742  0.00  0.00    -0.489 OA
BRANCH  31  33
ATOM     32  C   UNL     1       1.941  -2.891   6.386  0.00  0.00    +0.048 C 
ATOM     33  C   UNL     1       1.979  -1.448   5.880  0.00  0.00    +0.226 C 
ENDBRANCH  31  33
ENDBRANCH  23  31
ENDBRANCH   1  27
TORSDOF 6
