REMARK  Name = ZINC39775236
REMARK  7 active torsions:
REMARK  status: ('A' for Active; 'I' for Inactive)
REMARK    1  A    between atoms: C_1  and  C_2
REMARK    2  A    between atoms: C_2  and  C_3
REMARK    3  A    between atoms: N_5  and  C_6
REMARK    4  A    between atoms: C_10  and  C_13
REMARK    5  A    between atoms: C_13  and  C_14
REMARK    6  A    between atoms: N_16  and  N_17
REMARK    7  A    between atoms: C_18  and  C_19
REMARK                            x       y       z     vdW  Elec       q    Type
REMARK                         _______ _______ _______ _____ _____    ______ ____
ROOT
ATOM      1  C   UNL     1       6.130  -3.248   3.803  0.00  0.00    +0.235 C 
ATOM      2  O   UNL     1       6.296  -3.081   2.613  0.00  0.00    -0.274 OA
ATOM      3  N   UNL     1       7.145  -3.030   4.662  0.00  0.00    -0.207 N 
ATOM      4  H   UNL     1       7.012  -3.163   5.614  0.00  0.00    +0.177 HD
ENDROOT
BRANCH   3   5
ATOM      5  N   UNL     1       8.392  -2.609   4.181  0.00  0.00    -0.188 NA
ATOM      6  C   UNL     1       9.377  -2.396   5.016  0.00  0.00    +0.136 C 
BRANCH   6   7
ATOM      7  C   UNL     1      10.625  -1.975   4.535  0.00  0.00    +0.000 C 
ATOM      8  C   UNL     1      11.771  -1.711   5.282  0.00  0.00    +0.004 A 
ATOM      9  C   UNL     1      12.042  -1.774   6.667  0.00  0.00    +0.010 A 
ATOM     10  C   UNL     1      13.278  -1.453   7.126  0.00  0.00    +0.001 A 
ATOM     11  C   UNL     1      14.302  -1.059   6.259  0.00  0.00    +0.002 A 
ATOM     12  C   UNL     1      14.113  -0.976   4.920  0.00  0.00    +0.026 A 
ATOM     13  C   UNL     1      12.846  -1.296   4.364  0.00  0.00    +0.043 A 
ATOM     14  N   UNL     1      12.415  -1.295   3.121  0.00  0.00    -0.380 N 
ATOM     15  C   UNL     1      11.011  -1.717   3.095  0.00  0.00    +0.150 C 
ATOM     16  H   UNL     1      12.944  -1.057   2.343  0.00  0.00    +0.160 HD
ENDBRANCH   6   7
ENDBRANCH   3   5
BRANCH   1  17
ATOM     17  C   UNL     1       4.789  -3.701   4.320  0.00  0.00    +0.128 C 
BRANCH  17  21
ATOM     18  C   UNL     1       1.583  -2.313   2.615  0.00  0.00    +0.216 C 
ATOM     19  N   UNL     1       1.409  -3.789   2.789  0.00  0.00    -0.227 NA
ATOM     20  N   UNL     1       2.483  -4.323   3.619  0.00  0.00    -0.241 NA
ATOM     21  C   UNL     1       3.822  -3.875   3.147  0.00  0.00    +0.138 C 
ATOM     22  S   UNL     1       3.412  -2.249   2.380  0.00  0.00    -0.101 S 
ATOM     23  H   UNL     1       1.376  -4.258   1.896  0.00  0.00    +0.143 HD
ATOM     24  H   UNL     1       2.435  -5.330   3.669  0.00  0.00    +0.142 HD
BRANCH  18  27
ATOM     25  C   UNL     1       0.731  -0.503   1.223  0.00  0.00    +0.215 C 
ATOM     26  O   UNL     1       1.189   0.287   2.021  0.00  0.00    -0.276 OA
ATOM     27  N   UNL     1       0.874  -1.828   1.428  0.00  0.00    -0.290 N 
ATOM     28  H   UNL     1       0.508  -2.459   0.789  0.00  0.00    +0.151 HD
BRANCH  25  30
ATOM     29  C   UNL     1      -0.019   1.526   0.010  0.00  0.00    +0.013 C 
ATOM     30  C   UNL     1       0.002  -0.004   0.002  0.00  0.00    +0.092 C 
ENDBRANCH  25  30
ENDBRANCH  18  27
ENDBRANCH  17  21
ENDBRANCH   1  17
TORSDOF 6
