REMARK  Name = ZINC59094700
REMARK  13 active torsions:
REMARK  status: ('A' for Active; 'I' for Inactive)
REMARK    1  A    between atoms: C_1  and  C_2
REMARK    2  A    between atoms: C_5  and  C_7
REMARK    3  A    between atoms: C_7  and  N_8
REMARK    4  A    between atoms: N_8  and  C_9
REMARK    5  A    between atoms: N_8  and  C_19
REMARK    6  A    between atoms: C_11  and  C_17
REMARK    7  A    between atoms: C_11  and  C_18
REMARK    8  A    between atoms: C_13  and  C_15
REMARK    9  A    between atoms: C_13  and  C_16
REMARK   10  A    between atoms: C_19  and  N_21
REMARK   11  A    between atoms: N_21  and  C_22
REMARK   12  A    between atoms: C_25  and  C_28
REMARK   13  A    between atoms: C_28  and  C_30
REMARK                            x       y       z     vdW  Elec       q    Type
REMARK                         _______ _______ _______ _____ _____    ______ ____
ROOT
ATOM      1  N   UNL     1       1.859  -3.628  -1.397  0.00  0.00    -0.302 N 
ENDROOT
BRANCH   1   2
ATOM      2  C   UNL     1       3.011  -3.024  -2.078  0.00  0.00    +0.073 C 
ATOM      3  C   UNL     1       4.269  -3.256  -1.239  0.00  0.00    +0.009 C 
ATOM      4  C   UNL     1       5.477  -2.622  -1.929  0.00  0.00    -0.072 C 
ATOM      5  N   UNL     1       5.259  -1.216  -2.232  0.00  0.00    +0.386 N 
ATOM      6  C   UNL     1       3.996  -0.845  -2.850  0.00  0.00    -0.072 C 
ATOM      7  C   UNL     1       2.790  -1.517  -2.203  0.00  0.00    +0.009 C 
ATOM      8  C   UNL     1       3.821   0.682  -2.669  0.00  0.00    -0.010 C 
ATOM      9  C   UNL     1       4.001  -1.118  -4.356  0.00  0.00    -0.010 C 
ATOM     10  C   UNL     1       5.857  -3.426  -3.172  0.00  0.00    -0.010 C 
ATOM     11  C   UNL     1       6.666  -2.710  -0.945  0.00  0.00    -0.010 C 
ATOM     12  H   UNL     1       5.362  -0.682  -1.365  0.00  0.00    -0.084 HD
ATOM     13  H   UNL     1       6.020  -0.895  -2.836  0.00  0.00    -0.084 HD
ENDBRANCH   1   2
BRANCH   1  14
ATOM     14  C   UNL     1       1.067  -4.498  -2.054  0.00  0.00    +0.138 C 
ATOM     15  S   UNL     1      -0.348  -5.103  -1.305  0.00  0.00    -0.018 S 
BRANCH  14  16
ATOM     16  N   UNL     1       1.390  -4.892  -3.302  0.00  0.00    -0.297 N 
ATOM     17  H   UNL     1       0.941  -4.498  -4.066  0.00  0.00    +0.154 HD
BRANCH  16  18
ATOM     18  C   UNL     1       2.368  -5.865  -3.494  0.00  0.00    +0.033 A 
ATOM     19  C   UNL     1       2.931  -6.509  -2.396  0.00  0.00    +0.024 A 
ATOM     20  C   UNL     1       3.890  -7.464  -2.579  0.00  0.00    +0.013 A 
ATOM     21  C   UNL     1       4.307  -7.795  -3.875  0.00  0.00    +0.017 A 
ATOM     22  C   UNL     1       3.737  -7.144  -4.977  0.00  0.00    +0.013 A 
ATOM     23  C   UNL     1       2.775  -6.194  -4.784  0.00  0.00    +0.024 A 
BRANCH  21  24
ATOM     24  C   UNL     1       5.338  -8.820  -4.078  0.00  0.00    +0.160 C 
ATOM     25  O   UNL     1       5.763  -9.448  -3.131  0.00  0.00    -0.292 OA
ATOM     26  C   UNL     1       5.869  -9.092  -5.462  0.00  0.00    +0.091 C 
ENDBRANCH  21  24
ENDBRANCH  16  18
ENDBRANCH  14  16
ENDBRANCH   1  14
BRANCH   1  27
ATOM     27  C   UNL     1       1.571  -3.285  -0.002  0.00  0.00    +0.181 C 
BRANCH  27  32
ATOM     28  C   UNL     1      -0.043   1.491   0.161  0.00  0.00    +0.086 C 
ATOM     29  C   UNL     1      -0.051  -0.015   0.113  0.00  0.00    +0.102 A 
ATOM     30  C   UNL     1      -1.146  -0.796   0.095  0.00  0.00    +0.045 A 
ATOM     31  C   UNL     1      -0.694  -2.135   0.049  0.00  0.00    +0.046 A 
ATOM     32  C   UNL     1       0.651  -2.092   0.042  0.00  0.00    +0.122 A 
ATOM     33  O   UNL     1       1.035  -0.805   0.074  0.00  0.00    -0.463 OA
ENDBRANCH  27  32
ENDBRANCH   1  27
TORSDOF 7
