REMARK  Name = ZINC13809963
REMARK  9 active torsions:
REMARK  status: ('A' for Active; 'I' for Inactive)
REMARK    1  A    between atoms: C_1  and  C_2
REMARK    2  A    between atoms: C_2  and  S_3
REMARK    3  A    between atoms: S_3  and  C_4
REMARK    4  A    between atoms: C_4  and  S_27
REMARK    5  A    between atoms: C_5  and  C_25
REMARK    6  A    between atoms: C_12  and  C_19
REMARK    7  A    between atoms: C_14  and  C_17
REMARK    8  A    between atoms: S_27  and  C_28
REMARK    9  A    between atoms: C_28  and  C_29
REMARK                            x       y       z     vdW  Elec       q    Type
REMARK                         _______ _______ _______ _____ _____    ______ ____
ROOT
ATOM      1  C   UNL     1       0.118   0.856   2.797  0.00  0.00    +0.157 C 
ATOM      2  C   UNL     1      -0.680   1.253   4.042  0.00  0.00    +0.148 C 
ATOM      3  C   UNL     1      -2.144   1.526   3.877  0.00  0.00    -0.029 C 
ATOM      4  C   UNL     1      -2.679   2.442   4.666  0.00  0.00    -0.011 C 
ATOM      5  C   UNL     1      -4.159   2.740   4.660  0.00  0.00    +0.049 C 
ATOM      6  C   UNL     1      -4.814   2.252   3.372  0.00  0.00    +0.006 C 
ATOM      7  C   UNL     1      -4.421   0.783   3.165  0.00  0.00    +0.005 C 
ATOM      8  C   UNL     1      -2.926   0.736   2.865  0.00  0.00    +0.034 C 
ATOM      9  C   UNL     1      -0.446   3.056   5.660  0.00  0.00    +0.113 C 
ATOM     10  C   UNL     1      -0.007   2.643   4.274  0.00  0.00    +0.156 C 
ATOM     11  C   UNL     1       1.423   2.340   3.990  0.00  0.00    +0.092 C 
ATOM     12  N   UNL     1       2.500   2.995   4.528  0.00  0.00    -0.347 N 
ATOM     13  H   UNL     1       3.400   2.729   4.284  0.00  0.00    +0.143 HD
ATOM     14  H   UNL     1       2.362   3.725   5.152  0.00  0.00    +0.143 HD
ATOM     15  N   UNL     1      -1.956   3.252   5.622  0.00  0.00    -0.401 NA
ATOM     16  H   UNL     1      -2.326   3.037   6.555  0.00  0.00    +0.124 HD
ATOM     17  H   UNL     1      -2.141   4.237   5.399  0.00  0.00    +0.124 HD
ATOM     18  N   UNL     1       1.490   1.341   3.137  0.00  0.00    -0.351 N 
ATOM     19  H   UNL     1       2.360   0.949   2.759  0.00  0.00    +0.163 HD
ENDROOT
BRANCH   9  20
ATOM     20  C   UNL     1       0.181   4.373   6.038  0.00  0.00    -0.027 A 
ATOM     21  C   UNL     1      -0.354   5.555   5.560  0.00  0.00    +0.005 A 
ATOM     22  C   UNL     1       0.219   6.764   5.910  0.00  0.00    +0.000 A 
ATOM     23  C   UNL     1       1.332   6.790   6.730  0.00  0.00    +0.000 A 
ATOM     24  C   UNL     1       1.870   5.608   7.203  0.00  0.00    +0.000 A 
ATOM     25  C   UNL     1       1.294   4.399   6.857  0.00  0.00    +0.005 A 
ENDBRANCH   9  20
BRANCH  10  26
ATOM     26  C   UNL     1      -0.514   3.609   3.286  0.00  0.00    +0.081 C 
ATOM     27  N   UNL     1      -0.905   4.354   2.523  0.00  0.00    -0.195 NA
ENDBRANCH  10  26
BRANCH   2  28
ATOM     28  C   UNL     1      -0.412   0.333   5.159  0.00  0.00    +0.080 C 
ATOM     29  N   UNL     1      -0.205  -0.377   6.021  0.00  0.00    -0.195 NA
ENDBRANCH   2  28
BRANCH   1  30
ATOM     30  S   UNL     1      -0.520   1.696   1.321  0.00  0.00    -0.121 S 
BRANCH  30  32
ATOM     31  C   UNL     1       0.581   2.886  -0.882  0.00  0.00    +0.015 C 
ATOM     32  C   UNL     1       0.972   2.264   0.460  0.00  0.00    +0.069 C 
ENDBRANCH  30  32
ENDBRANCH   1  30
BRANCH   1  33
ATOM     33  S   UNL     1       0.112  -0.944   2.568  0.00  0.00    -0.121 S 
BRANCH  33  34
ATOM     34  C   UNL     1       0.968  -1.188   0.988  0.00  0.00    +0.069 C 
ATOM     35  C   UNL     1       1.148  -2.686   0.731  0.00  0.00    +0.015 C 
ENDBRANCH  33  34
ENDBRANCH   1  33
TORSDOF 7
