REMARK  Name = ZINC54947089
REMARK  8 active torsions:
REMARK  status: ('A' for Active; 'I' for Inactive)
REMARK    1  A    between atoms: C_1  and  C_2
REMARK    2  A    between atoms: C_5  and  C_25
REMARK    3  A    between atoms: N_8  and  C_10
REMARK    4  A    between atoms: C_10  and  C_11
REMARK    5  A    between atoms: C_10  and  C_12
REMARK    6  A    between atoms: C_10  and  C_13
REMARK    7  A    between atoms: C_13  and  N_14
REMARK    8  A    between atoms: C_15  and  C_17
REMARK                            x       y       z     vdW  Elec       q    Type
REMARK                         _______ _______ _______ _____ _____    ______ ____
ROOT
ATOM      1  C   UNL     1       2.136   0.221   3.668  0.00  0.00    +0.092 C 
ENDROOT
BRANCH   1   2
ATOM      2  N   UNL     1       2.001   1.661   3.436  0.00  0.00    -0.309 N 
ATOM      3  C   UNL     1       1.527   2.460   4.412  0.00  0.00    +0.299 C 
ATOM      4  O   UNL     1       1.212   1.986   5.484  0.00  0.00    -0.265 OA
ATOM      5  H   UNL     1       2.253   2.039   2.579  0.00  0.00    +0.149 HD
BRANCH   3   6
ATOM      6  C   UNL     1       1.390   3.928   4.175  0.00  0.00    +0.305 C 
ATOM      7  O   UNL     1       1.705   4.401   3.103  0.00  0.00    -0.265 OA
ATOM      8  N   UNL     1       0.915   4.726   5.152  0.00  0.00    -0.255 N 
ATOM      9  C   UNL     1       0.788   6.091   4.931  0.00  0.00    +0.188 A 
ATOM     10  N   UNL     1       1.062   6.810   3.851  0.00  0.00    -0.126 NA
ATOM     11  N   UNL     1       0.885   8.059   3.821  0.00  0.00    -0.148 NA
ATOM     12  C   UNL     1       0.416   8.727   4.857  0.00  0.00    +0.183 A 
ATOM     13  S   UNL     1       0.198   7.384   6.021  0.00  0.00    -0.039 S 
ATOM     14  H   UNL     1       0.663   4.348   6.008  0.00  0.00    +0.157 HD
ENDBRANCH   3   6
ENDBRANCH   1   2
BRANCH   1  15
ATOM     15  C   UNL     1       2.570  -0.467   2.372  0.00  0.00    -0.055 C 
ATOM     16  C   UNL     1       2.628  -1.980   2.592  0.00  0.00    -0.008 C 
ATOM     17  C   UNL     1       3.953   0.043   1.963  0.00  0.00    -0.008 C 
BRANCH  15  23
ATOM     18  C   UNL     1      -0.773   1.282   0.483  0.00  0.00    +0.005 C 
ATOM     19  C   UNL     1      -0.757  -0.239   0.650  0.00  0.00    -0.031 C 
ATOM     20  C   UNL     1      -0.373  -0.895  -0.679  0.00  0.00    +0.003 C 
ATOM     21  C   UNL     1       1.047  -0.466  -1.058  0.00  0.00    -0.031 C 
ATOM     22  C   UNL     1       2.007  -0.843   0.073  0.00  0.00    -0.075 C 
ATOM     23  N   UNL     1       1.602  -0.164   1.310  0.00  0.00    +0.384 N 
ATOM     24  C   UNL     1       0.269  -0.624   1.718  0.00  0.00    -0.075 C 
ATOM     25  C   UNL     1       1.470  -1.176  -2.345  0.00  0.00    +0.005 C 
ATOM     26  H   UNL     1       1.579   0.833   1.153  0.00  0.00    -0.081 HD
ENDBRANCH  15  23
ENDBRANCH   1  15
TORSDOF 4
