REMARK  Name = ZINC02645818
REMARK  11 active torsions:
REMARK  status: ('A' for Active; 'I' for Inactive)
REMARK    1  A    between atoms: C_1  and  C_2
REMARK    2  A    between atoms: C_2  and  N_61
REMARK    3  A    between atoms: C_3  and  C_4
REMARK    4  A    between atoms: C_3  and  N_61
REMARK    5  A    between atoms: C_16  and  C_17
REMARK    6  A    between atoms: C_16  and  N_61
REMARK    7  A    between atoms: C_17  and  C_19
REMARK    8  A    between atoms: C_20  and  N_35
REMARK    9  A    between atoms: N_21  and  C_28
REMARK   10  A    between atoms: N_24  and  C_27
REMARK   11  A    between atoms: C_28  and  C_29
REMARK                            x       y       z     vdW  Elec       q    Type
REMARK                         _______ _______ _______ _____ _____    ______ ____
ROOT
ATOM      1  C   UNL     1       1.294  -2.095  -0.034  0.00  0.00    +0.155 C 
ATOM      2  O   UNL     1       0.288  -2.761  -0.171  0.00  0.00    -0.294 OA
ENDROOT
BRANCH   1   3
ATOM      3  C   UNL     1       1.210  -0.687  -0.007  0.00  0.00    +0.118 A 
ATOM      4  C   UNL     1      -0.036  -0.035  -0.012  0.00  0.00    +0.116 A 
ATOM      5  N   UNL     1      -0.066   1.331   0.015  0.00  0.00    -0.277 N 
ATOM      6  C   UNL     1       1.064   2.053   0.045  0.00  0.00    +0.333 A 
ATOM      7  O   UNL     1       0.983   3.266   0.068  0.00  0.00    -0.246 OA
ATOM      8  N   UNL     1       2.281   1.486   0.051  0.00  0.00    -0.263 N 
ATOM      9  C   UNL     1       2.420   0.145   0.027  0.00  0.00    +0.269 A 
ATOM     10  O   UNL     1       3.525  -0.366   0.032  0.00  0.00    -0.267 OA
ATOM     11  C   UNL     1       3.474   2.336   0.086  0.00  0.00    +0.157 C 
BRANCH   4  12
ATOM     12  N   UNL     1      -1.192  -0.752  -0.043  0.00  0.00    -0.344 N 
ATOM     13  H   UNL     1      -2.000  -0.353  -0.402  0.00  0.00    +0.144 HD
ATOM     14  H   UNL     1      -1.207  -1.661   0.295  0.00  0.00    +0.144 HD
ENDBRANCH   4  12
BRANCH   5  15
ATOM     15  C   UNL     1      -1.359   2.020   0.004  0.00  0.00    +0.163 C 
BRANCH  15  16
ATOM     16  C   UNL     1      -1.830   2.228   1.420  0.00  0.00    -0.028 A 
ATOM     17  C   UNL     1      -2.613   1.270   2.036  0.00  0.00    +0.005 A 
ATOM     18  C   UNL     1      -3.041   1.459   3.337  0.00  0.00    +0.000 A 
ATOM     19  C   UNL     1      -2.693   2.610   4.018  0.00  0.00    +0.000 A 
ATOM     20  C   UNL     1      -1.914   3.571   3.401  0.00  0.00    +0.000 A 
ATOM     21  C   UNL     1      -1.482   3.380   2.102  0.00  0.00    +0.005 A 
ENDBRANCH  15  16
ENDBRANCH   5  15
ENDBRANCH   1   3
BRANCH   1  22
ATOM     22  C   UNL     1       2.633  -2.772   0.108  0.00  0.00    +0.003 C 
BRANCH  22  23
ATOM     23  N   UNL     1       2.433  -4.237   0.068  0.00  0.00    +0.389 N 
ATOM     24  H   UNL     1       1.710  -4.494   0.750  0.00  0.00    -0.081 HD
BRANCH  23  26
ATOM     25  C   UNL     1       3.073  -4.349  -2.318  0.00  0.00    -0.017 C 
ATOM     26  C   UNL     1       1.989  -4.648  -1.281  0.00  0.00    -0.081 C 
ENDBRANCH  23  26
BRANCH  23  27
ATOM     27  C   UNL     1       3.692  -4.928   0.418  0.00  0.00    -0.003 C 
BRANCH  27  28
ATOM     28  C   UNL     1       3.380  -6.367   0.740  0.00  0.00    +0.094 A 
ATOM     29  N   UNL     1       4.387  -7.159   1.192  0.00  0.00    -0.312 N 
ATOM     30  H   UNL     1       5.278  -6.790   1.298  0.00  0.00    +0.170 HD
ATOM     31  C   UNL     1       4.158  -8.457   1.496  0.00  0.00    +0.259 A 
ATOM     32  O   UNL     1       5.051  -9.178   1.903  0.00  0.00    -0.267 OA
ATOM     33  C   UNL     1       2.789  -8.964   1.318  0.00  0.00    +0.065 A 
ATOM     34  C   UNL     1       2.449 -10.285   1.602  0.00  0.00    +0.015 A 
ATOM     35  C   UNL     1       1.150 -10.706   1.417  0.00  0.00    +0.001 A 
ATOM     36  C   UNL     1       0.182  -9.826   0.950  0.00  0.00    +0.002 A 
ATOM     37  C   UNL     1       0.498  -8.517   0.663  0.00  0.00    +0.028 A 
ATOM     38  C   UNL     1       1.807  -8.067   0.843  0.00  0.00    +0.078 A 
ATOM     39  N   UNL     1       2.161  -6.784   0.577  0.00  0.00    -0.236 NA
ENDBRANCH  27  28
ENDBRANCH  23  27
ENDBRANCH  22  23
ENDBRANCH   1  22
TORSDOF 9
