REMARK  Name = ZINC24716555
REMARK  9 active torsions:
REMARK  status: ('A' for Active; 'I' for Inactive)
REMARK    1  A    between atoms: C_1  and  C_2
REMARK    2  A    between atoms: C_2  and  O_3
REMARK    3  A    between atoms: O_3  and  C_4
REMARK    4  A    between atoms: C_7  and  S_10
REMARK    5  A    between atoms: S_10  and  N_13
REMARK    6  A    between atoms: N_16  and  C_19
REMARK    7  A    between atoms: C_19  and  C_21
REMARK    8  A    between atoms: C_19  and  C_22
REMARK    9  A    between atoms: N_28  and  C_29
REMARK                            x       y       z     vdW  Elec       q    Type
REMARK                         _______ _______ _______ _____ _____    ______ ____
ROOT
ATOM      1  N   UNL     1       1.736  -3.718  -1.489  0.00  0.00    -0.180 NA
ATOM      2  C   UNL     1       0.385  -3.506  -2.030  0.00  0.00    +0.091 C 
ATOM      3  C   UNL     1       0.482  -2.502  -3.190  0.00  0.00    -0.060 C 
ATOM      4  N   UNL     1       1.472  -2.983  -4.164  0.00  0.00    +0.388 N 
ATOM      5  C   UNL     1       2.814  -3.049  -3.571  0.00  0.00    -0.060 C 
ATOM      6  C   UNL     1       2.813  -4.069  -2.427  0.00  0.00    +0.091 C 
ATOM      7  H   UNL     1       1.184  -4.003  -4.457  0.00  0.00    -0.081 HD
ENDROOT
BRANCH   1   8
ATOM      8  S   UNL     1       2.034  -3.573   0.133  0.00  0.00    +0.061 S 
ATOM      9  O   UNL     1       3.191  -4.353   0.404  0.00  0.00    -0.153 OA
ATOM     10  O   UNL     1       0.796  -3.792   0.795  0.00  0.00    -0.153 OA
BRANCH   8  14
ATOM     11  C   UNL     1       3.172   0.741   0.906  0.00  0.00    +0.121 A 
ATOM     12  C   UNL     1       1.843   0.350   0.976  0.00  0.00    +0.047 A 
ATOM     13  C   UNL     1       1.498  -0.967   0.739  0.00  0.00    +0.032 A 
ATOM     14  C   UNL     1       2.477  -1.895   0.434  0.00  0.00    +0.106 A 
ATOM     15  C   UNL     1       3.802  -1.507   0.364  0.00  0.00    +0.032 A 
ATOM     16  C   UNL     1       4.152  -0.192   0.600  0.00  0.00    +0.047 A 
BRANCH  11  17
ATOM     17  O   UNL     1       3.513   2.036   1.138  0.00  0.00    -0.492 OA
BRANCH  17  19
ATOM     18  C   UNL     1       5.089   3.858   1.339  0.00  0.00    +0.048 C 
ATOM     19  C   UNL     1       4.900   2.367   1.049  0.00  0.00    +0.225 C 
ENDBRANCH  17  19
ENDBRANCH  11  17
ENDBRANCH   8  14
ENDBRANCH   1   8
BRANCH   4  20
ATOM     20  C   UNL     1       1.470  -2.146  -5.372  0.00  0.00    -0.002 C 
ATOM     21  C   UNL     1       0.068  -2.135  -5.983  0.00  0.00    -0.005 C 
BRANCH  20  22
ATOM     22  C   UNL     1       2.449  -2.706  -6.371  0.00  0.00    +0.123 A 
ATOM     23  N   UNL     1       2.498  -4.009  -6.587  0.00  0.00    -0.201 NA
ATOM     24  C   UNL     1       3.362  -4.508  -7.469  0.00  0.00    +0.217 A 
ATOM     25  N   UNL     1       4.175  -3.693  -8.133  0.00  0.00    -0.181 NA
ATOM     26  C   UNL     1       4.122  -2.384  -7.914  0.00  0.00    +0.224 A 
ATOM     27  N   UNL     1       3.252  -1.893  -7.034  0.00  0.00    -0.201 NA
ATOM     28  N   UNL     1       4.966  -1.533  -8.601  0.00  0.00    -0.284 N 
ATOM     29  N   UNL     1       3.412  -5.868  -7.693  0.00  0.00    -0.327 N 
ATOM     30  H   UNL     1       4.862  -0.444  -8.486  0.00  0.00    +0.155 HD
ATOM     31  H   UNL     1       4.126  -6.279  -8.422  0.00  0.00    +0.145 HD
ATOM     32  H   UNL     1       2.739  -6.542  -7.143  0.00  0.00    +0.145 HD
BRANCH  28  33
ATOM     33  C   UNL     1       5.951  -2.057  -9.445  0.00  0.00    +0.034 A 
ATOM     34  C   UNL     1       6.588  -3.246  -9.116  0.00  0.00    +0.023 A 
ATOM     35  C   UNL     1       7.557  -3.763  -9.954  0.00  0.00    +0.002 A 
ATOM     36  C   UNL     1       7.901  -3.091 -11.113  0.00  0.00    +0.000 A 
ATOM     37  C   UNL     1       7.273  -1.904 -11.440  0.00  0.00    +0.002 A 
ATOM     38  C   UNL     1       6.299  -1.385 -10.609  0.00  0.00    +0.023 A 
ENDBRANCH  28  33
ENDBRANCH  20  22
ENDBRANCH   4  20
TORSDOF 7
