REMARK  Name = ZINC55273157
REMARK  5 active torsions:
REMARK  status: ('A' for Active; 'I' for Inactive)
REMARK    1  A    between atoms: C_1  and  N_2
REMARK    2  A    between atoms: N_2  and  C_3
REMARK    3  A    between atoms: C_3  and  C_4
REMARK    4  A    between atoms: C_10  and  C_12
REMARK    5  A    between atoms: C_12  and  C_13
REMARK                            x       y       z     vdW  Elec       q    Type
REMARK                         _______ _______ _______ _____ _____    ______ ____
ROOT
ATOM      1  C   UNL     1      -0.018   1.461   0.010  0.00  0.00    +0.132 C 
ATOM      2  N   UNL     1       0.002  -0.004   0.002  0.00  0.00    -0.300 N 
ATOM      3  C   UNL     1       0.000  -0.672  -1.169  0.00  0.00    +0.221 C 
ATOM      4  O   UNL     1       0.017  -1.884  -1.175  0.00  0.00    -0.275 OA
ENDROOT
BRANCH   2   5
ATOM      5  C   UNL     1       0.024  -0.743   1.267  0.00  0.00    +0.143 C 
BRANCH   5   6
ATOM      6  C   UNL     1      -1.389  -1.016   1.714  0.00  0.00    -0.022 A 
ATOM      7  C   UNL     1      -2.057  -0.112   2.519  0.00  0.00    +0.028 A 
ATOM      8  C   UNL     1      -3.328  -0.389   2.903  0.00  0.00    +0.055 A 
ATOM      9  S   UNL     1      -3.616  -1.966   2.119  0.00  0.00    -0.090 S 
ATOM     10  C   UNL     1      -2.026  -2.148   1.328  0.00  0.00    +0.051 A 
ATOM     11 BR   UNL     1      -4.492   0.632   3.989  0.00  0.00    -0.043 Br
ENDBRANCH   5   6
ENDBRANCH   2   5
BRANCH   3  12
ATOM     12  C   UNL     1      -0.023   0.089  -2.470  0.00  0.00    +0.152 C 
BRANCH  12  13
ATOM     13  C   UNL     1      -0.020  -0.884  -3.620  0.00  0.00    +0.059 A 
ATOM     14  C   UNL     1      -0.973  -0.845  -4.582  0.00  0.00    +0.072 A 
ATOM     15  S   UNL     1      -0.449  -2.194  -5.627  0.00  0.00    -0.061 S 
ATOM     16  C   UNL     1       0.906  -2.659  -4.745  0.00  0.00    +0.156 A 
ATOM     17  N   UNL     1       0.915  -1.810  -3.739  0.00  0.00    -0.230 NA
ATOM     18  N   UNL     1       1.800  -3.684  -5.015  0.00  0.00    -0.338 N 
ATOM     19  H   UNL     1       1.679  -4.238  -5.801  0.00  0.00    +0.144 HD
ATOM     20  H   UNL     1       2.546  -3.846  -4.417  0.00  0.00    +0.144 HD
ENDBRANCH  12  13
ENDBRANCH   3  12
TORSDOF 4
