REMARK  Name = ZINC48845595
REMARK  9 active torsions:
REMARK  status: ('A' for Active; 'I' for Inactive)
REMARK    1  A    between atoms: C_1  and  C_2
REMARK    2  A    between atoms: C_2  and  C_3
REMARK    3  A    between atoms: C_2  and  C_10
REMARK    4  A    between atoms: C_2  and  N_13
REMARK    5  A    between atoms: N_13  and  C_14
REMARK    6  A    between atoms: C_14  and  C_15
REMARK    7  A    between atoms: C_15  and  C_16
REMARK    8  A    between atoms: C_16  and  N_17
REMARK    9  A    between atoms: N_17  and  C_18
REMARK                            x       y       z     vdW  Elec       q    Type
REMARK                         _______ _______ _______ _____ _____    ______ ____
ROOT
ATOM      1  C   UNL     1      -0.090   1.483   0.323  0.00  0.00    +0.006 C 
ATOM      2  C   UNL     1      -0.003  -0.008  -0.012  0.00  0.00    +0.058 C 
ENDROOT
BRANCH   2   3
ATOM      3  C   UNL     1       0.769  -0.721   1.068  0.00  0.00    -0.047 A 
ATOM      4  C   UNL     1       1.935  -1.394   0.755  0.00  0.00    +0.003 A 
ATOM      5  C   UNL     1       2.643  -2.048   1.745  0.00  0.00    +0.001 A 
ATOM      6  C   UNL     1       2.186  -2.030   3.049  0.00  0.00    +0.015 A 
ATOM      7  C   UNL     1       1.019  -1.357   3.363  0.00  0.00    +0.018 A 
ATOM      8  C   UNL     1       0.314  -0.698   2.373  0.00  0.00    +0.018 A 
ATOM      9 BR   UNL     1       0.393  -1.332   5.147  0.00  0.00    -0.050 Br
ENDBRANCH   2   3
BRANCH   2  10
ATOM     10  C   UNL     1      -1.393  -0.585  -0.101  0.00  0.00    +0.349 C 
ATOM     11  O   UNL     1      -1.733  -1.205  -1.093  0.00  0.00    -0.248 OA
ATOM     12  O   UNL     1      -2.177  -0.430   0.820  0.00  0.00    -0.248 OA
ENDBRANCH   2  10
BRANCH   2  13
ATOM     13  N   UNL     1       0.682  -0.181  -1.300  0.00  0.00    +0.392 N 
ATOM     14  H   UNL     1       1.641   0.121  -1.214  0.00  0.00    -0.084 HD
ATOM     15  H   UNL     1       0.659  -1.155  -1.564  0.00  0.00    -0.084 HD
BRANCH  13  16
ATOM     16  C   UNL     1       0.005   0.621  -2.327  0.00  0.00    -0.082 C 
BRANCH  16  17
ATOM     17  C   UNL     1       0.634   0.337  -3.692  0.00  0.00    -0.038 C 
BRANCH  17  18
ATOM     18  C   UNL     1      -0.071   1.173  -4.762  0.00  0.00    -0.084 C 
BRANCH  18  19
ATOM     19  N   UNL     1       0.532   0.900  -6.074  0.00  0.00    +0.381 N 
ATOM     20  H   UNL     1       1.512   1.141  -6.050  0.00  0.00    -0.086 HD
ATOM     21  H   UNL     1       0.432  -0.080  -6.293  0.00  0.00    -0.086 HD
BRANCH  19  22
ATOM     22  C   UNL     1      -0.145   1.703  -7.101  0.00  0.00    -0.072 C 
ATOM     23  C   UNL     1      -0.906   0.953  -8.196  0.00  0.00    -0.017 C 
ATOM     24  C   UNL     1       0.416   1.649  -8.523  0.00  0.00    -0.017 C 
ENDBRANCH  19  22
ENDBRANCH  18  19
ENDBRANCH  17  18
ENDBRANCH  16  17
ENDBRANCH  13  16
ENDBRANCH   2  13
TORSDOF 8
