REMARK  Name = ZINC19893480
REMARK  8 active torsions:
REMARK  status: ('A' for Active; 'I' for Inactive)
REMARK    1  A    between atoms: C_1  and  C_2
REMARK    2  A    between atoms: C_2  and  C_26
REMARK    3  A    between atoms: N_3  and  N_4
REMARK    4  A    between atoms: C_5  and  C_7
REMARK    5  A    between atoms: C_7  and  S_8
REMARK    6  A    between atoms: S_8  and  C_9
REMARK    7  A    between atoms: C_12  and  C_20
REMARK    8  A    between atoms: N_13  and  C_14
REMARK                            x       y       z     vdW  Elec       q    Type
REMARK                         _______ _______ _______ _____ _____    ______ ____
ROOT
ATOM      1  C   UNL     1      -4.166   0.875  -3.758  0.00  0.00    +0.197 A 
ATOM      2  N   UNL     1      -4.223  -0.410  -3.491  0.00  0.00    -0.122 NA
ATOM      3  N   UNL     1      -5.273  -0.926  -4.023  0.00  0.00    -0.128 NA
ATOM      4  C   UNL     1      -5.953  -0.003  -4.662  0.00  0.00    +0.169 A 
ATOM      5  N   UNL     1      -5.268   1.183  -4.508  0.00  0.00    -0.270 N 
ENDROOT
BRANCH   5   6
ATOM      6  C   UNL     1      -5.624   2.440  -5.016  0.00  0.00    +0.051 A 
ATOM      7  C   UNL     1      -6.780   3.067  -4.572  0.00  0.00    +0.026 A 
ATOM      8  C   UNL     1      -7.127   4.308  -5.071  0.00  0.00    +0.002 A 
ATOM      9  C   UNL     1      -6.329   4.920  -6.019  0.00  0.00    +0.000 A 
ATOM     10  C   UNL     1      -5.179   4.296  -6.467  0.00  0.00    +0.002 A 
ATOM     11  C   UNL     1      -4.825   3.057  -5.968  0.00  0.00    +0.026 A 
ENDBRANCH   5   6
BRANCH   4  12
ATOM     12  C   UNL     1      -7.218  -0.197  -5.402  0.00  0.00    +0.020 A 
ATOM     13  C   UNL     1      -7.672   0.785  -6.284  0.00  0.00    +0.011 A 
ATOM     14  C   UNL     1      -8.851   0.595  -6.975  0.00  0.00    +0.001 A 
ATOM     15  C   UNL     1      -9.587  -0.561  -6.788  0.00  0.00    +0.000 A 
ATOM     16  C   UNL     1      -9.145  -1.537  -5.912  0.00  0.00    +0.001 A 
ATOM     17  C   UNL     1      -7.965  -1.362  -5.218  0.00  0.00    +0.011 A 
ENDBRANCH   4  12
BRANCH   1  18
ATOM     18  S   UNL     1      -2.908   1.996  -3.241  0.00  0.00    -0.076 S 
BRANCH  18  19
ATOM     19  C   UNL     1      -1.842   0.865  -2.313  0.00  0.00    +0.174 C 
BRANCH  19  21
ATOM     20  N   UNL     1       0.269   0.983  -1.030  0.00  0.00    -0.206 N 
ATOM     21  C   UNL     1      -0.664   1.625  -1.760  0.00  0.00    +0.242 C 
ATOM     22  O   UNL     1      -0.556   2.814  -1.972  0.00  0.00    -0.273 OA
ATOM     23  H   UNL     1       0.169  -0.095  -0.834  0.00  0.00    +0.177 HD
BRANCH  20  26
ATOM     24  C   UNL     1       3.409   1.821   0.793  0.00  0.00    +0.068 C 
ATOM     25  C   UNL     1       2.324   1.052   0.084  0.00  0.00    +0.063 C 
ATOM     26  N   UNL     1       1.367   1.688  -0.521  0.00  0.00    -0.185 NA
BRANCH  25  27
ATOM     27  C   UNL     1       2.349  -0.422   0.075  0.00  0.00    -0.002 A 
ATOM     28  C   UNL     1       2.790  -1.122   1.201  0.00  0.00    +0.011 A 
ATOM     29  C   UNL     1       2.806  -2.501   1.189  0.00  0.00    +0.016 A 
ATOM     30  C   UNL     1       2.396  -3.191   0.060  0.00  0.00    +0.018 A 
ATOM     31  C   UNL     1       1.962  -2.503  -1.060  0.00  0.00    +0.016 A 
ATOM     32  C   UNL     1       1.936  -1.125  -1.059  0.00  0.00    +0.011 A 
ATOM     33 BR   UNL     1       2.429  -5.082   0.050  0.00  0.00    -0.050 Br
ENDBRANCH  25  27
ENDBRANCH  20  26
ENDBRANCH  19  21
ENDBRANCH  18  19
ENDBRANCH   1  18
TORSDOF 7
