REMARK  Name = ZINC67412214
REMARK  9 active torsions:
REMARK  status: ('A' for Active; 'I' for Inactive)
REMARK    1  A    between atoms: C_1  and  C_2
REMARK    2  A    between atoms: C_2  and  C_3
REMARK    3  A    between atoms: C_2  and  N_4
REMARK    4  A    between atoms: C_7  and  C_10
REMARK    5  A    between atoms: C_10  and  N_11
REMARK    6  A    between atoms: N_14  and  N_15
REMARK    7  A    between atoms: C_16  and  C_18
REMARK    8  A    between atoms: C_18  and  C_19
REMARK    9  A    between atoms: C_19  and  C_20
REMARK                            x       y       z     vdW  Elec       q    Type
REMARK                         _______ _______ _______ _____ _____    ______ ____
ROOT
ATOM      1  N   UNL     1      -4.678  -2.218  -2.971  0.00  0.00    -0.298 N 
ATOM      2  C   UNL     1      -5.094  -2.596  -4.196  0.00  0.00    +0.316 C 
ATOM      3  O   UNL     1      -4.527  -2.179  -5.187  0.00  0.00    -0.251 OA
ATOM      4  N   UNL     1      -6.140  -3.438  -4.321  0.00  0.00    -0.218 N 
ATOM      5  H   UNL     1      -5.130  -2.551  -2.180  0.00  0.00    +0.150 HD
ATOM      6  H   UNL     1      -6.440  -3.710  -5.203  0.00  0.00    +0.174 HD
ENDROOT
BRANCH   4   7
ATOM      7  N   UNL     1      -6.793  -3.918  -3.179  0.00  0.00    -0.233 N 
ATOM      8  C   UNL     1      -7.839  -4.760  -3.305  0.00  0.00    +0.229 C 
ATOM      9  O   UNL     1      -8.214  -5.100  -4.407  0.00  0.00    -0.274 OA
ATOM     10  H   UNL     1      -6.493  -3.646  -2.298  0.00  0.00    +0.173 HD
BRANCH   8  11
ATOM     11  C   UNL     1      -8.542  -5.277  -2.076  0.00  0.00    +0.097 C 
BRANCH  11  12
ATOM     12  C   UNL     1      -9.683  -6.206  -2.495  0.00  0.00    +0.013 C 
BRANCH  12  13
ATOM     13  C   UNL     1     -10.397  -6.731  -1.248  0.00  0.00    -0.011 C 
ATOM     14  C   UNL     1      -9.437  -7.608  -0.442  0.00  0.00    +0.003 C 
ATOM     15  C   UNL     1     -10.150  -8.133   0.805  0.00  0.00    +0.000 C 
ATOM     16  C   UNL     1     -11.367  -8.961   0.386  0.00  0.00    +0.000 C 
ATOM     17  C   UNL     1     -12.327  -8.084  -0.419  0.00  0.00    +0.000 C 
ATOM     18  C   UNL     1     -11.614  -7.559  -1.667  0.00  0.00    +0.003 C 
ENDBRANCH  12  13
ENDBRANCH  11  12
ENDBRANCH   8  11
ENDBRANCH   4   7
BRANCH   1  19
ATOM     19  C   UNL     1      -3.541  -1.304  -2.834  0.00  0.00    +0.107 C 
BRANCH  19  23
ATOM     20  N   UNL     1      -1.376  -0.512   0.012  0.00  0.00    +0.381 N 
ATOM     21  C   UNL     1      -1.385  -1.992  -0.122  0.00  0.00    -0.078 C 
ATOM     22  C   UNL     1      -2.796  -2.326  -0.653  0.00  0.00    -0.015 C 
ATOM     23  C   UNL     1      -3.276  -1.037  -1.351  0.00  0.00    -0.012 C 
ATOM     24  C   UNL     1      -2.116  -0.033  -1.183  0.00  0.00    -0.074 C 
ATOM     25  H   UNL     1      -1.850  -0.230   0.857  0.00  0.00    -0.081 HD
BRANCH  20  27
ATOM     26  C   UNL     1      -0.019   1.526   0.010  0.00  0.00    -0.014 C 
ATOM     27  C   UNL     1       0.002  -0.004   0.002  0.00  0.00    -0.075 C 
ATOM     28  C   UNL     1       0.742  -0.511   1.242  0.00  0.00    -0.014 C 
ENDBRANCH  20  27
ENDBRANCH  19  23
ENDBRANCH   1  19
TORSDOF 7
