REMARK  Name = ZINC36046322
REMARK  12 active torsions:
REMARK  status: ('A' for Active; 'I' for Inactive)
REMARK    1  A    between atoms: C_1  and  C_2
REMARK    2  A    between atoms: C_2  and  C_3
REMARK    3  A    between atoms: C_3  and  C_5
REMARK    4  A    between atoms: C_3  and  C_6
REMARK    5  A    between atoms: C_6  and  O_8
REMARK    6  A    between atoms: O_8  and  C_9
REMARK    7  A    between atoms: C_11  and  N_34
REMARK    8  A    between atoms: C_17  and  C_20
REMARK    9  A    between atoms: C_18  and  O_19
REMARK   10  A    between atoms: C_21  and  C_22
REMARK   11  A    between atoms: C_31  and  C_32
REMARK   12  A    between atoms: C_31  and  C_33
REMARK                            x       y       z     vdW  Elec       q    Type
REMARK                         _______ _______ _______ _____ _____    ______ ____
ROOT
ATOM      1  C   UNL     1      -2.442  -3.996   0.220  0.00  0.00    +0.210 C 
ATOM      2  C   UNL     1      -3.625  -4.582   0.992  0.00  0.00    +0.015 C 
ATOM      3  C   UNL     1      -3.626  -6.084   0.857  0.00  0.00    +0.026 A 
ATOM      4  C   UNL     1      -2.910  -6.719  -0.144  0.00  0.00    +0.127 A 
ATOM      5  C   UNL     1      -2.936  -8.111  -0.245  0.00  0.00    +0.047 A 
ATOM      6  C   UNL     1      -3.665  -8.864   0.643  0.00  0.00    +0.015 A 
ATOM      7  C   UNL     1      -4.390  -8.232   1.661  0.00  0.00    +0.017 A 
ATOM      8  C   UNL     1      -4.365  -6.832   1.761  0.00  0.00    +0.129 A 
ATOM      9  O   UNL     1      -2.166  -6.023  -1.041  0.00  0.00    -0.482 OA
ATOM     10  C   UNL     1      -2.420  -4.625  -1.179  0.00  0.00    +0.140 C 
ATOM     11  C   UNL     1      -1.315  -3.980  -2.018  0.00  0.00    +0.059 C 
ATOM     12  C   UNL     1      -3.774  -4.413  -1.860  0.00  0.00    +0.059 C 
ENDROOT
BRANCH   2  13
ATOM     13  N   UNL     1      -3.510  -4.220   2.411  0.00  0.00    +0.387 N 
ATOM     14  C   UNL     1      -3.453  -2.759   2.539  0.00  0.00    -0.078 C 
ATOM     15  C   UNL     1      -3.415  -2.374   4.019  0.00  0.00    -0.019 C 
ATOM     16  C   UNL     1      -2.175  -2.994   4.671  0.00  0.00    -0.004 C 
ATOM     17  C   UNL     1      -2.209  -4.511   4.467  0.00  0.00    -0.019 C 
ATOM     18  C   UNL     1      -2.292  -4.817   2.970  0.00  0.00    -0.078 C 
ATOM     19  H   UNL     1      -4.314  -4.568   2.912  0.00  0.00    -0.081 HD
ENDBRANCH   2  13
BRANCH   8  20
ATOM     20  O   UNL     1      -5.064  -6.210   2.744  0.00  0.00    -0.506 OA
ATOM     21  H   UNL     1      -5.992  -6.048   2.524  0.00  0.00    +0.292 HD
ENDBRANCH   8  20
BRANCH   7  22
ATOM     22  C   UNL     1      -5.170  -9.028   2.616  0.00  0.00    +0.016 C 
ATOM     23  C   UNL     1      -5.190 -10.376   2.514  0.00  0.00    +0.068 C 
BRANCH  23  24
ATOM     24  C   UNL     1      -5.944 -11.145   3.437  0.00  0.00    +0.239 C 
ATOM     25  O   UNL     1      -6.653 -10.589   4.257  0.00  0.00    -0.271 OA
ATOM     26  N   UNL     1      -5.877 -12.490   3.407  0.00  0.00    -0.298 N 
ATOM     27  C   UNL     1      -5.111 -13.178   2.358  0.00  0.00    +0.108 C 
ATOM     28  C   UNL     1      -4.116 -14.136   3.022  0.00  0.00    +0.019 C 
ATOM     29  C   UNL     1      -4.871 -15.074   3.967  0.00  0.00    +0.003 C 
ATOM     30  C   UNL     1      -5.556 -14.254   5.062  0.00  0.00    +0.019 C 
ATOM     31  C   UNL     1      -6.562 -13.297   4.425  0.00  0.00    +0.108 C 
ENDBRANCH  23  24
ENDBRANCH   7  22
BRANCH   1  32
ATOM     32  O   UNL     1      -2.593  -2.579   0.108  0.00  0.00    -0.458 OA
BRANCH  32  33
ATOM     33  C   UNL     1      -1.468  -1.850   0.035  0.00  0.00    +0.310 C 
ATOM     34  O   UNL     1      -0.391  -2.396   0.065  0.00  0.00    -0.251 OA
BRANCH  33  35
ATOM     35  C   UNL     1      -1.550  -0.350  -0.083  0.00  0.00    +0.094 C 
ATOM     36  C   UNL     1      -2.314   0.021  -1.356  0.00  0.00    +0.019 C 
BRANCH  35  38
ATOM     37  C   UNL     1      -0.216   1.762  -0.143  0.00  0.00    +0.004 C 
ATOM     38  C   UNL     1      -0.137   0.234  -0.149  0.00  0.00    +0.011 C 
ENDBRANCH  35  38
ENDBRANCH  33  35
ENDBRANCH  32  33
ENDBRANCH   1  32
TORSDOF 8
