REMARK  Name = ZINC09396526
REMARK  8 active torsions:
REMARK  status: ('A' for Active; 'I' for Inactive)
REMARK    1  A    between atoms: C_1  and  C_2
REMARK    2  A    between atoms: C_2  and  C_4
REMARK    3  A    between atoms: C_2  and  N_61
REMARK    4  A    between atoms: C_7  and  S_16
REMARK    5  A    between atoms: N_8  and  C_9
REMARK    6  A    between atoms: S_16  and  C_17
REMARK    7  A    between atoms: C_17  and  C_19
REMARK    8  A    between atoms: C_17  and  C_25
REMARK                            x       y       z     vdW  Elec       q    Type
REMARK                         _______ _______ _______ _____ _____    ______ ____
ROOT
ATOM      1  C   UNL     1       3.943   0.916   4.607  0.00  0.00    +0.125 A 
ATOM      2  N   UNL     1       3.878   0.056   3.630  0.00  0.00    -0.135 NA
ATOM      3  N   UNL     1       3.809   0.670   2.503  0.00  0.00    -0.122 NA
ATOM      4  C   UNL     1       3.835   1.968   2.699  0.00  0.00    +0.197 A 
ATOM      5  N   UNL     1       3.918   2.167   4.050  0.00  0.00    -0.275 N 
ENDROOT
BRANCH   5   6
ATOM      6  C   UNL     1       3.967   3.397   4.724  0.00  0.00    +0.050 A 
ATOM      7  C   UNL     1       5.101   3.752   5.441  0.00  0.00    +0.029 A 
ATOM      8  C   UNL     1       5.150   4.965   6.100  0.00  0.00    +0.040 A 
ATOM      9  C   UNL     1       4.063   5.822   6.054  0.00  0.00    +0.124 A 
ATOM     10  C   UNL     1       2.929   5.467   5.344  0.00  0.00    +0.040 A 
ATOM     11  C   UNL     1       2.879   4.258   4.680  0.00  0.00    +0.029 A 
ATOM     12  F   UNL     1       4.111   7.006   6.704  0.00  0.00    -0.205 F 
ENDBRANCH   5   6
BRANCH   1  14
ATOM     13  C   UNL     1       5.443   0.112   6.410  0.00  0.00    -0.005 C 
ATOM     14  C   UNL     1       4.030   0.595   6.076  0.00  0.00    -0.002 C 
BRANCH  14  20
ATOM     15  C   UNL     1       1.703  -0.071   6.005  0.00  0.00    -0.078 C 
ATOM     16  C   UNL     1       0.748  -1.245   6.227  0.00  0.00    -0.019 C 
ATOM     17  C   UNL     1       0.770  -1.643   7.705  0.00  0.00    -0.004 C 
ATOM     18  C   UNL     1       2.204  -1.997   8.109  0.00  0.00    -0.019 C 
ATOM     19  C   UNL     1       3.118  -0.801   7.832  0.00  0.00    -0.078 C 
ATOM     20  N   UNL     1       3.070  -0.484   6.388  0.00  0.00    +0.386 N 
ATOM     21  H   UNL     1       3.326  -1.323   5.855  0.00  0.00    -0.081 HD
ENDBRANCH  14  20
ENDBRANCH   1  14
BRANCH   4  22
ATOM     22  S   UNL     1       3.768   3.217   1.458  0.00  0.00    -0.068 S 
BRANCH  22  23
ATOM     23  C   UNL     1       3.672   2.182  -0.024  0.00  0.00    +0.170 C 
BRANCH  23  24
ATOM     24  C   UNL     1       3.728   3.055  -1.251  0.00  0.00    +0.238 C 
ATOM     25  O   UNL     1       3.461   4.235  -1.168  0.00  0.00    -0.274 OA
ATOM     26  N   UNL     1       4.074   2.525  -2.441  0.00  0.00    -0.239 N 
ATOM     27  C   UNL     1       4.124   3.305  -3.538  0.00  0.00    +0.303 C 
ATOM     28  O   UNL     1       3.857   4.488  -3.455  0.00  0.00    -0.253 OA
ATOM     29  N   UNL     1       4.471   2.775  -4.728  0.00  0.00    -0.313 N 
ATOM     30  H   UNL     1       4.288   1.581  -2.507  0.00  0.00    +0.159 HD
ATOM     31  H   UNL     1       4.684   1.831  -4.794  0.00  0.00    +0.146 HD
ATOM     32  H   UNL     1       4.507   3.337  -5.517  0.00  0.00    +0.146 HD
ENDBRANCH  23  24
BRANCH  23  33
ATOM     33  C   UNL     1       2.377   1.411  -0.015  0.00  0.00    -0.025 A 
ATOM     34  C   UNL     1       1.171   2.086   0.002  0.00  0.00    +0.005 A 
ATOM     35  C   UNL     1      -0.017   1.378   0.010  0.00  0.00    +0.000 A 
ATOM     36  C   UNL     1       0.002  -0.004   0.002  0.00  0.00    +0.000 A 
ATOM     37  C   UNL     1       1.208  -0.679  -0.013  0.00  0.00    +0.000 A 
ATOM     38  C   UNL     1       2.396   0.029  -0.022  0.00  0.00    +0.005 A 
ENDBRANCH  23  33
ENDBRANCH  22  23
ENDBRANCH   4  22
TORSDOF 7
