REMARK  Name = ZINC25588468
REMARK  13 active torsions:
REMARK  status: ('A' for Active; 'I' for Inactive)
REMARK    1  A    between atoms: C_1  and  C_2
REMARK    2  A    between atoms: C_3  and  C_34
REMARK    3  A    between atoms: N_4  and  C_26
REMARK    4  A    between atoms: C_5  and  N_9
REMARK    5  A    between atoms: C_6  and  C_7
REMARK    6  A    between atoms: C_10  and  C_12
REMARK    7  A    between atoms: C_12  and  S_13
REMARK    8  A    between atoms: S_13  and  C_14
REMARK    9  A    between atoms: C_17  and  C_19
REMARK   10  A    between atoms: C_20  and  C_25
REMARK   11  A    between atoms: C_22  and  C_24
REMARK   12  A    between atoms: C_29  and  O_32
REMARK   13  A    between atoms: O_32  and  C_33
REMARK                            x       y       z     vdW  Elec       q    Type
REMARK                         _______ _______ _______ _____ _____    ______ ____
ROOT
ATOM      1  N   UNL     1      -6.199   1.871  11.181  0.00  0.00    -0.270 N 
ATOM      2  C   UNL     1      -6.662   1.815   9.917  0.00  0.00    +0.229 C 
ATOM      3  O   UNL     1      -7.694   1.226   9.675  0.00  0.00    -0.275 OA
ATOM      4  H   UNL     1      -5.221   2.331  11.389  0.00  0.00    +0.156 HD
ENDROOT
BRANCH   1   9
ATOM      5  C   UNL     1      -9.147   1.389  15.258  0.00  0.00    +0.047 C 
ATOM      6  C   UNL     1      -8.284   1.096  14.058  0.00  0.00    -0.010 A 
ATOM      7  C   UNL     1      -7.953  -0.117  13.586  0.00  0.00    +0.027 A 
ATOM      8  N   UNL     1      -7.154   0.030  12.481  0.00  0.00    -0.300 N 
ATOM      9  C   UNL     1      -6.954   1.349  12.221  0.00  0.00    +0.128 A 
ATOM     10  C   UNL     1      -7.636   2.082  13.183  0.00  0.00    +0.095 A 
ATOM     11  C   UNL     1      -8.391  -1.432  14.177  0.00  0.00    +0.064 C 
BRANCH   8  12
ATOM     12  C   UNL     1      -6.621  -1.028  11.729  0.00  0.00    +0.048 A 
ATOM     13  C   UNL     1      -7.463  -1.852  10.995  0.00  0.00    +0.030 A 
ATOM     14  C   UNL     1      -6.937  -2.889  10.251  0.00  0.00    +0.047 A 
ATOM     15  C   UNL     1      -5.568  -3.115  10.246  0.00  0.00    +0.120 A 
ATOM     16  C   UNL     1      -4.726  -2.296  10.984  0.00  0.00    +0.047 A 
ATOM     17  C   UNL     1      -5.251  -1.255  11.724  0.00  0.00    +0.030 A 
BRANCH  15  18
ATOM     18  O   UNL     1      -5.051  -4.140   9.517  0.00  0.00    -0.495 OA
ATOM     19  C   UNL     1      -5.976  -4.944   8.781  0.00  0.00    +0.277 C 
ENDBRANCH  15  18
ENDBRANCH   8  12
BRANCH  10  20
ATOM     20  C   UNL     1      -7.697   3.508  13.297  0.00  0.00    +0.103 C 
ATOM     21  N   UNL     1      -7.746   4.639  13.388  0.00  0.00    -0.191 NA
ENDBRANCH  10  20
ENDBRANCH   1   9
BRANCH   2  22
ATOM     22  C   UNL     1      -5.897   2.484   8.803  0.00  0.00    +0.175 C 
BRANCH  22  23
ATOM     23  S   UNL     1      -6.769   2.232   7.237  0.00  0.00    -0.056 S 
BRANCH  23  24
ATOM     24  C   UNL     1      -5.687   3.092   6.144  0.00  0.00    +0.278 A 
ATOM     25  N   UNL     1      -4.579   3.712   6.476  0.00  0.00    -0.101 NA
ATOM     26  N   UNL     1      -4.045   4.229   5.426  0.00  0.00    -0.106 NA
ATOM     27  C   UNL     1      -4.791   3.960   4.380  0.00  0.00    +0.258 A 
ATOM     28  O   UNL     1      -5.850   3.239   4.814  0.00  0.00    -0.410 OA
BRANCH  27  29
ATOM     29  C   UNL     1      -4.528   4.372   2.993  0.00  0.00    +0.098 A 
ATOM     30  C   UNL     1      -3.485   5.104   2.476  0.00  0.00    +0.058 A 
ATOM     31  N   UNL     1      -3.477   5.337   1.185  0.00  0.00    -0.249 NA
ATOM     32  C   UNL     1      -4.434   4.899   0.399  0.00  0.00    +0.076 A 
ATOM     33  S   UNL     1      -5.474   4.061   1.509  0.00  0.00    -0.067 S 
ATOM     34  C   UNL     1      -4.588   5.073  -1.090  0.00  0.00    +0.073 C 
ATOM     35  C   UNL     1      -2.383   5.619   3.365  0.00  0.00    +0.067 C 
ENDBRANCH  27  29
ENDBRANCH  23  24
ENDBRANCH  22  23
ENDBRANCH   2  22
TORSDOF 8
