REMARK  Name = ZINC60041104
REMARK  12 active torsions:
REMARK  status: ('A' for Active; 'I' for Inactive)
REMARK    1  A    between atoms: C_1  and  C_2
REMARK    2  A    between atoms: C_2  and  C_3
REMARK    3  A    between atoms: C_3  and  C_4
REMARK    4  A    between atoms: C_4  and  N_5
REMARK    5  A    between atoms: C_6  and  C_8
REMARK    6  A    between atoms: C_12  and  C_34
REMARK    7  A    between atoms: N_14  and  C_16
REMARK    8  A    between atoms: C_16  and  C_17
REMARK    9  A    between atoms: N_19  and  C_20
REMARK   10  A    between atoms: C_20  and  C_22
REMARK   11  A    between atoms: C_20  and  C_29
REMARK   12  A    between atoms: C_25  and  C_28
REMARK                            x       y       z     vdW  Elec       q    Type
REMARK                         _______ _______ _______ _____ _____    ______ ____
ROOT
ATOM      1  C   UNL     1       2.934  -7.782  -5.187  0.00  0.00    +0.019 C 
ENDROOT
BRANCH   1   6
ATOM      2  C   UNL     1       2.269  -4.308  -3.932  0.00  0.00    +0.058 C 
ATOM      3  C   UNL     1       3.707  -3.780  -3.943  0.00  0.00    +0.009 C 
ATOM      4  C   UNL     1       4.438  -4.343  -5.165  0.00  0.00    -0.015 C 
ATOM      5  C   UNL     1       4.381  -5.872  -5.127  0.00  0.00    -0.071 C 
ATOM      6  N   UNL     1       2.982  -6.314  -5.145  0.00  0.00    +0.388 N 
ATOM      7  C   UNL     1       2.292  -5.838  -3.940  0.00  0.00    -0.065 C 
ATOM      8  C   UNL     1       5.110  -6.439  -6.347  0.00  0.00    -0.013 C 
ATOM      9  H   UNL     1       2.523  -5.941  -5.963  0.00  0.00    -0.081 HD
BRANCH   2  11
ATOM     10  N   UNL     1       1.425  -2.500  -2.470  0.00  0.00    -0.315 N 
ATOM     11  C   UNL     1       1.564  -3.822  -2.692  0.00  0.00    +0.214 C 
ATOM     12  O   UNL     1       1.121  -4.620  -1.894  0.00  0.00    -0.276 OA
ATOM     13  H   UNL     1       1.779  -1.861  -3.109  0.00  0.00    +0.149 HD
BRANCH  10  14
ATOM     14  C   UNL     1       0.739  -2.027  -1.265  0.00  0.00    +0.104 C 
BRANCH  14  15
ATOM     15  C   UNL     1       0.718  -0.497  -1.257  0.00  0.00    +0.018 C 
BRANCH  15  17
ATOM     16  C   UNL     1      -0.019   1.526   0.010  0.00  0.00    +0.004 C 
ATOM     17  C   UNL     1       0.002  -0.004   0.002  0.00  0.00    -0.002 C 
ENDBRANCH  15  17
ENDBRANCH  14  15
ENDBRANCH  10  14
ENDBRANCH   2  11
ENDBRANCH   1   6
BRANCH   1  18
ATOM     18  C   UNL     1       1.504  -8.234  -5.330  0.00  0.00    +0.197 C 
ATOM     19  O   UNL     1       0.612  -7.414  -5.391  0.00  0.00    -0.278 OA
ATOM     20  N   UNL     1       1.216  -9.549  -5.390  0.00  0.00    -0.306 N 
ATOM     21  H   UNL     1       1.929 -10.205  -5.341  0.00  0.00    +0.150 HD
BRANCH  20  22
ATOM     22  C   UNL     1      -0.175  -9.989  -5.529  0.00  0.00    +0.140 C 
BRANCH  22  23
ATOM     23  C   UNL     1      -0.209 -11.352  -6.170  0.00  0.00    -0.022 A 
ATOM     24  C   UNL     1       0.722 -12.309  -5.811  0.00  0.00    +0.006 A 
ATOM     25  C   UNL     1       0.691 -13.559  -6.399  0.00  0.00    +0.004 A 
ATOM     26  C   UNL     1      -0.272 -13.854  -7.346  0.00  0.00    -0.050 A 
ATOM     27  C   UNL     1      -1.203 -12.898  -7.705  0.00  0.00    +0.004 A 
ATOM     28  C   UNL     1      -1.175 -11.648  -7.114  0.00  0.00    +0.006 A 
ATOM     29  C   UNL     1      -0.305 -15.217  -7.988  0.00  0.00    +0.044 C 
ENDBRANCH  22  23
BRANCH  22  30
ATOM     30  C   UNL     1      -0.818 -10.058  -4.168  0.00  0.00    +0.014 A 
ATOM     31  C   UNL     1      -2.072  -9.701  -3.797  0.00  0.00    +0.013 A 
ATOM     32  C   UNL     1      -2.450  -9.854  -2.477  0.00  0.00    +0.008 A 
ATOM     33  C   UNL     1      -1.555 -10.357  -1.591  0.00  0.00    +0.045 A 
ATOM     34  S   UNL     1      -0.128 -10.637  -2.626  0.00  0.00    -0.099 S 
ENDBRANCH  22  30
ENDBRANCH  20  22
ENDBRANCH   1  18
TORSDOF 9
