REMARK  Name = ZINC09272109
REMARK  11 active torsions:
REMARK  status: ('A' for Active; 'I' for Inactive)
REMARK    1  A    between atoms: C_1  and  C_2
REMARK    2  A    between atoms: C_2  and  C_3
REMARK    3  A    between atoms: C_2  and  C_4
REMARK    4  A    between atoms: C_2  and  C_5
REMARK    5  A    between atoms: C_8  and  C_11
REMARK    6  A    between atoms: C_13  and  C_26
REMARK    7  A    between atoms: C_14  and  O_25
REMARK    8  A    between atoms: N_17  and  C_18
REMARK    9  A    between atoms: C_18  and  C_19
REMARK   10  A    between atoms: C_19  and  N_65
REMARK   11  A    between atoms: C_26  and  C_28
REMARK                            x       y       z     vdW  Elec       q    Type
REMARK                         _______ _______ _______ _____ _____    ______ ____
ROOT
ATOM      1  C   UNL     1      -0.329   2.899   1.835  0.00  0.00    +0.144 C 
ATOM      2  C   UNL     1      -1.391   2.759   2.900  0.00  0.00    +0.071 C 
ATOM      3  C   UNL     1      -2.119   1.662   2.584  0.00  0.00    +0.188 C 
ATOM      4  C   UNL     1      -1.584   1.066   1.342  0.00  0.00    +0.282 C 
ATOM      5  O   UNL     1      -2.023   0.071   0.800  0.00  0.00    -0.267 OA
ATOM      6  N   UNL     1      -0.539   1.789   0.898  0.00  0.00    -0.285 N 
ENDROOT
BRANCH   1  10
ATOM      7  C   UNL     1      -0.775   6.633  -0.191  0.00  0.00    -0.042 A 
ATOM      8  C   UNL     1       0.327   6.411   0.614  0.00  0.00    +0.004 A 
ATOM      9  C   UNL     1       0.471   5.202   1.269  0.00  0.00    +0.006 A 
ATOM     10  C   UNL     1      -0.486   4.217   1.121  0.00  0.00    -0.022 A 
ATOM     11  C   UNL     1      -1.586   4.437   0.312  0.00  0.00    +0.006 A 
ATOM     12  C   UNL     1      -1.732   5.647  -0.340  0.00  0.00    +0.004 A 
BRANCH   7  14
ATOM     13  C   UNL     1       0.257   8.171  -1.840  0.00  0.00    +0.015 C 
ATOM     14  C   UNL     1      -0.933   7.951  -0.904  0.00  0.00    -0.013 C 
ATOM     15  C   UNL     1      -2.227   7.937  -1.721  0.00  0.00    +0.015 C 
ATOM     16  C   UNL     1      -0.991   9.084   0.123  0.00  0.00    +0.015 C 
ENDBRANCH   7  14
ENDBRANCH   1  10
BRANCH   3  17
ATOM     17  O   UNL     1      -3.167   1.186   3.293  0.00  0.00    -0.502 OA
ATOM     18  H   UNL     1      -3.528   0.367   2.847  0.00  0.00    +0.292 HD
ENDBRANCH   3  17
BRANCH   2  19
ATOM     19  C   UNL     1      -1.591   3.638   4.056  0.00  0.00    +0.195 C 
ATOM     20  O   UNL     1      -2.605   4.305   4.144  0.00  0.00    -0.287 OA
BRANCH  19  21
ATOM     21  C   UNL     1      -0.563   3.713   5.115  0.00  0.00    +0.022 A 
ATOM     22  C   UNL     1       0.623   2.984   4.994  0.00  0.00    +0.013 A 
ATOM     23  C   UNL     1       1.581   3.062   5.982  0.00  0.00    +0.016 A 
ATOM     24  C   UNL     1       1.365   3.853   7.099  0.00  0.00    +0.018 A 
ATOM     25  C   UNL     1       0.189   4.573   7.228  0.00  0.00    +0.016 A 
ATOM     26  C   UNL     1      -0.774   4.508   6.243  0.00  0.00    +0.013 A 
ATOM     27 BR   UNL     1       2.682   3.949   8.453  0.00  0.00    -0.050 Br
ENDBRANCH  19  21
ENDBRANCH   2  19
BRANCH   6  28
ATOM     28  C   UNL     1       0.253   1.513  -0.303  0.00  0.00    +0.090 C 
BRANCH  28  29
ATOM     29  C   UNL     1      -0.368   2.236  -1.500  0.00  0.00    -0.059 C 
BRANCH  29  35
ATOM     30  C   UNL     1       1.765   2.555  -2.601  0.00  0.00    -0.050 C 
ATOM     31  C   UNL     1       2.577   2.193  -3.848  0.00  0.00    +0.141 C 
ATOM     32  O   UNL     1       1.875   2.637  -5.013  0.00  0.00    -0.383 OA
ATOM     33  C   UNL     1       0.567   2.075  -5.145  0.00  0.00    +0.141 C 
ATOM     34  C   UNL     1      -0.265   2.436  -3.912  0.00  0.00    -0.050 C 
ATOM     35  N   UNL     1       0.429   1.933  -2.708  0.00  0.00    +0.384 N 
ATOM     36  H   UNL     1       0.540   0.915  -2.788  0.00  0.00    -0.082 HD
ENDBRANCH  29  35
ENDBRANCH  28  29
ENDBRANCH   6  28
TORSDOF 8
