REMARK  Name = ZINC34675279
REMARK  9 active torsions:
REMARK  status: ('A' for Active; 'I' for Inactive)
REMARK    1  A    between atoms: C_4  and  O_29
REMARK    2  A    between atoms: C_5  and  C_7
REMARK    3  A    between atoms: N_8  and  N_9
REMARK    4  A    between atoms: C_10  and  C_12
REMARK    5  A    between atoms: C_16  and  S_18
REMARK    6  A    between atoms: S_18  and  N_21
REMARK    7  A    between atoms: N_21  and  C_22
REMARK    8  A    between atoms: O_29  and  C_30
REMARK    9  A    between atoms: C_30  and  C_31
REMARK                            x       y       z     vdW  Elec       q    Type
REMARK                         _______ _______ _______ _____ _____    ______ ____
ROOT
ATOM      1  N   UNL     1       2.412  -4.186  -0.045  0.00  0.00    -0.203 N 
ATOM      2  C   UNL     1       3.592  -4.838  -0.061  0.00  0.00    +0.263 C 
ATOM      3  O   UNL     1       4.633  -4.210  -0.068  0.00  0.00    -0.268 OA
ATOM      4  H   UNL     1       1.581  -4.686  -0.040  0.00  0.00    +0.178 HD
ENDROOT
BRANCH   2   5
ATOM      5  C   UNL     1       3.619  -6.315  -0.069  0.00  0.00    +0.040 A 
ATOM      6  C   UNL     1       2.425  -7.039  -0.067  0.00  0.00    +0.013 A 
ATOM      7  C   UNL     1       2.458  -8.418  -0.075  0.00  0.00    +0.003 A 
ATOM      8  C   UNL     1       3.671  -9.084  -0.085  0.00  0.00    +0.029 A 
ATOM      9  C   UNL     1       4.858  -8.373  -0.088  0.00  0.00    +0.111 A 
ATOM     10  C   UNL     1       4.839  -6.994  -0.085  0.00  0.00    +0.042 A 
BRANCH   9  11
ATOM     11  S   UNL     1       6.397  -9.231  -0.100  0.00  0.00    +0.092 S 
ATOM     12  O   UNL     1       7.361  -8.345   0.451  0.00  0.00    -0.148 OA
ATOM     13  O   UNL     1       6.147 -10.520   0.445  0.00  0.00    -0.148 OA
BRANCH  11  14
ATOM     14  N   UNL     1       6.816  -9.461  -1.685  0.00  0.00    -0.098 NA
BRANCH  14  15
ATOM     15  C   UNL     1       8.004 -10.123  -2.005  0.00  0.00    +0.076 A 
ATOM     16  C   UNL     1       8.832 -10.594  -0.993  0.00  0.00    +0.027 A 
ATOM     17  C   UNL     1      10.005 -11.249  -1.311  0.00  0.00    +0.003 A 
ATOM     18  C   UNL     1      10.358 -11.435  -2.635  0.00  0.00    +0.020 A 
ATOM     19  C   UNL     1       9.536 -10.968  -3.646  0.00  0.00    +0.043 A 
ATOM     20  C   UNL     1       8.357 -10.317  -3.334  0.00  0.00    +0.046 A 
ATOM     21 CL   UNL     1       9.983 -11.204  -5.307  0.00  0.00    -0.083 Cl
ENDBRANCH  14  15
ENDBRANCH  11  14
ENDBRANCH   9  11
ENDBRANCH   2   5
BRANCH   1  23
ATOM     22  C   UNL     1       1.250  -2.157  -0.022  0.00  0.00    +0.142 C 
ATOM     23  N   UNL     1       2.386  -2.785  -0.037  0.00  0.00    -0.187 NA
BRANCH  22  28
ATOM     24  C   UNL     1      -0.017   1.375   0.010  0.00  0.00    +0.001 A 
ATOM     25  C   UNL     1       1.169   2.089   0.002  0.00  0.00    +0.004 A 
ATOM     26  C   UNL     1       2.383   1.428  -0.013  0.00  0.00    +0.046 A 
ATOM     27  C   UNL     1       2.420   0.044  -0.021  0.00  0.00    +0.130 A 
ATOM     28  C   UNL     1       1.222  -0.684  -0.013  0.00  0.00    +0.036 A 
ATOM     29  C   UNL     1       0.002  -0.004   0.002  0.00  0.00    +0.013 A 
BRANCH  27  30
ATOM     30  O   UNL     1       3.613  -0.606  -0.037  0.00  0.00    -0.480 OA
BRANCH  30  31
ATOM     31  C   UNL     1       4.792   0.201  -0.045  0.00  0.00    +0.353 C 
BRANCH  31  32
ATOM     32  C   UNL     1       6.009  -0.688  -0.062  0.00  0.00    +0.393 C 
ATOM     33  O   UNL     1       5.879  -1.900  -0.067  0.00  0.00    -0.243 OA
ATOM     34  O   UNL     1       7.124  -0.194  -0.071  0.00  0.00    -0.243 OA
ENDBRANCH  31  32
ENDBRANCH  30  31
ENDBRANCH  27  30
ENDBRANCH  22  28
ENDBRANCH   1  23
TORSDOF 9
