REMARK  Name = ZINC46483458
REMARK  10 active torsions:
REMARK  status: ('A' for Active; 'I' for Inactive)
REMARK    1  A    between atoms: C_1  and  N_2
REMARK    2  A    between atoms: N_2  and  C_3
REMARK    3  A    between atoms: N_2  and  C_4
REMARK    4  A    between atoms: C_4  and  C_5
REMARK    5  A    between atoms: C_9  and  C_11
REMARK    6  A    between atoms: C_11  and  N_12
REMARK    7  A    between atoms: N_12  and  C_13
REMARK    8  A    between atoms: C_16  and  N_23
REMARK    9  A    between atoms: C_18  and  S_19
REMARK   10  A    between atoms: S_19  and  N_22
REMARK                            x       y       z     vdW  Elec       q    Type
REMARK                         _______ _______ _______ _____ _____    ______ ____
ROOT
ATOM      1  C   UNL     1       0.465  -6.093   3.591  0.00  0.00    +0.054 A 
ATOM      2  C   UNL     1      -0.557  -6.631   4.364  0.00  0.00    +0.027 A 
ATOM      3  C   UNL     1      -0.252  -7.406   5.465  0.00  0.00    +0.034 A 
ATOM      4  C   UNL     1       1.068  -7.647   5.800  0.00  0.00    +0.128 A 
ATOM      5  C   UNL     1       2.087  -7.112   5.033  0.00  0.00    +0.063 A 
ATOM      6  C   UNL     1       1.790  -6.341   3.926  0.00  0.00    +0.128 A 
ENDROOT
BRANCH   6   7
ATOM      7  S   UNL     1       3.089  -5.667   2.946  0.00  0.00    +0.058 S 
ATOM      8  O   UNL     1       2.792  -4.288   2.771  0.00  0.00    -0.153 OA
ATOM      9  O   UNL     1       4.308  -6.116   3.522  0.00  0.00    -0.153 OA
BRANCH   7  10
ATOM     10  N   UNL     1       2.987  -6.367   1.449  0.00  0.00    -0.203 NA
ATOM     11  H   UNL     1       3.277  -5.878   0.664  0.00  0.00    +0.144 HD
ATOM     12  H   UNL     1       2.637  -7.267   1.358  0.00  0.00    +0.144 HD
ENDBRANCH   7  10
ENDBRANCH   6   7
BRANCH   4  13
ATOM     13  N   UNL     1       1.391  -8.478   6.981  0.00  0.00    +0.056 N 
ATOM     14  O   UNL     1       0.501  -8.946   7.652  0.00  0.00    -0.126 OA
ATOM     15  O   UNL     1       2.545  -8.690   7.274  0.00  0.00    -0.126 OA
ENDBRANCH   4  13
BRANCH   1  16
ATOM     16  N   UNL     1       0.161  -5.309   2.476  0.00  0.00    -0.338 N 
ATOM     17  H   UNL     1       0.875  -4.937   1.935  0.00  0.00    +0.146 HD
BRANCH  16  18
ATOM     18  C   UNL     1      -1.237  -5.048   2.124  0.00  0.00    +0.137 C 
BRANCH  18  23
ATOM     19  C   UNL     1      -1.359  -2.014  -0.120  0.00  0.00    -0.064 A 
ATOM     20  C   UNL     1      -1.393  -2.598  -1.372  0.00  0.00    +0.002 A 
ATOM     21  C   UNL     1      -1.377  -3.974  -1.493  0.00  0.00    +0.001 A 
ATOM     22  C   UNL     1      -1.326  -4.768  -0.362  0.00  0.00    +0.005 A 
ATOM     23  C   UNL     1      -1.292  -4.184   0.890  0.00  0.00    -0.030 A 
ATOM     24  C   UNL     1      -1.303  -2.806   1.011  0.00  0.00    +0.007 A 
BRANCH  19  25
ATOM     25  C   UNL     1      -1.376  -0.512   0.012  0.00  0.00    -0.044 C 
BRANCH  25  27
ATOM     26  C   UNL     1      -0.018   1.465   0.010  0.00  0.00    -0.096 C 
ATOM     27  N   UNL     1       0.002  -0.004   0.002  0.00  0.00    +0.379 N 
ATOM     28  C   UNL     1       0.713  -0.491   1.192  0.00  0.00    -0.096 C 
ATOM     29  H   UNL     1       0.474  -0.330  -0.828  0.00  0.00    -0.082 HD
ENDBRANCH  25  27
ENDBRANCH  19  25
ENDBRANCH  18  23
ENDBRANCH  16  18
ENDBRANCH   1  16
TORSDOF 8
