REMARK  Name = ZINC64074590
REMARK  12 active torsions:
REMARK  status: ('A' for Active; 'I' for Inactive)
REMARK    1  A    between atoms: C_1  and  C_2
REMARK    2  A    between atoms: C_2  and  C_3
REMARK    3  A    between atoms: C_3  and  C_5
REMARK    4  A    between atoms: C_3  and  N_16
REMARK    5  A    between atoms: C_11  and  C_15
REMARK    6  A    between atoms: N_16  and  C_17
REMARK    7  A    between atoms: N_20  and  C_23
REMARK    8  A    between atoms: C_26  and  N_29
REMARK    9  A    between atoms: N_29  and  S_30
REMARK   10  A    between atoms: S_30  and  N_33
REMARK   11  A    between atoms: N_33  and  C_34
REMARK   12  A    between atoms: N_33  and  C_35
REMARK                            x       y       z     vdW  Elec       q    Type
REMARK                         _______ _______ _______ _____ _____    ______ ____
ROOT
ATOM      1  C   UNL     1      -0.367   1.022  -2.784  0.00  0.00    -0.068 C 
ATOM      2  C   UNL     1      -0.934   1.977  -1.731  0.00  0.00    +0.003 C 
ATOM      3  C   UNL     1      -0.990   3.394  -2.310  0.00  0.00    +0.103 C 
ATOM      4  N   UNL     1      -1.749   3.363  -3.567  0.00  0.00    -0.330 N 
ATOM      5  C   UNL     1      -1.343   2.415  -4.614  0.00  0.00    +0.103 C 
ATOM      6  C   UNL     1      -1.283   1.009  -4.010  0.00  0.00    +0.003 C 
ENDROOT
BRANCH   4   7
ATOM      7  C   UNL     1      -2.839   4.219  -3.764  0.00  0.00    +0.030 A 
ATOM      8  C   UNL     1      -3.138   5.191  -2.818  0.00  0.00    +0.025 A 
ATOM      9  C   UNL     1      -4.214   6.035  -3.012  0.00  0.00    +0.026 A 
ATOM     10  C   UNL     1      -4.996   5.912  -4.153  0.00  0.00    +0.049 A 
ATOM     11  C   UNL     1      -4.697   4.941  -5.098  0.00  0.00    +0.026 A 
ATOM     12  C   UNL     1      -3.618   4.100  -4.907  0.00  0.00    +0.025 A 
BRANCH  10  13
ATOM     13  N   UNL     1      -6.087   6.768  -4.349  0.00  0.00    -0.206 N 
ATOM     14  H   UNL     1      -6.713   6.929  -3.626  0.00  0.00    +0.175 HD
BRANCH  13  15
ATOM     15  S   UNL     1      -6.307   7.505  -5.815  0.00  0.00    +0.111 S 
ATOM     16  O   UNL     1      -6.272   6.477  -6.796  0.00  0.00    -0.138 OA
ATOM     17  O   UNL     1      -7.418   8.379  -5.667  0.00  0.00    -0.138 OA
BRANCH  15  18
ATOM     18  N   UNL     1      -4.984   8.463  -6.086  0.00  0.00    -0.170 NA
ATOM     19  C   UNL     1      -3.868   7.960  -6.892  0.00  0.00    +0.132 C 
ATOM     20  C   UNL     1      -4.928   9.813  -5.519  0.00  0.00    +0.132 C 
ENDBRANCH  15  18
ENDBRANCH  13  15
ENDBRANCH  10  13
ENDBRANCH   4   7
BRANCH   1  21
ATOM     21  N   UNL     1      -0.281  -0.332  -2.222  0.00  0.00    +0.385 N 
ATOM     22  H   UNL     1       0.082  -0.964  -2.920  0.00  0.00    -0.085 HD
ATOM     23  H   UNL     1      -1.200  -0.637  -1.938  0.00  0.00    -0.085 HD
BRANCH  21  24
ATOM     24  C   UNL     1       0.614  -0.323  -1.057  0.00  0.00    -0.028 C 
BRANCH  24  25
ATOM     25  C   UNL     1       2.043  -0.022  -1.515  0.00  0.00    +0.159 C 
ATOM     26  N   UNL     1       2.227   1.426  -1.673  0.00  0.00    -0.365 N 
ATOM     27  C   UNL     1       3.167   1.792  -0.850  0.00  0.00    +0.060 A 
ATOM     28  C   UNL     1       3.786   3.092  -0.555  0.00  0.00    +0.027 A 
ATOM     29  C   UNL     1       4.763   3.169   0.370  0.00  0.00    +0.005 A 
ATOM     30  C   UNL     1       5.226   2.046   1.079  0.00  0.00    -0.048 A 
ATOM     31  C   UNL     1       4.727   0.808   0.886  0.00  0.00    +0.030 A 
ATOM     32  C   UNL     1       3.657   0.604  -0.100  0.00  0.00    +0.060 A 
ATOM     33  N   UNL     1       3.002  -0.453  -0.489  0.00  0.00    -0.365 N 
ATOM     34  C   UNL     1       6.323   2.233   2.094  0.00  0.00    +0.044 C 
ATOM     35  H   UNL     1       1.739   2.003  -2.280  0.00  0.00    +0.162 HD
ATOM     36  H   UNL     1       3.123  -1.358  -0.161  0.00  0.00    +0.162 HD
ENDBRANCH  24  25
BRANCH  24  38
ATOM     37  C   UNL     1      -0.824  -1.936   0.197  0.00  0.00    +0.002 C 
ATOM     38  C   UNL     1       0.575  -1.691  -0.373  0.00  0.00    -0.015 C 
ENDBRANCH  24  38
ENDBRANCH  21  24
ENDBRANCH   1  21
TORSDOF 8
