REMARK  Name = ZINC50468384
REMARK  2 active torsions:
REMARK  status: ('A' for Active; 'I' for Inactive)
REMARK    1  A    between atoms: N_3  and  C_7
REMARK    2  A    between atoms: C_7  and  C_8
REMARK                            x       y       z     vdW  Elec       q    Type
REMARK                         _______ _______ _______ _____ _____    ______ ____
ROOT
ATOM      1  C   UNL     1       4.053  -0.055   1.127  0.00  0.00    +0.240 C 
ATOM      2  O   UNL     1       3.277  -0.595   1.887  0.00  0.00    -0.273 OA
ATOM      3  N   UNL     1       5.381  -0.185   1.315  0.00  0.00    -0.263 N 
ATOM      4  C   UNL     1       5.862  -0.938   2.380  0.00  0.00    +0.165 A 
ATOM      5  N   UNL     1       5.181  -1.591   3.290  0.00  0.00    -0.229 NA
ATOM      6  C   UNL     1       5.782  -2.283   4.268  0.00  0.00    +0.054 A 
ATOM      7  C   UNL     1       7.134  -2.248   4.239  0.00  0.00    +0.014 A 
ATOM      8  S   UNL     1       7.460  -1.240   2.812  0.00  0.00    -0.057 S 
ATOM      9  C   UNL     1       7.744  -3.034   5.359  0.00  0.00    +0.045 C 
ATOM     10  C   UNL     1       6.591  -3.234   6.369  0.00  0.00    +0.011 C 
ATOM     11  C   UNL     1       5.351  -3.139   5.456  0.00  0.00    +0.056 C 
ATOM     12  H   UNL     1       6.002   0.247   0.708  0.00  0.00    +0.157 HD
ENDROOT
BRANCH   1  13
ATOM     13  C   UNL     1       3.532   0.761  -0.028  0.00  0.00    +0.239 C 
BRANCH  13  16
ATOM     14  C   UNL     1      -0.017   1.400   0.010  0.00  0.00    +0.064 A 
ATOM     15  C   UNL     1       1.264   1.832  -0.000  0.00  0.00    +0.111 A 
ATOM     16  N   UNL     1       2.067   0.748  -0.014  0.00  0.00    -0.261 N 
ATOM     17  N   UNL     1       1.255  -0.394  -0.012  0.00  0.00    -0.156 NA
ATOM     18  C   UNL     1       0.002  -0.004   0.002  0.00  0.00    +0.138 A 
ATOM     19  N   UNL     1      -1.119  -0.842   0.009  0.00  0.00    -0.342 N 
ATOM     20  H   UNL     1      -2.011  -0.459   0.019  0.00  0.00    +0.144 HD
ATOM     21  H   UNL     1      -1.005  -1.805   0.002  0.00  0.00    +0.144 HD
ENDBRANCH  13  16
ENDBRANCH   1  13
TORSDOF 2
