REMARK  Name = ZINC35493362
REMARK  7 active torsions:
REMARK  status: ('A' for Active; 'I' for Inactive)
REMARK    1  A    between atoms: N_7  and  C_21
REMARK    2  A    between atoms: N_10  and  S_11
REMARK    3  A    between atoms: S_11  and  C_14
REMARK    4  A    between atoms: C_21  and  C_22
REMARK    5  A    between atoms: N_24  and  C_25
REMARK    6  A    between atoms: C_25  and  C_26
REMARK    7  A    between atoms: C_26  and  N_27
REMARK                            x       y       z     vdW  Elec       q    Type
REMARK                         _______ _______ _______ _____ _____    ______ ____
ROOT
ATOM      1  C   UNL     1      -0.017   1.377   0.010  0.00  0.00    +0.002 A 
ATOM      2  C   UNL     1       1.169   2.091   0.002  0.00  0.00    +0.002 A 
ATOM      3  C   UNL     1       2.381   1.429  -0.013  0.00  0.00    +0.030 A 
ATOM      4  C   UNL     1       2.410   0.043  -0.021  0.00  0.00    +0.094 A 
ATOM      5  C   UNL     1       1.214  -0.678  -0.013  0.00  0.00    +0.072 A 
ATOM      6  C   UNL     1       0.002  -0.004   0.002  0.00  0.00    +0.028 A 
ATOM      7  N   UNL     1       1.557  -2.028  -0.023  0.00  0.00    -0.282 N 
ATOM      8  C   UNL     1       2.900  -2.124  -0.036  0.00  0.00    +0.351 A 
ATOM      9  O   UNL     1       3.528  -3.166  -0.047  0.00  0.00    -0.245 OA
ATOM     10  N   UNL     1       3.443  -0.892  -0.035  0.00  0.00    -0.159 N 
ENDROOT
BRANCH  10  11
ATOM     11  S   UNL     1       5.062  -0.546  -0.048  0.00  0.00    +0.088 S 
ATOM     12  O   UNL     1       5.714  -1.677  -0.610  0.00  0.00    -0.147 OA
ATOM     13  O   UNL     1       5.194   0.759  -0.594  0.00  0.00    -0.147 OA
BRANCH  11  14
ATOM     14  C   UNL     1       5.587  -0.446   1.631  0.00  0.00    +0.111 A 
ATOM     15  C   UNL     1       5.538   0.763   2.299  0.00  0.00    +0.030 A 
ATOM     16  C   UNL     1       5.949   0.843   3.616  0.00  0.00    +0.017 A 
ATOM     17  C   UNL     1       6.410  -0.288   4.266  0.00  0.00    +0.018 A 
ATOM     18  C   UNL     1       6.459  -1.498   3.597  0.00  0.00    +0.017 A 
ATOM     19  C   UNL     1       6.043  -1.577   2.281  0.00  0.00    +0.030 A 
ATOM     20 BR   UNL     1       6.974  -0.180   6.068  0.00  0.00    -0.050 Br
ENDBRANCH  11  14
ENDBRANCH  10  11
BRANCH   7  21
ATOM     21  C   UNL     1       0.617  -3.151  -0.019  0.00  0.00    +0.222 C 
BRANCH  21  22
ATOM     22  C   UNL     1       0.281  -3.530  -1.439  0.00  0.00    +0.233 C 
ATOM     23  O   UNL     1       0.778  -2.921  -2.362  0.00  0.00    -0.274 OA
ATOM     24  N   UNL     1      -0.572  -4.545  -1.682  0.00  0.00    -0.316 N 
ATOM     25  H   UNL     1      -0.969  -5.032  -0.943  0.00  0.00    +0.149 HD
BRANCH  24  26
ATOM     26  C   UNL     1      -0.898  -4.913  -3.062  0.00  0.00    +0.086 C 
BRANCH  26  27
ATOM     27  C   UNL     1      -1.880  -6.086  -3.058  0.00  0.00    -0.060 C 
BRANCH  27  28
ATOM     28  N   UNL     1      -2.208  -6.455  -4.441  0.00  0.00    +0.381 N 
ATOM     29  C   UNL     1      -2.919  -5.345  -5.087  0.00  0.00    -0.079 C 
ATOM     30  C   UNL     1      -3.191  -5.692  -6.552  0.00  0.00    -0.019 C 
ATOM     31  C   UNL     1      -4.049  -6.959  -6.620  0.00  0.00    -0.004 C 
ATOM     32  C   UNL     1      -3.331  -8.090  -5.880  0.00  0.00    -0.019 C 
ATOM     33  C   UNL     1      -3.054  -7.655  -4.439  0.00  0.00    -0.079 C 
ATOM     34  H   UNL     1      -1.356  -6.646  -4.948  0.00  0.00    -0.082 HD
ENDBRANCH  27  28
ENDBRANCH  26  27
ENDBRANCH  24  26
ENDBRANCH  21  22
ENDBRANCH   7  21
TORSDOF 7
