REMARK  Name = ZINC67332075
REMARK  8 active torsions:
REMARK  status: ('A' for Active; 'I' for Inactive)
REMARK    1  A    between atoms: C_1  and  C_2
REMARK    2  A    between atoms: C_4  and  S_24
REMARK    3  A    between atoms: C_6  and  C_7
REMARK    4  A    between atoms: N_9  and  C_10
REMARK    5  A    between atoms: C_10  and  C_11
REMARK    6  A    between atoms: N_16  and  C_17
REMARK    7  A    between atoms: C_17  and  C_18
REMARK    8  A    between atoms: S_24  and  N_27
REMARK                            x       y       z     vdW  Elec       q    Type
REMARK                         _______ _______ _______ _____ _____    ______ ____
ROOT
ATOM      1  C   UNL     1      -0.115  -0.542   2.197  0.00  0.00    +0.251 C 
ATOM      2  O   UNL     1      -0.129   0.668   2.329  0.00  0.00    -0.270 OA
ATOM      3  N   UNL     1      -0.043  -1.338   3.282  0.00  0.00    -0.312 N 
ATOM      4  H   UNL     1      -0.032  -2.302   3.176  0.00  0.00    +0.149 HD
ENDROOT
BRANCH   1  10
ATOM      5  C   UNL     1      -0.286   1.000  -0.504  0.00  0.00    +0.045 C 
ATOM      6  C   UNL     1      -0.253  -0.500  -0.375  0.00  0.00    -0.029 A 
ATOM      7  C   UNL     1      -0.291  -1.330  -1.470  0.00  0.00    +0.040 A 
ATOM      8  C   UNL     1      -0.258  -2.672  -1.282  0.00  0.00    +0.143 A 
ATOM      9  S   UNL     1      -0.173  -2.852   0.386  0.00  0.00    -0.064 S 
ATOM     10  C   UNL     1      -0.176  -1.133   0.857  0.00  0.00    +0.079 A 
BRANCH   8  11
ATOM     11  S   UNL     1      -0.295  -3.938  -2.507  0.00  0.00    +0.062 S 
ATOM     12  O   UNL     1      -0.794  -5.106  -1.869  0.00  0.00    -0.153 OA
ATOM     13  O   UNL     1      -0.913  -3.374  -3.655  0.00  0.00    -0.153 OA
BRANCH  11  14
ATOM     14  N   UNL     1       1.274  -4.261  -2.925  0.00  0.00    -0.203 NA
ATOM     15  H   UNL     1       1.999  -3.775  -2.501  0.00  0.00    +0.144 HD
ATOM     16  H   UNL     1       1.469  -4.937  -3.593  0.00  0.00    +0.144 HD
ENDBRANCH  11  14
ENDBRANCH   8  11
ENDBRANCH   1  10
BRANCH   3  17
ATOM     17  C   UNL     1       0.018  -0.747   4.621  0.00  0.00    +0.089 C 
BRANCH  17  18
ATOM     18  C   UNL     1       0.093  -1.861   5.667  0.00  0.00    -0.051 C 
ATOM     19  C   UNL     1      -0.013  -1.258   7.084  0.00  0.00    -0.016 C 
ATOM     20  C   UNL     1      -1.514  -1.440   7.430  0.00  0.00    -0.020 C 
ATOM     21  C   UNL     1      -1.829  -2.797   6.752  0.00  0.00    -0.078 C 
ATOM     22  N   UNL     1      -1.042  -2.786   5.497  0.00  0.00    +0.383 N 
ATOM     23  H   UNL     1      -1.623  -2.474   4.733  0.00  0.00    -0.081 HD
BRANCH  22  24
ATOM     24  C   UNL     1      -0.540  -4.137   5.213  0.00  0.00    -0.075 C 
BRANCH  24  25
ATOM     25  C   UNL     1      -1.716  -5.064   4.900  0.00  0.00    -0.028 C 
ATOM     26  C   UNL     1      -1.208  -6.498   4.743  0.00  0.00    +0.002 C 
ATOM     27  C   UNL     1      -2.385  -7.425   4.430  0.00  0.00    +0.000 C 
ATOM     28  C   UNL     1      -3.056  -6.976   3.130  0.00  0.00    +0.000 C 
ATOM     29  C   UNL     1      -3.564  -5.541   3.287  0.00  0.00    +0.000 C 
ATOM     30  C   UNL     1      -2.387  -4.615   3.600  0.00  0.00    +0.002 C 
ENDBRANCH  24  25
ENDBRANCH  22  24
ENDBRANCH  17  18
ENDBRANCH   3  17
TORSDOF 7
