REMARK  Name = ZINC36063788
REMARK  7 active torsions:
REMARK  status: ('A' for Active; 'I' for Inactive)
REMARK    1  A    between atoms: C_1  and  N_2
REMARK    2  A    between atoms: C_8  and  C_10
REMARK    3  A    between atoms: C_14  and  N_16
REMARK    4  A    between atoms: N_16  and  C_17
REMARK    5  A    between atoms: C_18  and  O_31
REMARK    6  A    between atoms: N_21  and  C_24
REMARK    7  A    between atoms: O_31  and  C_32
REMARK                            x       y       z     vdW  Elec       q    Type
REMARK                         _______ _______ _______ _____ _____    ______ ____
ROOT
ATOM      1  C   UNL     1       6.268  -6.999   3.263  0.00  0.00    +0.143 A 
ATOM      2  C   UNL     1       5.843  -8.271   3.609  0.00  0.00    +0.174 A 
ATOM      3  C   UNL     1       5.986  -8.710   4.937  0.00  0.00    +0.181 A 
ATOM      4  N   UNL     1       6.514  -7.929   5.840  0.00  0.00    -0.168 NA
ATOM      5  N   UNL     1       6.951  -6.641   5.516  0.00  0.00    -0.195 N 
ATOM      6  C   UNL     1       6.841  -6.178   4.255  0.00  0.00    +0.297 A 
ATOM      7  O   UNL     1       7.229  -5.054   3.976  0.00  0.00    -0.264 OA
ENDROOT
BRANCH   5   8
ATOM      8  C   UNL     1       7.513  -5.828   6.507  0.00  0.00    +0.069 A 
ATOM      9  C   UNL     1       8.540  -6.315   7.306  0.00  0.00    +0.029 A 
ATOM     10  C   UNL     1       9.093  -5.511   8.284  0.00  0.00    +0.022 A 
ATOM     11  C   UNL     1       8.625  -4.222   8.467  0.00  0.00    +0.041 A 
ATOM     12  C   UNL     1       7.602  -3.734   7.673  0.00  0.00    +0.022 A 
ATOM     13  C   UNL     1       7.049  -4.532   6.690  0.00  0.00    +0.029 A 
ATOM     14 CL   UNL     1       9.322  -3.214   9.697  0.00  0.00    -0.084 Cl
ENDBRANCH   5   8
BRANCH   1  15
ATOM     15  N   UNL     1       6.136  -6.539   1.948  0.00  0.00    -0.307 N 
ATOM     16  H   UNL     1       6.575  -7.011   1.223  0.00  0.00    +0.152 HD
BRANCH  15  21
ATOM     17  C   UNL     1       4.603  -3.717   0.142  0.00  0.00    +0.039 A 
ATOM     18  C   UNL     1       3.850  -3.136   1.165  0.00  0.00    +0.013 A 
ATOM     19  C   UNL     1       3.863  -3.688   2.430  0.00  0.00    +0.003 A 
ATOM     20  C   UNL     1       4.619  -4.815   2.690  0.00  0.00    +0.023 A 
ATOM     21  C   UNL     1       5.373  -5.401   1.680  0.00  0.00    +0.032 A 
ATOM     22  C   UNL     1       5.362  -4.857   0.403  0.00  0.00    +0.036 A 
BRANCH  17  30
ATOM     23  C   UNL     1       7.009   1.683  -1.754  0.00  0.00    -0.096 C 
ATOM     24  N   UNL     1       5.908   0.717  -1.654  0.00  0.00    +0.380 N 
ATOM     25  C   UNL     1       6.013  -0.258  -2.747  0.00  0.00    -0.060 C 
ATOM     26  C   UNL     1       4.803  -1.197  -2.712  0.00  0.00    +0.089 C 
ATOM     27  N   UNL     1       4.716  -1.795  -1.371  0.00  0.00    -0.301 N 
ATOM     28  C   UNL     1       4.769  -0.898  -0.206  0.00  0.00    +0.089 C 
ATOM     29  C   UNL     1       5.981   0.027  -0.360  0.00  0.00    -0.060 C 
ATOM     30  C   UNL     1       4.591  -3.128  -1.214  0.00  0.00    +0.247 C 
ATOM     31  O   UNL     1       4.469  -3.846  -2.187  0.00  0.00    -0.270 OA
ATOM     32  H   UNL     1       5.027   1.204  -1.725  0.00  0.00    -0.082 HD
ENDBRANCH  17  30
ENDBRANCH  15  21
ENDBRANCH   1  15
BRANCH   2  33
ATOM     33  O   UNL     1       5.293  -9.087   2.675  0.00  0.00    -0.452 OA
BRANCH  33  34
ATOM     34  C   UNL     1       3.985  -9.427   2.816  0.00  0.00    +0.129 A 
ATOM     35  C   UNL     1       3.224  -8.860   3.829  0.00  0.00    +0.046 A 
ATOM     36  C   UNL     1       1.895  -9.208   3.970  0.00  0.00    +0.004 A 
ATOM     37  C   UNL     1       1.322 -10.120   3.104  0.00  0.00    +0.000 A 
ATOM     38  C   UNL     1       2.077 -10.687   2.093  0.00  0.00    +0.004 A 
ATOM     39  C   UNL     1       3.405 -10.338   1.944  0.00  0.00    +0.046 A 
ENDBRANCH  33  34
ENDBRANCH   2  33
TORSDOF 6
