REMARK  Name = ZINC11181951
REMARK  11 active torsions:
REMARK  status: ('A' for Active; 'I' for Inactive)
REMARK    1  A    between atoms: C_1  and  C_2
REMARK    2  A    between atoms: C_2  and  C_3
REMARK    3  A    between atoms: C_2  and  C_4
REMARK    4  A    between atoms: C_2  and  N_5
REMARK    5  A    between atoms: C_9  and  C_11
REMARK    6  A    between atoms: C_11  and  O_12
REMARK    7  A    between atoms: O_12  and  C_13
REMARK    8  A    between atoms: C_13  and  C_15
REMARK    9  A    between atoms: C_16  and  C_28
REMARK   10  A    between atoms: C_19  and  N_20
REMARK   11  A    between atoms: C_21  and  C_23
REMARK                            x       y       z     vdW  Elec       q    Type
REMARK                         _______ _______ _______ _____ _____    ______ ____
ROOT
ATOM      1  C   UNL     1      -1.291   1.926   0.019  0.00  0.00    +0.095 A 
ATOM      2  C   UNL     1      -1.949   2.291   1.259  0.00  0.00    +0.005 A 
ATOM      3  C   UNL     1      -3.130   2.952   1.152  0.00  0.00    +0.056 A 
ATOM      4  S   UNL     1      -3.365   3.089  -0.608  0.00  0.00    -0.080 S 
ATOM      5  C   UNL     1      -1.929   2.294  -1.159  0.00  0.00    +0.087 A 
ENDROOT
BRANCH   2   6
ATOM      6  C   UNL     1      -1.362   1.958   2.578  0.00  0.00    -0.017 A 
ATOM      7  C   UNL     1      -0.939   0.657   2.848  0.00  0.00    +0.008 A 
ATOM      8  C   UNL     1      -0.388   0.354   4.076  0.00  0.00    +0.001 A 
ATOM      9  C   UNL     1      -0.265   1.335   5.043  0.00  0.00    +0.000 A 
ATOM     10  C   UNL     1      -0.688   2.626   4.784  0.00  0.00    +0.001 A 
ATOM     11  C   UNL     1      -1.235   2.943   3.557  0.00  0.00    +0.008 A 
ENDBRANCH   2   6
BRANCH   5  12
ATOM     12  N   UNL     1      -1.517   2.074  -2.462  0.00  0.00    -0.275 N 
ATOM     13  C   UNL     1      -2.275   2.507  -3.490  0.00  0.00    +0.255 C 
ATOM     14  O   UNL     1      -3.320   3.090  -3.272  0.00  0.00    -0.269 OA
ATOM     15  H   UNL     1      -0.684   1.610  -2.635  0.00  0.00    +0.156 HD
BRANCH  13  16
ATOM     16  C   UNL     1      -1.838   2.275  -4.869  0.00  0.00    +0.074 A 
ATOM     17  C   UNL     1      -2.461   2.633  -6.055  0.00  0.00    +0.021 A 
ATOM     18  C   UNL     1      -1.827   2.289  -7.223  0.00  0.00    +0.008 A 
ATOM     19  C   UNL     1      -0.642   1.627  -7.164  0.00  0.00    +0.046 A 
ATOM     20  S   UNL     1      -0.363   1.464  -5.461  0.00  0.00    -0.092 S 
ENDBRANCH  13  16
ENDBRANCH   5  12
BRANCH   1  21
ATOM     21  C   UNL     1      -0.014   1.212   0.009  0.00  0.00    +0.343 C 
ATOM     22  O   UNL     1       0.002  -0.004   0.002  0.00  0.00    -0.245 OA
BRANCH  21  23
ATOM     23  O   UNL     1       1.145   1.903   0.001  0.00  0.00    -0.452 OA
BRANCH  23  24
ATOM     24  C   UNL     1       2.353   1.141  -0.014  0.00  0.00    +0.328 C 
BRANCH  24  29
ATOM     25  N   UNL     1       7.098   1.914  -0.055  0.00  0.00    -0.294 N 
ATOM     26  C   UNL     1       5.846   2.412  -0.041  0.00  0.00    +0.306 C 
ATOM     27  O   UNL     1       5.670   3.615  -0.033  0.00  0.00    -0.252 OA
ATOM     28  N   UNL     1       4.788   1.577  -0.035  0.00  0.00    -0.237 N 
ATOM     29  C   UNL     1       3.536   2.075  -0.021  0.00  0.00    +0.258 C 
ATOM     30  O   UNL     1       3.361   3.275  -0.012  0.00  0.00    -0.272 OA
ATOM     31  H   UNL     1       7.238   0.954  -0.062  0.00  0.00    +0.151 HD
ATOM     32  H   UNL     1       4.928   0.617  -0.042  0.00  0.00    +0.159 HD
BRANCH  25  34
ATOM     33  C   UNL     1       8.213   3.698   1.193  0.00  0.00    +0.031 C 
ATOM     34  C   UNL     1       8.248   2.822  -0.061  0.00  0.00    +0.028 C 
ATOM     35  C   UNL     1       9.542   2.007  -0.078  0.00  0.00    +0.031 C 
ATOM     36  C   UNL     1       8.189   3.711  -1.306  0.00  0.00    +0.031 C 
ENDBRANCH  25  34
ENDBRANCH  24  29
ENDBRANCH  23  24
ENDBRANCH  21  23
ENDBRANCH   1  21
TORSDOF 8
