REMARK  Name = ZINC33457009
REMARK  6 active torsions:
REMARK  status: ('A' for Active; 'I' for Inactive)
REMARK    1  A    between atoms: C_1  and  C_2
REMARK    2  A    between atoms: N_11  and  C_12
REMARK    3  A    between atoms: C_12  and  C_14
REMARK    4  A    between atoms: C_12  and  C_16
REMARK    5  A    between atoms: C_14  and  N_15
REMARK    6  A    between atoms: C_25  and  O_26
REMARK                            x       y       z     vdW  Elec       q    Type
REMARK                         _______ _______ _______ _____ _____    ______ ____
ROOT
ATOM      1  C   UNL     1      -1.516  -0.498   0.205  0.00  0.00    +0.091 C 
ENDROOT
BRANCH   1  11
ATOM      2  C   UNL     1      -3.470  -0.076  -2.363  0.00  0.00    +0.028 C 
ATOM      3  C   UNL     1      -3.002  -1.284  -1.549  0.00  0.00    +0.075 C 
ATOM      4  C   UNL     1      -2.940  -2.554  -2.429  0.00  0.00    +0.059 C 
ATOM      5  C   UNL     1      -1.728  -3.282  -1.885  0.00  0.00    -0.025 A 
ATOM      6  C   UNL     1      -1.304  -4.587  -2.027  0.00  0.00    +0.005 A 
ATOM      7  C   UNL     1      -0.141  -5.009  -1.409  0.00  0.00    +0.000 A 
ATOM      8  C   UNL     1       0.596  -4.121  -0.648  0.00  0.00    +0.002 A 
ATOM      9  C   UNL     1       0.178  -2.814  -0.505  0.00  0.00    +0.023 A 
ATOM     10  C   UNL     1      -0.991  -2.380  -1.127  0.00  0.00    +0.034 A 
ATOM     11  N   UNL     1      -1.595  -1.117  -1.125  0.00  0.00    -0.321 N 
ENDBRANCH   1  11
BRANCH   1  12
ATOM     12  C   UNL     1      -0.186   0.195   0.359  0.00  0.00    +0.020 A 
ATOM     13  C   UNL     1       0.030   1.078   1.429  0.00  0.00    -0.010 A 
ATOM     14  C   UNL     1      -0.978   1.341   2.373  0.00  0.00    +0.009 A 
ATOM     15  C   UNL     1      -0.731   2.197   3.401  0.00  0.00    +0.001 A 
ATOM     16  C   UNL     1       0.504   2.830   3.527  0.00  0.00    +0.001 A 
ATOM     17  C   UNL     1       1.502   2.604   2.629  0.00  0.00    +0.008 A 
ATOM     18  C   UNL     1       1.287   1.721   1.558  0.00  0.00    -0.017 A 
ATOM     19  C   UNL     1       2.294   1.464   0.611  0.00  0.00    +0.012 A 
ATOM     20  C   UNL     1       2.053   0.604  -0.414  0.00  0.00    +0.046 A 
ATOM     21  C   UNL     1       0.814  -0.031  -0.543  0.00  0.00    +0.122 A 
BRANCH  21  22
ATOM     22  O   UNL     1       0.603  -0.885  -1.578  0.00  0.00    -0.506 OA
ATOM     23  H   UNL     1       1.404  -1.073  -2.308  0.00  0.00    +0.292 HD
ENDBRANCH  21  22
ENDBRANCH   1  12
BRANCH   1  24
ATOM     24  C   UNL     1      -1.655  -1.578   1.279  0.00  0.00    -0.059 C 
BRANCH  24  25
ATOM     25  N   UNL     1      -2.859  -2.378   1.016  0.00  0.00    +0.380 N 
ATOM     26  H   UNL     1      -2.959  -3.155   1.788  0.00  0.00    -0.090 HD
ATOM     27  H   UNL     1      -2.774  -2.853   0.027  0.00  0.00    -0.090 HD
ATOM     28  H   UNL     1      -3.744  -1.726   1.035  0.00  0.00    -0.090 HD
ENDBRANCH  24  25
ENDBRANCH   1  24
TORSDOF 5
