REMARK  Name = ZINC48638643
REMARK  4 active torsions:
REMARK  status: ('A' for Active; 'I' for Inactive)
REMARK    1  A    between atoms: C_10  and  O_12
REMARK    2  A    between atoms: O_12  and  C_13
REMARK    3  A    between atoms: C_13  and  C_15
REMARK    4  A    between atoms: C_18  and  O_22
REMARK                            x       y       z     vdW  Elec       q    Type
REMARK                         _______ _______ _______ _____ _____    ______ ____
ROOT
ATOM      1  O   UNL     1       4.626   0.001   0.838  0.00  0.00    -0.458 OA
ENDROOT
BRANCH   1  11
ATOM      2  C   UNL     1      -0.017   1.375   0.010  0.00  0.00    +0.000 A 
ATOM      3  C   UNL     1       1.174   2.078   0.002  0.00  0.00    +0.000 A 
ATOM      4  C   UNL     1       2.372   1.395  -0.016  0.00  0.00    +0.007 A 
ATOM      5  C   UNL     1       2.393   0.006  -0.025  0.00  0.00    -0.004 A 
ATOM      6  C   UNL     1       1.208  -0.694  -0.013  0.00  0.00    -0.041 A 
ATOM      7  C   UNL     1       0.002  -0.004   0.002  0.00  0.00    +0.004 A 
ATOM      8  C   UNL     1       1.155  -2.199  -0.005  0.00  0.00    +0.035 C 
ATOM      9  C   UNL     1       2.493  -2.786  -0.452  0.00  0.00    +0.009 C 
ATOM     10  C   UNL     1       3.607  -2.135   0.376  0.00  0.00    +0.050 C 
ATOM     11  C   UNL     1       3.736  -0.675  -0.053  0.00  0.00    +0.207 C 
ENDBRANCH   1  11
BRANCH   1  12
ATOM     12  C   UNL     1       5.351   1.008   0.327  0.00  0.00    +0.294 C 
ATOM     13  O   UNL     1       5.235   1.306  -0.839  0.00  0.00    -0.253 OA
BRANCH  12  14
ATOM     14  C   UNL     1       6.311   1.768   1.206  0.00  0.00    +0.042 C 
ATOM     15  C   UNL     1       5.565   2.857   2.017  0.00  0.00    +0.024 C 
ATOM     16  C   UNL     1       6.681   3.881   2.329  0.00  0.00    +0.097 C 
ATOM     17  C   UNL     1       7.764   3.633   1.262  0.00  0.00    -0.050 C 
ATOM     18  N   UNL     1       7.271   2.548   0.383  0.00  0.00    +0.390 N 
ATOM     19  H   UNL     1       8.036   1.960   0.089  0.00  0.00    -0.085 HD
ATOM     20  H   UNL     1       6.802   2.939  -0.420  0.00  0.00    -0.085 HD
BRANCH  16  21
ATOM     21  O   UNL     1       7.209   3.655   3.637  0.00  0.00    -0.394 OA
ATOM     22  H   UNL     1       7.914   4.268   3.888  0.00  0.00    +0.210 HD
ENDBRANCH  16  21
ENDBRANCH  12  14
ENDBRANCH   1  12
TORSDOF 4
