REMARK  Name = ZINC43568047
REMARK  2 active torsions:
REMARK  status: ('A' for Active; 'I' for Inactive)
REMARK    1  A    between atoms: C_4  and  N_8
REMARK    2  A    between atoms: C_6  and  N_7
REMARK                            x       y       z     vdW  Elec       q    Type
REMARK                         _______ _______ _______ _____ _____    ______ ____
ROOT
ATOM      1  N   UNL     1       3.634  -0.513  -0.038  0.00  0.00    -0.314 N 
ATOM      2  C   UNL     1       3.731  -1.977   0.057  0.00  0.00    +0.125 C 
ATOM      3  C   UNL     1       4.532  -2.493  -1.144  0.00  0.00    +0.126 C 
ATOM      4  N   UNL     1       5.768  -1.707  -1.258  0.00  0.00    -0.307 N 
ATOM      5  C   UNL     1       5.671  -0.244  -1.352  0.00  0.00    +0.126 C 
ATOM      6  C   UNL     1       4.870   0.273  -0.157  0.00  0.00    +0.125 C 
ATOM      7  C   UNL     1       7.004  -2.335  -1.274  0.00  0.00    +0.161 A 
ATOM      8  N   UNL     1       7.269  -3.622  -1.205  0.00  0.00    -0.233 NA
ATOM      9  C   UNL     1       8.514  -4.065  -1.234  0.00  0.00    +0.120 A 
ATOM     10  C   UNL     1       9.495  -3.137  -1.337  0.00  0.00    +0.068 A 
ATOM     11  S   UNL     1       8.530  -1.636  -1.395  0.00  0.00    -0.061 S 
ENDROOT
BRANCH   1  15
ATOM     12  C   UNL     1      -0.017   1.392   0.011  0.00  0.00    +0.040 A 
ATOM     13  C   UNL     1       1.176   2.081   0.029  0.00  0.00    +0.086 A 
ATOM     14  N   UNL     1       2.331   1.440   0.013  0.00  0.00    -0.350 N 
ATOM     15  C   UNL     1       2.394   0.116  -0.021  0.00  0.00    +0.101 A 
ATOM     16  C   UNL     1       1.235  -0.648  -0.040  0.00  0.00    +0.064 A 
ATOM     17  C   UNL     1       0.002  -0.004  -0.024  0.00  0.00    +0.029 A 
ATOM     18  H   UNL     1       3.155   1.951   0.026  0.00  0.00    +0.166 HD
BRANCH  17  19
ATOM     19  N   UNL     1      -1.184  -0.733  -0.043  0.00  0.00    -0.358 N 
ATOM     20  H   UNL     1      -2.037  -0.271  -0.031  0.00  0.00    +0.142 HD
ATOM     21  H   UNL     1      -1.157  -1.702  -0.067  0.00  0.00    +0.142 HD
ENDBRANCH  17  19
ENDBRANCH   1  15
TORSDOF 2
