REMARK  Name = ZINC25148325
REMARK  6 active torsions:
REMARK  status: ('A' for Active; 'I' for Inactive)
REMARK    1  A    between atoms: C_1  and  C_2
REMARK    2  A    between atoms: C_2  and  C_25
REMARK    3  A    between atoms: C_3  and  C_4
REMARK    4  A    between atoms: C_6  and  C_11
REMARK    5  A    between atoms: C_8  and  C_9
REMARK    6  A    between atoms: C_8  and  C_10
REMARK                            x       y       z     vdW  Elec       q    Type
REMARK                         _______ _______ _______ _____ _____    ______ ____
ROOT
ATOM      1  C   UNL     1      -0.014   1.209   0.009  0.00  0.00    +0.220 C 
ATOM      2  O   UNL     1       0.002  -0.004   0.002  0.00  0.00    -0.275 OA
ATOM      3  N   UNL     1      -1.191   1.867   0.018  0.00  0.00    -0.301 N 
ATOM      4  C   UNL     1      -1.225   3.335   0.032  0.00  0.00    +0.110 C 
ATOM      5  C   UNL     1      -2.083   3.801   1.208  0.00  0.00    +0.054 C 
ATOM      6  C   UNL     1      -3.449   3.127   1.138  0.00  0.00    +0.115 C 
ATOM      7  C   UNL     1      -3.309   1.610   1.202  0.00  0.00    +0.054 C 
ATOM      8  C   UNL     1      -2.460   1.127   0.020  0.00  0.00    +0.110 C 
ATOM      9  C   UNL     1      -4.339   3.621   2.256  0.00  0.00    +0.244 C 
ATOM     10  O   UNL     1      -4.149   3.512   3.448  0.00  0.00    -0.273 OA
ATOM     11  N   UNL     1      -5.388   4.210   1.647  0.00  0.00    -0.238 N 
ATOM     12  C   UNL     1      -5.280   4.154   0.314  0.00  0.00    +0.307 C 
ATOM     13  O   UNL     1      -6.104   4.616  -0.452  0.00  0.00    -0.252 OA
ATOM     14  N   UNL     1      -4.157   3.526  -0.085  0.00  0.00    -0.285 N 
ATOM     15  H   UNL     1      -6.193   4.659   2.248  0.00  0.00    +0.159 HD
ATOM     16  H   UNL     1      -3.729   3.290  -1.070  0.00  0.00    +0.151 HD
ENDROOT
BRANCH   1  18
ATOM     17  C   UNL     1       2.127   1.925  -1.273  0.00  0.00    +0.030 C 
ATOM     18  C   UNL     1       1.280   1.980   0.001  0.00  0.00    +0.089 C 
ATOM     19  C   UNL     1       2.582   1.175  -0.018  0.00  0.00    -0.016 C 
ATOM     20  C   UNL     1       3.775   1.745   0.751  0.00  0.00    +0.012 C 
ATOM     21  C   UNL     1       2.469  -0.350  -0.027  0.00  0.00    +0.012 C 
BRANCH  17  24
ATOM     22  C   UNL     1       3.403   2.039  -3.782  0.00  0.00    +0.038 C 
ATOM     23  C   UNL     1       2.196   1.157  -3.590  0.00  0.00    -0.079 C 
ATOM     24  C   UNL     1       1.602   1.105  -2.423  0.00  0.00    -0.023 C 
ATOM     25  C   UNL     1       1.671   0.337  -4.739  0.00  0.00    +0.038 C 
ENDBRANCH  17  24
ENDBRANCH   1  18
TORSDOF 2
