REMARK  Name = ZINC63654902
REMARK  8 active torsions:
REMARK  status: ('A' for Active; 'I' for Inactive)
REMARK    1  A    between atoms: C_1  and  O_2
REMARK    2  A    between atoms: O_2  and  C_3
REMARK    3  A    between atoms: C_6  and  C_9
REMARK    4  A    between atoms: C_11  and  S_19
REMARK    5  A    between atoms: S_19  and  C_20
REMARK    6  A    between atoms: C_20  and  C_21
REMARK    7  A    between atoms: C_21  and  N_22
REMARK    8  A    between atoms: C_23  and  C_25
REMARK                            x       y       z     vdW  Elec       q    Type
REMARK                         _______ _______ _______ _____ _____    ______ ____
ROOT
ATOM      1  C   UNL     1      -6.050  -3.372   4.054  0.00  0.00    +0.093 C 
ENDROOT
BRANCH   1   2
ATOM      2  S   UNL     1      -5.524  -2.188   2.784  0.00  0.00    -0.125 S 
BRANCH   2   4
ATOM      3  C   UNL     1      -5.089  -2.618   0.009  0.00  0.00    +0.147 C 
ATOM      4  C   UNL     1      -5.389  -3.107   1.409  0.00  0.00    +0.021 C 
ATOM      5  C   UNL     1      -5.528  -4.487   1.303  0.00  0.00    +0.010 A 
ATOM      6  C   UNL     1      -5.809  -5.492   2.255  0.00  0.00    +0.011 A 
ATOM      7  C   UNL     1      -5.888  -6.789   1.862  0.00  0.00    +0.001 A 
ATOM      8  C   UNL     1      -5.697  -7.162   0.530  0.00  0.00    +0.002 A 
ATOM      9  C   UNL     1      -5.425  -6.250  -0.436  0.00  0.00    +0.026 A 
ATOM     10  C   UNL     1      -5.327  -4.875  -0.101  0.00  0.00    +0.044 A 
ATOM     11  N   UNL     1      -5.077  -3.811  -0.844  0.00  0.00    -0.373 N 
ATOM     12  H   UNL     1      -4.911  -3.817  -1.799  0.00  0.00    +0.161 HD
BRANCH   3  16
ATOM     13  C   UNL     1      -1.272  -0.698  -0.092  0.00  0.00    +0.120 A 
ATOM     14  C   UNL     1      -2.432   0.063  -0.049  0.00  0.00    +0.046 A 
ATOM     15  C   UNL     1      -3.664  -0.561  -0.016  0.00  0.00    +0.009 A 
ATOM     16  C   UNL     1      -3.743  -1.941  -0.027  0.00  0.00    -0.020 A 
ATOM     17  C   UNL     1      -2.589  -2.701  -0.070  0.00  0.00    +0.009 A 
ATOM     18  C   UNL     1      -1.354  -2.083  -0.108  0.00  0.00    +0.046 A 
BRANCH  13  20
ATOM     19  C   UNL     1      -0.051   1.342  -0.105  0.00  0.00    +0.277 C 
ATOM     20  O   UNL     1      -0.059  -0.087  -0.124  0.00  0.00    -0.495 OA
ENDBRANCH  13  20
ENDBRANCH   3  16
ENDBRANCH   2   4
ENDBRANCH   1   2
BRANCH   1  21
ATOM     21  C   UNL     1      -6.358  -2.624   5.352  0.00  0.00    +0.115 C 
BRANCH  21  22
ATOM     22  N   UNL     1      -6.782  -3.581   6.378  0.00  0.00    -0.314 N 
ATOM     23  C   UNL     1      -7.108  -3.146   7.611  0.00  0.00    +0.221 C 
ATOM     24  O   UNL     1      -7.139  -1.957   7.847  0.00  0.00    -0.275 OA
ATOM     25  H   UNL     1      -6.829  -4.527   6.169  0.00  0.00    +0.149 HD
BRANCH  23  26
ATOM     26  C   UNL     1      -7.433  -4.138   8.698  0.00  0.00    +0.119 C 
ATOM     27  C   UNL     1      -6.159  -4.581   9.376  0.00  0.00    +0.007 A 
ATOM     28  C   UNL     1      -5.049  -4.850   8.593  0.00  0.00    +0.008 A 
ATOM     29  C   UNL     1      -3.865  -5.257   9.178  0.00  0.00    +0.001 A 
ATOM     30  C   UNL     1      -3.786  -5.398  10.551  0.00  0.00    +0.004 A 
ATOM     31  C   UNL     1      -4.888  -5.130  11.336  0.00  0.00    +0.046 A 
ATOM     32  C   UNL     1      -6.082  -4.719  10.751  0.00  0.00    +0.125 A 
ATOM     33  O   UNL     1      -7.145  -4.462  11.560  0.00  0.00    -0.484 OA
ATOM     34  C   UNL     1      -8.433  -4.416  10.948  0.00  0.00    +0.204 C 
ATOM     35  C   UNL     1      -8.350  -3.482   9.732  0.00  0.00    +0.073 C 
ATOM     36  C   UNL     1      -9.728  -3.284   9.162  0.00  0.00    -0.018 C 
ATOM     37  C   UNL     1     -10.772  -3.207   9.984  0.00  0.00    -0.004 C 
ATOM     38  C   UNL     1     -10.565  -3.305  11.439  0.00  0.00    -0.001 C 
ATOM     39  C   UNL     1      -9.460  -3.891  11.915  0.00  0.00    +0.017 C 
ENDBRANCH  23  26
ENDBRANCH  21  22
ENDBRANCH   1  21
TORSDOF 7
