REMARK  Name = ZINC36159987
REMARK  11 active torsions:
REMARK  status: ('A' for Active; 'I' for Inactive)
REMARK    1  A    between atoms: C_1  and  C_2
REMARK    2  A    between atoms: C_2  and  C_4
REMARK    3  A    between atoms: C_2  and  O_26
REMARK    4  A    between atoms: C_4  and  N_5
REMARK    5  A    between atoms: N_5  and  C_6
REMARK    6  A    between atoms: N_5  and  C_11
REMARK    7  A    between atoms: C_6  and  C_7
REMARK    8  A    between atoms: C_7  and  C_8
REMARK    9  A    between atoms: C_8  and  C_9
REMARK   10  A    between atoms: C_8  and  C_10
REMARK   11  A    between atoms: C_11  and  C_12
REMARK                            x       y       z     vdW  Elec       q    Type
REMARK                         _______ _______ _______ _____ _____    ______ ____
ROOT
ATOM      1  C   UNL     1      -3.223  -2.445  -1.390  0.00  0.00    +0.094 A 
ATOM      2  N   UNL     1      -4.480  -2.887  -1.651  0.00  0.00    -0.312 N 
ATOM      3  H   UNL     1      -5.010  -3.264  -0.931  0.00  0.00    +0.170 HD
ATOM      4  C   UNL     1      -5.006  -2.813  -2.889  0.00  0.00    +0.260 A 
ATOM      5  O   UNL     1      -6.136  -3.214  -3.108  0.00  0.00    -0.267 OA
ATOM      6  C   UNL     1      -4.213  -2.254  -3.942  0.00  0.00    +0.075 A 
ATOM      7  C   UNL     1      -4.578  -2.075  -5.356  0.00  0.00    -0.023 A 
ATOM      8  C   UNL     1      -3.652  -1.522  -6.157  0.00  0.00    -0.004 A 
ATOM      9  S   UNL     1      -2.258  -1.206  -5.099  0.00  0.00    -0.073 S 
ATOM     10  C   UNL     1      -2.930  -1.824  -3.579  0.00  0.00    +0.116 A 
ATOM     11  N   UNL     1      -2.479  -1.925  -2.330  0.00  0.00    -0.229 NA
ATOM     12  C   UNL     1      -4.133  -1.393  -7.577  0.00  0.00    +0.043 C 
ATOM     13  C   UNL     1      -5.349  -2.341  -7.662  0.00  0.00    +0.010 C 
ATOM     14  C   UNL     1      -5.823  -2.374  -6.195  0.00  0.00    +0.037 C 
ENDROOT
BRANCH   1  15
ATOM     15  C   UNL     1      -2.679  -2.549   0.011  0.00  0.00    -0.003 C 
BRANCH  15  16
ATOM     16  N   UNL     1      -1.315  -2.005   0.048  0.00  0.00    +0.386 N 
ATOM     17  H   UNL     1      -0.749  -2.467  -0.649  0.00  0.00    -0.081 HD
BRANCH  16  18
ATOM     18  C   UNL     1      -1.355  -0.563  -0.232  0.00  0.00    -0.047 C 
BRANCH  18  20
ATOM     19  C   UNL     1      -1.946   1.670   0.720  0.00  0.00    +0.035 C 
ATOM     20  C   UNL     1      -2.074   0.157   0.911  0.00  0.00    +0.095 C 
BRANCH  20  21
ATOM     21  O   UNL     1      -3.455  -0.208   0.909  0.00  0.00    -0.394 OA
ATOM     22  H   UNL     1      -3.989   0.269   1.560  0.00  0.00    +0.210 HD
ENDBRANCH  20  21
ENDBRANCH  18  20
ENDBRANCH  16  18
BRANCH  16  23
ATOM     23  C   UNL     1      -0.733  -2.230   1.378  0.00  0.00    -0.078 C 
BRANCH  23  24
ATOM     24  C   UNL     1       0.720  -1.752   1.387  0.00  0.00    -0.016 C 
BRANCH  24  25
ATOM     25  C   UNL     1       1.366  -2.107   2.728  0.00  0.00    -0.019 C 
ATOM     26  C   UNL     1       2.851  -1.742   2.691  0.00  0.00    +0.007 C 
ATOM     27  C   UNL     1       0.676  -1.328   3.849  0.00  0.00    +0.007 C 
ENDBRANCH  24  25
ENDBRANCH  23  24
ENDBRANCH  16  23
ENDBRANCH  15  16
ENDBRANCH   1  15
TORSDOF 8
