REMARK  Name = ZINC14960111
REMARK  13 active torsions:
REMARK  status: ('A' for Active; 'I' for Inactive)
REMARK    1  A    between atoms: C_1  and  C_2
REMARK    2  A    between atoms: C_2  and  C_3
REMARK    3  A    between atoms: C_3  and  N_4
REMARK    4  A    between atoms: N_4  and  C_5
REMARK    5  A    between atoms: N_4  and  C_8
REMARK    6  A    between atoms: C_5  and  C_6
REMARK    7  A    between atoms: C_6  and  O_7
REMARK    8  A    between atoms: C_8  and  C_9
REMARK    9  A    between atoms: C_14  and  N_23
REMARK   10  A    between atoms: C_15  and  C_21
REMARK   11  A    between atoms: C_16  and  O_18
REMARK   12  A    between atoms: O_18  and  C_19
REMARK   13  A    between atoms: C_19  and  C_20
REMARK                            x       y       z     vdW  Elec       q    Type
REMARK                         _______ _______ _______ _____ _____    ______ ____
ROOT
ATOM      1  C   UNL     1      -2.640  -4.068   0.235  0.00  0.00    +0.202 C 
ATOM      2  O   UNL     1      -1.587  -4.660   0.342  0.00  0.00    -0.278 OA
ATOM      3  N   UNL     1      -3.803  -4.747   0.283  0.00  0.00    -0.272 N 
ATOM      4  C   UNL     1      -3.801  -6.111   0.556  0.00  0.00    +0.130 A 
ATOM      5  C   UNL     1      -4.991  -6.822   0.490  0.00  0.00    +0.068 A 
ATOM      6  C   UNL     1      -4.986  -8.184   0.763  0.00  0.00    +0.051 A 
ATOM      7  C   UNL     1      -3.759  -8.794   1.100  0.00  0.00    +0.134 A 
ATOM      8  C   UNL     1      -2.602  -8.003   1.144  0.00  0.00    +0.236 A 
ATOM      9  N   UNL     1      -2.660  -6.711   0.870  0.00  0.00    -0.197 NA
ATOM     10  H   UNL     1      -4.641  -4.285   0.127  0.00  0.00    +0.156 HD
ENDROOT
BRANCH   6  11
ATOM     11  N   UNL     1      -6.157  -8.926   0.707  0.00  0.00    -0.357 N 
ATOM     12  H   UNL     1      -6.994  -8.494   0.474  0.00  0.00    +0.142 HD
ATOM     13  H   UNL     1      -6.139  -9.876   0.900  0.00  0.00    +0.142 HD
ENDBRANCH   6  11
BRANCH   7  14
ATOM     14  C   UNL     1      -3.697 -10.194   1.391  0.00  0.00    +0.106 C 
ATOM     15  N   UNL     1      -3.647 -11.305   1.623  0.00  0.00    -0.191 NA
ENDBRANCH   7  14
BRANCH   1  16
ATOM     16  C   UNL     1      -2.648  -2.573   0.047  0.00  0.00    +0.019 C 
BRANCH  16  17
ATOM     17  N   UNL     1      -1.266  -2.074   0.029  0.00  0.00    +0.387 N 
ATOM     18  H   UNL     1      -0.790  -2.372   0.867  0.00  0.00    -0.081 HD
BRANCH  17  19
ATOM     19  C   UNL     1      -1.276  -0.607  -0.034  0.00  0.00    -0.078 C 
BRANCH  19  21
ATOM     20  C   UNL     1      -1.764   1.481   1.250  0.00  0.00    +0.002 C 
ATOM     21  C   UNL     1      -1.876  -0.045   1.257  0.00  0.00    -0.022 C 
ENDBRANCH  19  21
ENDBRANCH  17  19
BRANCH  17  22
ATOM     22  C   UNL     1      -0.568  -2.610  -1.148  0.00  0.00    -0.050 C 
BRANCH  22  23
ATOM     23  C   UNL     1       0.909  -2.217  -1.087  0.00  0.00    +0.137 C 
BRANCH  23  24
ATOM     24  O   UNL     1       1.514  -2.814   0.063  0.00  0.00    -0.397 OA
ATOM     25  H   UNL     1       2.453  -2.608   0.165  0.00  0.00    +0.209 HD
ENDBRANCH  23  24
ENDBRANCH  22  23
ENDBRANCH  17  22
ENDBRANCH  16  17
ENDBRANCH   1  16
BRANCH   8  26
ATOM     26  O   UNL     1      -1.414  -8.568   1.466  0.00  0.00    -0.476 OA
BRANCH  26  27
ATOM     27  C   UNL     1      -0.273  -7.709   1.494  0.00  0.00    +0.227 C 
ATOM     28  C   UNL     1       0.968  -8.520   1.874  0.00  0.00    +0.048 C 
ENDBRANCH  26  27
ENDBRANCH   8  26
TORSDOF 11
