REMARK  Name = ZINC39631742
REMARK  14 active torsions:
REMARK  status: ('A' for Active; 'I' for Inactive)
REMARK    1  A    between atoms: C_1  and  C_2
REMARK    2  A    between atoms: C_2  and  S_3
REMARK    3  A    between atoms: S_3  and  C_4
REMARK    4  A    between atoms: C_5  and  C_10
REMARK    5  A    between atoms: C_14  and  C_23
REMARK    6  A    between atoms: N_25  and  C_26
REMARK    7  A    between atoms: C_26  and  C_28
REMARK    8  A    between atoms: C_26  and  C_29
REMARK    9  A    between atoms: C_29  and  C_30
REMARK   10  A    between atoms: C_30  and  C_31
REMARK   11  A    between atoms: C_31  and  C_32
REMARK   12  A    between atoms: C_32  and  C_33
REMARK   13  A    between atoms: C_32  and  C_34
REMARK   14  A    between atoms: C_32  and  O_35
REMARK                            x       y       z     vdW  Elec       q    Type
REMARK                         _______ _______ _______ _____ _____    ______ ____
ROOT
ATOM      1  C   UNL     1      -4.160  -2.475   0.091  0.00  0.00    +0.249 C 
ATOM      2  O   UNL     1      -4.379  -1.284   0.208  0.00  0.00    -0.270 OA
ATOM      3  N   UNL     1      -5.186  -3.339  -0.038  0.00  0.00    -0.296 N 
ATOM      4  C   UNL     1      -5.127  -4.819  -0.084  0.00  0.00    +0.121 C 
ATOM      5  C   UNL     1      -6.352  -5.285   0.734  0.00  0.00    +0.100 C 
ATOM      6  C   UNL     1      -7.335  -4.104   0.675  0.00  0.00    -0.004 C 
ATOM      7  C   UNL     1      -6.630  -3.024  -0.159  0.00  0.00    +0.115 C 
ATOM      8  C   UNL     1      -7.614  -3.578   2.080  0.00  0.00    -0.010 C 
ATOM      9  C   UNL     1      -8.637  -2.441   2.001  0.00  0.00    -0.082 C 
ATOM     10  N   UNL     1      -9.875  -2.937   1.388  0.00  0.00    +0.379 N 
ATOM     11  C   UNL     1      -9.617  -3.355   0.005  0.00  0.00    -0.082 C 
ATOM     12  C   UNL     1      -8.635  -4.530  -0.001  0.00  0.00    -0.010 C 
ATOM     13  H   UNL     1     -10.219  -3.724   1.917  0.00  0.00    -0.086 HD
ATOM     14  H   UNL     1     -10.568  -2.204   1.393  0.00  0.00    -0.086 HD
ENDROOT
BRANCH   1  16
ATOM     15  C   UNL     1      -1.794  -2.365   0.896  0.00  0.00    +0.109 A 
ATOM     16  C   UNL     1      -2.773  -2.973   0.090  0.00  0.00    +0.069 A 
ATOM     17  C   UNL     1      -2.406  -4.059  -0.712  0.00  0.00    +0.017 A 
ATOM     18  C   UNL     1      -1.091  -4.488  -0.675  0.00  0.00    +0.020 A 
ATOM     19  C   UNL     1      -0.184  -3.839   0.143  0.00  0.00    +0.112 A 
ATOM     20  N   UNL     1      -0.547  -2.814   0.888  0.00  0.00    -0.248 NA
BRANCH  15  21
ATOM     21  S   UNL     1      -2.225  -0.995   1.917  0.00  0.00    -0.105 S 
BRANCH  21  23
ATOM     22  C   UNL     1      -0.906   0.636   3.672  0.00  0.00    +0.015 C 
ATOM     23  C   UNL     1      -0.671  -0.556   2.743  0.00  0.00    +0.072 C 
ENDBRANCH  21  23
ENDBRANCH  15  21
ENDBRANCH   1  16
BRANCH   5  24
ATOM     24  C   UNL     1      -5.954  -5.569   2.159  0.00  0.00    +0.218 C 
ATOM     25  O   UNL     1      -5.054  -4.941   2.674  0.00  0.00    -0.275 OA
ATOM     26  N   UNL     1      -6.599  -6.522   2.862  0.00  0.00    -0.312 N 
ATOM     27  H   UNL     1      -7.319  -7.024   2.450  0.00  0.00    +0.149 HD
BRANCH  26  28
ATOM     28  C   UNL     1      -6.212  -6.798   4.247  0.00  0.00    +0.070 C 
ATOM     29  C   UNL     1      -5.043  -7.785   4.263  0.00  0.00    +0.028 C 
BRANCH  28  30
ATOM     30  C   UNL     1      -7.400  -7.404   4.997  0.00  0.00    +0.022 C 
BRANCH  30  31
ATOM     31  C   UNL     1      -8.525  -6.370   5.090  0.00  0.00    +0.005 C 
BRANCH  31  32
ATOM     32  C   UNL     1      -9.713  -6.976   5.840  0.00  0.00    +0.034 C 
BRANCH  32  33
ATOM     33  C   UNL     1     -10.838  -5.942   5.932  0.00  0.00    +0.061 C 
ATOM     34  C   UNL     1     -11.277  -5.539   4.523  0.00  0.00    +0.041 C 
ATOM     35  C   UNL     1     -12.026  -6.548   6.682  0.00  0.00    +0.041 C 
BRANCH  33  36
ATOM     36  O   UNL     1     -10.369  -4.789   6.634  0.00  0.00    -0.389 OA
ATOM     37  H   UNL     1     -10.074  -4.971   7.536  0.00  0.00    +0.210 HD
ENDBRANCH  33  36
ENDBRANCH  32  33
ENDBRANCH  31  32
ENDBRANCH  30  31
ENDBRANCH  28  30
ENDBRANCH  26  28
ENDBRANCH   5  24
TORSDOF 10
