REMARK  Name = ZINC66786875
REMARK  4 active torsions:
REMARK  status: ('A' for Active; 'I' for Inactive)
REMARK    1  A    between atoms: C_1  and  C_2
REMARK    2  A    between atoms: C_12  and  C_14
REMARK    3  A    between atoms: N_19  and  S_21
REMARK    4  A    between atoms: S_21  and  C_24
REMARK                            x       y       z     vdW  Elec       q    Type
REMARK                         _______ _______ _______ _____ _____    ______ ____
ROOT
ATOM      1  C   UNL     1      -1.335   1.766   0.840  0.00  0.00    +0.045 C 
ATOM      2  C   UNL     1      -1.391   0.273   0.648  0.00  0.00    -0.029 A 
ATOM      3  C   UNL     1      -2.221  -0.268  -0.314  0.00  0.00    +0.008 A 
ATOM      4  C   UNL     1      -2.272  -1.638  -0.490  0.00  0.00    +0.039 A 
ATOM      5  C   UNL     1      -1.495  -2.469   0.297  0.00  0.00    +0.128 A 
ATOM      6  C   UNL     1      -0.660  -1.933   1.266  0.00  0.00    +0.009 A 
ATOM      7  C   UNL     1      -0.603  -0.559   1.436  0.00  0.00    +0.045 A 
ATOM      8  N   UNL     1       0.242   0.012   2.397  0.00  0.00    -0.271 N 
ATOM      9  C   UNL     1       0.844  -0.856   3.418  0.00  0.00    +0.114 C 
ATOM     10  C   UNL     1       1.363  -2.117   2.715  0.00  0.00    +0.024 C 
ATOM     11  C   UNL     1       0.170  -2.865   2.110  0.00  0.00    +0.041 C 
ATOM     12  C   UNL     1       0.499   1.335   2.385  0.00  0.00    +0.224 C 
ATOM     13  O   UNL     1       0.544   1.934   1.331  0.00  0.00    -0.275 OA
ATOM     14  F   UNL     1      -1.550  -3.807   0.122  0.00  0.00    -0.205 F 
ENDROOT
BRANCH  12  15
ATOM     15  C   UNL     1       0.731   2.070   3.680  0.00  0.00    +0.091 C 
ATOM     16  C   UNL     1      -0.509   1.944   4.568  0.00  0.00    +0.015 C 
ATOM     17  C   UNL     1      -0.262   2.662   5.897  0.00  0.00    +0.018 C 
ATOM     18  C   UNL     1      -0.007   4.149   5.629  0.00  0.00    +0.109 C 
ATOM     19  N   UNL     1       1.092   4.274   4.662  0.00  0.00    -0.181 NA
ATOM     20  C   UNL     1       0.998   3.550   3.388  0.00  0.00    +0.121 C 
BRANCH  19  21
ATOM     21  S   UNL     1       2.412   5.214   5.003  0.00  0.00    +0.029 S 
ATOM     22  O   UNL     1       2.917   5.602   3.733  0.00  0.00    -0.158 OA
ATOM     23  O   UNL     1       1.936   6.188   5.922  0.00  0.00    -0.158 OA
ATOM     24  C   UNL     1       3.580   4.096   5.825  0.00  0.00    +0.215 C 
ENDBRANCH  19  21
ENDBRANCH  12  15
TORSDOF 2
