REMARK  Name = ZINC53711792
REMARK  6 active torsions:
REMARK  status: ('A' for Active; 'I' for Inactive)
REMARK    1  A    between atoms: C_1  and  C_2
REMARK    2  A    between atoms: N_5  and  C_11
REMARK    3  A    between atoms: C_7  and  C_10
REMARK    4  A    between atoms: C_14  and  S_20
REMARK    5  A    between atoms: C_16  and  N_17
REMARK    6  A    between atoms: S_20  and  N_23
REMARK                            x       y       z     vdW  Elec       q    Type
REMARK                         _______ _______ _______ _____ _____    ______ ____
ROOT
ATOM      1  C   UNL     1      -2.111  -2.817  -0.738  0.00  0.00    +0.060 A 
ATOM      2  C   UNL     1      -1.525  -3.262  -1.916  0.00  0.00    +0.027 A 
ATOM      3  C   UNL     1      -2.239  -4.070  -2.778  0.00  0.00    +0.030 A 
ATOM      4  C   UNL     1      -3.537  -4.435  -2.470  0.00  0.00    +0.107 A 
ATOM      5  C   UNL     1      -4.124  -3.993  -1.299  0.00  0.00    +0.063 A 
ATOM      6  C   UNL     1      -3.413  -3.189  -0.429  0.00  0.00    +0.149 A 
ENDROOT
BRANCH   1  10
ATOM      7  C   UNL     1      -0.019   1.526   0.010  0.00  0.00    -0.012 C 
ATOM      8  C   UNL     1       0.002  -0.004   0.002  0.00  0.00    -0.057 C 
ATOM      9  C   UNL     1      -1.435  -0.535   0.013  0.00  0.00    +0.089 C 
ATOM     10  N   UNL     1      -1.391  -2.000   0.137  0.00  0.00    -0.331 N 
ATOM     11  C   UNL     1      -0.566  -2.580   1.208  0.00  0.00    +0.089 C 
ATOM     12  C   UNL     1       0.830  -1.953   1.140  0.00  0.00    -0.057 C 
ATOM     13  N   UNL     1       0.712  -0.491   1.192  0.00  0.00    +0.384 N 
ATOM     14  C   UNL     1       1.511  -2.365  -0.167  0.00  0.00    -0.012 C 
ATOM     15  H   UNL     1       1.633  -0.081   1.223  0.00  0.00    -0.085 HD
ATOM     16  H   UNL     1       0.200  -0.225   2.019  0.00  0.00    -0.085 HD
ENDBRANCH   1  10
BRANCH   6  17
ATOM     17  N   UNL     1      -4.039  -2.722   0.827  0.00  0.00    +0.058 N 
ATOM     18  O   UNL     1      -5.172  -3.047   1.095  0.00  0.00    -0.126 OA
ATOM     19  O   UNL     1      -3.418  -2.014   1.586  0.00  0.00    -0.126 OA
ENDBRANCH   6  17
BRANCH   4  20
ATOM     20  S   UNL     1      -4.446  -5.466  -3.574  0.00  0.00    +0.056 S 
ATOM     21  O   UNL     1      -5.822  -5.217  -3.321  0.00  0.00    -0.153 OA
ATOM     22  O   UNL     1      -3.864  -5.297  -4.859  0.00  0.00    -0.153 OA
BRANCH  20  23
ATOM     23  N   UNL     1      -4.159  -7.035  -3.127  0.00  0.00    -0.204 NA
ATOM     24  H   UNL     1      -3.576  -7.226  -2.375  0.00  0.00    +0.144 HD
ATOM     25  H   UNL     1      -4.573  -7.762  -3.616  0.00  0.00    +0.144 HD
ENDBRANCH  20  23
ENDBRANCH   4  20
TORSDOF 4
