REMARK  Name = ZINC33771687
REMARK  6 active torsions:
REMARK  status: ('A' for Active; 'I' for Inactive)
REMARK    1  A    between atoms: C_5  and  C_7
REMARK    2  A    between atoms: C_7  and  N_8
REMARK    3  A    between atoms: N_11  and  C_14
REMARK    4  A    between atoms: C_17  and  N_21
REMARK    5  A    between atoms: C_22  and  C_24
REMARK    6  A    between atoms: C_26  and  N_31
REMARK                            x       y       z     vdW  Elec       q    Type
REMARK                         _______ _______ _______ _____ _____    ______ ____
ROOT
ATOM      1  C   UNL     1      -8.632  -2.160  -0.243  0.00  0.00    +0.048 A 
ATOM      2  C   UNL     1      -8.588  -0.772  -0.238  0.00  0.00    +0.026 A 
ATOM      3  C   UNL     1      -7.375  -0.119  -0.145  0.00  0.00    +0.025 A 
ATOM      4  C   UNL     1      -6.197  -0.851  -0.068  0.00  0.00    +0.035 A 
ATOM      5  C   UNL     1      -6.239  -2.238  -0.072  0.00  0.00    +0.045 A 
ATOM      6  C   UNL     1      -7.453  -2.892  -0.160  0.00  0.00    +0.064 A 
ATOM      7 CL   UNL     1      -7.507  -4.627  -0.165  0.00  0.00    -0.082 Cl
ENDROOT
BRANCH   1  11
ATOM      8  N   UNL     1     -12.694  -2.983  -0.575  0.00  0.00    +0.384 N 
ATOM      9  C   UNL     1     -12.033  -3.270   0.706  0.00  0.00    -0.059 C 
ATOM     10  C   UNL     1     -10.733  -2.468   0.797  0.00  0.00    +0.086 C 
ATOM     11  N   UNL     1      -9.862  -2.822  -0.332  0.00  0.00    -0.332 N 
ATOM     12  C   UNL     1     -10.522  -2.535  -1.613  0.00  0.00    +0.086 C 
ATOM     13  C   UNL     1     -11.823  -3.337  -1.704  0.00  0.00    -0.059 C 
ATOM     14  H   UNL     1     -12.889  -1.902  -0.623  0.00  0.00    -0.081 HD
BRANCH   8  15
ATOM     15  C   UNL     1     -13.985  -3.678  -0.668  0.00  0.00    -0.041 C 
BRANCH  15  20
ATOM     16  C   UNL     1     -16.313  -2.881   2.195  0.00  0.00    +0.000 A 
ATOM     17  C   UNL     1     -16.859  -1.679   1.782  0.00  0.00    +0.001 A 
ATOM     18  C   UNL     1     -16.475  -1.125   0.575  0.00  0.00    +0.020 A 
ATOM     19  C   UNL     1     -15.544  -1.771  -0.218  0.00  0.00    +0.042 A 
ATOM     20  C   UNL     1     -14.998  -2.973   0.196  0.00  0.00    -0.046 A 
ATOM     21  C   UNL     1     -15.387  -3.529   1.400  0.00  0.00    +0.003 A 
ATOM     22 CL   UNL     1     -15.062  -1.075  -1.734  0.00  0.00    -0.083 Cl
ENDBRANCH  15  20
ENDBRANCH   8  15
ENDBRANCH   1  11
BRANCH   4  23
ATOM     23  N   UNL     1      -4.966  -0.188   0.021  0.00  0.00    -0.281 N 
ATOM     24  C   UNL     1      -3.876  -0.709  -0.575  0.00  0.00    +0.250 C 
ATOM     25  O   UNL     1      -3.940  -1.795  -1.117  0.00  0.00    -0.270 OA
ATOM     26  H   UNL     1      -4.890   0.758   0.577  0.00  0.00    +0.155 HD
BRANCH  24  27
ATOM     27  C   UNL     1      -2.601   0.039  -0.568  0.00  0.00    +0.057 A 
ATOM     28  C   UNL     1      -2.524   1.286   0.054  0.00  0.00    +0.047 A 
ATOM     29  C   UNL     1      -1.331   1.979   0.057  0.00  0.00    +0.127 A 
ATOM     30  C   UNL     1      -0.214   1.444  -0.560  0.00  0.00    +0.034 A 
ATOM     31  C   UNL     1      -0.281   0.206  -1.174  0.00  0.00    +0.023 A 
ATOM     32  C   UNL     1      -1.469  -0.499  -1.184  0.00  0.00    +0.053 A 
ATOM     33 CL   UNL     1      -1.553  -2.050  -1.960  0.00  0.00    -0.083 Cl
BRANCH  29  34
ATOM     34  N   UNL     1      -1.248   3.302   0.716  0.00  0.00    +0.056 N 
ATOM     35  O   UNL     1      -2.231   3.777   1.255  0.00  0.00    -0.126 OA
ATOM     36  O   UNL     1      -0.194   3.913   0.724  0.00  0.00    -0.126 OA
ENDBRANCH  29  34
ENDBRANCH  24  27
ENDBRANCH   4  23
TORSDOF 6
