REMARK  Name = ZINC61709894
REMARK  7 active torsions:
REMARK  status: ('A' for Active; 'I' for Inactive)
REMARK    1  A    between atoms: C_1  and  C_2
REMARK    2  A    between atoms: C_2  and  C_3
REMARK    3  A    between atoms: C_3  and  C_5
REMARK    4  A    between atoms: C_3  and  N_20
REMARK    5  A    between atoms: C_5  and  C_7
REMARK    6  A    between atoms: C_5  and  N_13
REMARK    7  A    between atoms: C_16  and  O_19
REMARK                            x       y       z     vdW  Elec       q    Type
REMARK                         _______ _______ _______ _____ _____    ______ ____
ROOT
ATOM      1  C   UNL     1      -1.281  -2.180  -0.283  0.00  0.00    +0.079 C 
ENDROOT
BRANCH   1   2
ATOM      2  C   UNL     1      -0.782  -2.798   0.997  0.00  0.00    +0.006 A 
ATOM      3  C   UNL     1       0.474  -3.190   1.322  0.00  0.00    +0.028 A 
ATOM      4  C   UNL     1       0.703  -3.739   2.571  0.00  0.00    +0.025 A 
ATOM      5  C   UNL     1      -0.336  -3.869   3.432  0.00  0.00    +0.060 A 
ATOM      6  S   UNL     1      -1.690  -3.197   2.482  0.00  0.00    -0.099 S 
ATOM      7 BR   UNL     1       2.439  -4.301   3.069  0.00  0.00    -0.050 Br
ENDBRANCH   1   2
BRANCH   1   8
ATOM      8  N   UNL     1      -2.518  -2.852  -0.702  0.00  0.00    -0.294 NA
ATOM      9  C   UNL     1      -2.391  -4.327  -0.578  0.00  0.00    +0.087 C 
ATOM     10  C   UNL     1      -3.478  -4.891  -1.518  0.00  0.00    +0.048 C 
ATOM     11  C   UNL     1      -3.737  -3.774  -2.549  0.00  0.00    +0.130 C 
ATOM     12  C   UNL     1      -2.783  -2.628  -2.146  0.00  0.00    +0.116 C 
BRANCH  11  13
ATOM     13  O   UNL     1      -3.433  -4.235  -3.867  0.00  0.00    -0.390 OA
ATOM     14  H   UNL     1      -3.972  -4.984  -4.156  0.00  0.00    +0.210 HD
ENDBRANCH  11  13
ENDBRANCH   1   8
BRANCH   1  15
ATOM     15  C   UNL     1      -1.560  -0.693  -0.056  0.00  0.00    -0.053 C 
BRANCH  15  16
ATOM     16  N   UNL     1      -2.114  -0.105  -1.284  0.00  0.00    +0.381 N 
ATOM     17  H   UNL     1      -1.581  -0.424  -2.079  0.00  0.00    -0.090 HD
ATOM     18  H   UNL     1      -3.076  -0.390  -1.388  0.00  0.00    -0.090 HD
ATOM     19  H   UNL     1      -2.065   0.901  -1.227  0.00  0.00    -0.090 HD
ENDBRANCH  15  16
BRANCH  15  21
ATOM     20  C   UNL     1      -0.555   1.481   0.656  0.00  0.00    +0.002 C 
ATOM     21  C   UNL     1      -0.257   0.021   0.307  0.00  0.00    -0.018 C 
ENDBRANCH  15  21
ENDBRANCH   1  15
TORSDOF 6
