REMARK  Name = ZINC67380624
REMARK  11 active torsions:
REMARK  status: ('A' for Active; 'I' for Inactive)
REMARK    1  A    between atoms: C_1  and  C_2
REMARK    2  A    between atoms: C_2  and  C_4
REMARK    3  A    between atoms: C_2  and  N_15
REMARK    4  A    between atoms: C_8  and  S_10
REMARK    5  A    between atoms: S_10  and  N_13
REMARK    6  A    between atoms: N_13  and  C_14
REMARK    7  A    between atoms: N_18  and  C_19
REMARK    8  A    between atoms: C_21  and  C_27
REMARK    9  A    between atoms: C_21  and  C_28
REMARK   10  A    between atoms: C_23  and  C_25
REMARK   11  A    between atoms: C_23  and  C_26
REMARK                            x       y       z     vdW  Elec       q    Type
REMARK                         _______ _______ _______ _____ _____    ______ ____
ROOT
ATOM      1  N   UNL     1       0.789  -0.150  -1.133  0.00  0.00    -0.293 N 
ATOM      2  C   UNL     1       2.135  -0.224  -1.150  0.00  0.00    +0.300 C 
ATOM      3  O   UNL     1       2.776   0.150  -0.187  0.00  0.00    -0.253 OA
ATOM      4  N   UNL     1       2.769  -0.712  -2.234  0.00  0.00    -0.297 N 
ATOM      5  H   UNL     1       0.277  -0.449  -1.901  0.00  0.00    +0.151 HD
ATOM      6  H   UNL     1       2.258  -1.010  -3.002  0.00  0.00    +0.151 HD
ENDROOT
BRANCH   4   7
ATOM      7  C   UNL     1       4.236  -0.791  -2.252  0.00  0.00    +0.072 C 
ATOM      8  C   UNL     1       4.805   0.541  -2.742  0.00  0.00    +0.009 C 
ATOM      9  C   UNL     1       6.331   0.470  -2.779  0.00  0.00    -0.072 C 
ATOM     10  N   UNL     1       6.809  -0.662  -3.559  0.00  0.00    +0.386 N 
ATOM     11  C   UNL     1       6.189  -1.956  -3.322  0.00  0.00    -0.072 C 
ATOM     12  C   UNL     1       4.668  -1.886  -3.227  0.00  0.00    +0.009 C 
ATOM     13  C   UNL     1       6.759  -2.637  -2.075  0.00  0.00    -0.010 C 
ATOM     14  C   UNL     1       6.532  -2.863  -4.527  0.00  0.00    -0.010 C 
ATOM     15  C   UNL     1       6.895   0.468  -1.358  0.00  0.00    -0.010 C 
ATOM     16  C   UNL     1       6.834   1.759  -3.470  0.00  0.00    -0.010 C 
ATOM     17  H   UNL     1       6.707  -0.433  -4.551  0.00  0.00    -0.084 HD
ATOM     18  H   UNL     1       7.816  -0.754  -3.408  0.00  0.00    -0.084 HD
ENDBRANCH   4   7
BRANCH   1  20
ATOM     19  C   UNL     1       0.035   1.906  -0.045  0.00  0.00    +0.033 C 
ATOM     20  C   UNL     1       0.099   0.380   0.046  0.00  0.00    +0.102 C 
BRANCH  20  21
ATOM     21  C   UNL     1      -1.299  -0.179   0.103  0.00  0.00    -0.026 A 
ATOM     22  C   UNL     1      -2.036  -0.319  -1.058  0.00  0.00    +0.005 A 
ATOM     23  C   UNL     1      -3.319  -0.832  -1.006  0.00  0.00    +0.002 A 
ATOM     24  C   UNL     1      -3.864  -1.206   0.209  0.00  0.00    +0.028 A 
ATOM     25  C   UNL     1      -3.127  -1.067   1.369  0.00  0.00    +0.106 A 
ATOM     26  C   UNL     1      -1.843  -0.558   1.316  0.00  0.00    +0.034 A 
BRANCH  25  27
ATOM     27  S   UNL     1      -3.823  -1.543   2.917  0.00  0.00    +0.058 S 
ATOM     28  O   UNL     1      -3.133  -0.805   3.916  0.00  0.00    -0.153 OA
ATOM     29  O   UNL     1      -5.234  -1.482   2.763  0.00  0.00    -0.153 OA
BRANCH  27  30
ATOM     30  N   UNL     1      -3.441  -3.136   3.156  0.00  0.00    -0.193 NA
ATOM     31  C   UNL     1      -2.042  -3.536   3.326  0.00  0.00    +0.127 C 
ATOM     32  H   UNL     1      -4.143  -3.804   3.184  0.00  0.00    +0.148 HD
ENDBRANCH  27  30
ENDBRANCH  25  27
ENDBRANCH  20  21
ENDBRANCH   1  20
TORSDOF 5
