REMARK  Name = ZINC44540546
REMARK  4 active torsions:
REMARK  status: ('A' for Active; 'I' for Inactive)
REMARK    1  A    between atoms: C_1  and  C_2
REMARK    2  A    between atoms: C_11  and  N_13
REMARK    3  A    between atoms: C_18  and  C_20
REMARK    4  A    between atoms: C_20  and  N_21
REMARK                            x       y       z     vdW  Elec       q    Type
REMARK                         _______ _______ _______ _____ _____    ______ ____
ROOT
ATOM      1  C   UNL     1       0.074   1.028  -0.593  0.00  0.00    +0.046 C 
ATOM      2  C   UNL     1       0.109  -0.470  -0.432  0.00  0.00    -0.028 A 
ATOM      3  C   UNL     1       0.156  -1.281  -1.548  0.00  0.00    +0.020 A 
ATOM      4  C   UNL     1       0.188  -2.657  -1.411  0.00  0.00    +0.019 A 
ATOM      5  C   UNL     1       0.173  -3.224  -0.147  0.00  0.00    +0.022 A 
ATOM      6  C   UNL     1       0.127  -2.417   0.967  0.00  0.00    +0.001 A 
ATOM      7  C   UNL     1       0.100  -1.034   0.842  0.00  0.00    +0.042 A 
ATOM      8  N   UNL     1       0.062  -0.437   2.103  0.00  0.00    -0.283 N 
ATOM      9  C   UNL     1       0.067  -1.343   3.095  0.00  0.00    +0.239 C 
ATOM     10  O   UNL     1       0.038  -1.109   4.285  0.00  0.00    -0.273 OA
ATOM     11  C   UNL     1       0.100  -2.711   2.449  0.00  0.00    +0.176 C 
ATOM     12 BR   UNL     1       0.250  -3.761  -2.945  0.00  0.00    -0.050 Br
ATOM     13  H   UNL     1       0.035   0.522   2.247  0.00  0.00    +0.155 HD
ENDROOT
BRANCH  11  14
ATOM     14  N   UNL     1       1.317  -3.428   2.853  0.00  0.00    -0.287 NA
ATOM     15  C   UNL     1       2.513  -2.605   2.625  0.00  0.00    +0.085 C 
ATOM     16  C   UNL     1       3.766  -3.432   2.919  0.00  0.00    +0.015 C 
ATOM     17  C   UNL     1       3.725  -3.914   4.372  0.00  0.00    +0.003 C 
ATOM     18  C   UNL     1       2.447  -4.727   4.596  0.00  0.00    +0.017 C 
ATOM     19  C   UNL     1       1.232  -3.863   4.253  0.00  0.00    +0.040 C 
BRANCH  19  20
ATOM     20  C   UNL     1      -0.047  -4.678   4.456  0.00  0.00    -0.067 C 
BRANCH  20  21
ATOM     21  N   UNL     1      -0.087  -5.777   3.482  0.00  0.00    +0.379 N 
ATOM     22  H   UNL     1       0.665  -6.422   3.673  0.00  0.00    -0.090 HD
ATOM     23  H   UNL     1      -0.970  -6.260   3.555  0.00  0.00    -0.090 HD
ATOM     24  H   UNL     1       0.017  -5.405   2.550  0.00  0.00    -0.090 HD
ENDBRANCH  20  21
ENDBRANCH  19  20
ENDBRANCH  11  14
TORSDOF 3
