REMARK  Name = ZINC59403276
REMARK  9 active torsions:
REMARK  status: ('A' for Active; 'I' for Inactive)
REMARK    1  A    between atoms: C_1  and  C_2
REMARK    2  A    between atoms: C_5  and  C_7
REMARK    3  A    between atoms: C_10  and  C_12
REMARK    4  A    between atoms: C_12  and  N_13
REMARK    5  A    between atoms: N_13  and  C_14
REMARK    6  A    between atoms: N_13  and  C_30
REMARK    7  A    between atoms: C_14  and  C_15
REMARK    8  A    between atoms: N_17  and  C_18
REMARK    9  A    between atoms: C_19  and  C_27
REMARK                            x       y       z     vdW  Elec       q    Type
REMARK                         _______ _______ _______ _____ _____    ______ ____
ROOT
ATOM      1  C   UNL     1      -3.890  -6.934  -0.309  0.00  0.00    +0.201 C 
ATOM      2  O   UNL     1      -4.596  -5.955  -0.430  0.00  0.00    -0.278 OA
ATOM      3  N   UNL     1      -4.336  -8.139  -0.714  0.00  0.00    -0.281 N 
ATOM      4  H   UNL     1      -3.771  -8.922  -0.617  0.00  0.00    +0.155 HD
ENDROOT
BRANCH   3   5
ATOM      5  C   UNL     1      -5.600  -8.261  -1.270  0.00  0.00    +0.084 A 
ATOM      6  C   UNL     1      -6.221  -9.411  -1.732  0.00  0.00    +0.068 A 
ATOM      7  C   UNL     1      -7.561  -9.270  -2.274  0.00  0.00    -0.023 A 
ATOM      8  C   UNL     1      -8.035  -8.005  -2.254  0.00  0.00    -0.004 A 
ATOM      9  S   UNL     1      -6.735  -7.050  -1.529  0.00  0.00    -0.077 S 
ATOM     10  C   UNL     1      -9.372  -7.538  -2.739  0.00  0.00    +0.043 C 
ATOM     11  C   UNL     1      -9.983  -8.646  -3.611  0.00  0.00    +0.005 C 
ATOM     12  C   UNL     1      -9.860  -9.982  -2.872  0.00  0.00    +0.005 C 
ATOM     13  C   UNL     1      -8.394 -10.418  -2.825  0.00  0.00    +0.037 C 
BRANCH   6  14
ATOM     14  C   UNL     1      -5.552 -10.714  -1.678  0.00  0.00    +0.244 C 
ATOM     15  O   UNL     1      -5.680 -11.423  -0.697  0.00  0.00    -0.270 OA
ATOM     16  N   UNL     1      -4.796 -11.128  -2.714  0.00  0.00    -0.325 N 
ATOM     17  H   UNL     1      -4.695 -10.563  -3.496  0.00  0.00    +0.145 HD
ATOM     18  H   UNL     1      -4.354 -11.990  -2.678  0.00  0.00    +0.145 HD
ENDBRANCH   6  14
ENDBRANCH   3   5
BRANCH   1  19
ATOM     19  C   UNL     1      -2.516  -6.801   0.294  0.00  0.00    +0.020 C 
BRANCH  19  20
ATOM     20  N   UNL     1      -2.271  -5.398   0.651  0.00  0.00    +0.392 N 
ATOM     21  H   UNL     1      -2.411  -4.815  -0.161  0.00  0.00    -0.080 HD
BRANCH  20  22
ATOM     22  C   UNL     1      -3.202  -4.992   1.712  0.00  0.00    -0.067 C 
ATOM     23  C   UNL     1      -4.206  -3.885   1.386  0.00  0.00    -0.017 C 
ATOM     24  C   UNL     1      -3.023  -3.596   2.313  0.00  0.00    -0.017 C 
ENDBRANCH  20  22
BRANCH  20  25
ATOM     25  C   UNL     1      -0.889  -5.248   1.127  0.00  0.00    -0.002 C 
BRANCH  25  29
ATOM     26  C   UNL     1       1.446  -6.586  -1.340  0.00  0.00    +0.108 A 
ATOM     27  C   UNL     1       1.356  -5.323  -1.794  0.00  0.00    +0.045 A 
ATOM     28  C   UNL     1       0.466  -4.641  -0.933  0.00  0.00    +0.043 A 
ATOM     29  C   UNL     1       0.066  -5.527  -0.004  0.00  0.00    +0.089 A 
ATOM     30  O   UNL     1       0.658  -6.706  -0.259  0.00  0.00    -0.466 OA
BRANCH  26  34
ATOM     31  C   UNL     1       2.113  -9.625  -3.690  0.00  0.00    +0.008 C 
ATOM     32  C   UNL     1       1.557  -8.934  -2.442  0.00  0.00    -0.003 C 
ATOM     33  C   UNL     1       2.400  -8.995  -1.167  0.00  0.00    +0.015 C 
ATOM     34  C   UNL     1       2.284  -7.683  -1.946  0.00  0.00    +0.058 C 
ENDBRANCH  26  34
ENDBRANCH  25  29
ENDBRANCH  20  25
ENDBRANCH  19  20
ENDBRANCH   1  19
TORSDOF 8
