REMARK  Name = ZINC46583259
REMARK  9 active torsions:
REMARK  status: ('A' for Active; 'I' for Inactive)
REMARK    1  A    between atoms: C_1  and  C_2
REMARK    2  A    between atoms: C_2  and  C_4
REMARK    3  A    between atoms: C_2  and  N_11
REMARK    4  A    between atoms: N_11  and  C_12
REMARK    5  A    between atoms: N_11  and  C_13
REMARK    6  A    between atoms: C_13  and  C_14
REMARK    7  A    between atoms: N_16  and  C_17
REMARK    8  A    between atoms: C_21  and  S_23
REMARK    9  A    between atoms: S_23  and  N_26
REMARK                            x       y       z     vdW  Elec       q    Type
REMARK                         _______ _______ _______ _____ _____    ______ ____
ROOT
ATOM      1  C   UNL     1       0.819  -0.413   3.619  0.00  0.00    +0.201 C 
ATOM      2  O   UNL     1       1.852  -1.036   3.492  0.00  0.00    -0.278 OA
ATOM      3  N   UNL     1       0.379  -0.081   4.848  0.00  0.00    -0.287 N 
ATOM      4  H   UNL     1      -0.411   0.474   4.947  0.00  0.00    +0.155 HD
ENDROOT
BRANCH   3   5
ATOM      5  C   UNL     1       1.060  -0.536   5.982  0.00  0.00    +0.035 A 
ATOM      6  C   UNL     1       0.354  -0.869   7.131  0.00  0.00    +0.023 A 
ATOM      7  C   UNL     1       1.030  -1.318   8.249  0.00  0.00    +0.004 A 
ATOM      8  C   UNL     1       2.408  -1.436   8.225  0.00  0.00    +0.028 A 
ATOM      9  C   UNL     1       3.113  -1.105   7.083  0.00  0.00    +0.107 A 
ATOM     10  C   UNL     1       2.443  -0.661   5.959  0.00  0.00    +0.051 A 
BRANCH   9  11
ATOM     11  S   UNL     1       4.868  -1.256   7.058  0.00  0.00    +0.056 S 
ATOM     12  O   UNL     1       5.339  -0.367   6.054  0.00  0.00    -0.153 OA
ATOM     13  O   UNL     1       5.302  -1.179   8.409  0.00  0.00    -0.153 OA
BRANCH  11  14
ATOM     14  N   UNL     1       5.220  -2.788   6.535  0.00  0.00    -0.204 NA
ATOM     15  H   UNL     1       4.503  -3.401   6.313  0.00  0.00    +0.144 HD
ATOM     16  H   UNL     1       6.144  -3.072   6.452  0.00  0.00    +0.144 HD
ENDBRANCH  11  14
ENDBRANCH   9  11
ENDBRANCH   3   5
BRANCH   1  17
ATOM     17  C   UNL     1       0.028  -0.011   2.400  0.00  0.00    +0.019 C 
BRANCH  17  18
ATOM     18  N   UNL     1       0.714  -0.488   1.192  0.00  0.00    +0.388 N 
ATOM     19  C   UNL     1       0.723  -1.957   1.182  0.00  0.00    -0.095 C 
ATOM     20  H   UNL     1       1.663  -0.146   1.186  0.00  0.00    -0.081 HD
BRANCH  18  22
ATOM     21  C   UNL     1      -0.002   1.535   0.012  0.00  0.00    -0.008 C 
ATOM     22  C   UNL     1       0.008   0.005   0.002  0.00  0.00    -0.041 C 
BRANCH  22  23
ATOM     23  C   UNL     1       0.711  -0.484  -1.238  0.00  0.00    -0.061 A 
ATOM     24  C   UNL     1       2.093  -0.514  -1.282  0.00  0.00    +0.003 A 
ATOM     25  C   UNL     1       2.738  -0.963  -2.419  0.00  0.00    +0.020 A 
ATOM     26  C   UNL     1       2.002  -1.382  -3.513  0.00  0.00    +0.041 A 
ATOM     27  C   UNL     1       0.619  -1.351  -3.468  0.00  0.00    +0.020 A 
ATOM     28  C   UNL     1      -0.025  -0.907  -2.329  0.00  0.00    +0.003 A 
ATOM     29 CL   UNL     1       2.812  -1.945  -4.941  0.00  0.00    -0.084 Cl
ENDBRANCH  22  23
ENDBRANCH  18  22
ENDBRANCH  17  18
ENDBRANCH   1  17
TORSDOF 7
