REMARK  Name = ZINC09473033
REMARK  12 active torsions:
REMARK  status: ('A' for Active; 'I' for Inactive)
REMARK    1  A    between atoms: C_1  and  C_2
REMARK    2  A    between atoms: C_2  and  C_3
REMARK    3  A    between atoms: C_2  and  N_59
REMARK    4  A    between atoms: C_9  and  N_14
REMARK    5  A    between atoms: C_10  and  C_11
REMARK    6  A    between atoms: C_15  and  C_17
REMARK    7  A    between atoms: C_17  and  C_18
REMARK    8  A    between atoms: C_18  and  C_19
REMARK    9  A    between atoms: C_19  and  S_20
REMARK   10  A    between atoms: S_20  and  C_21
REMARK   11  A    between atoms: C_24  and  O_27
REMARK   12  A    between atoms: O_27  and  C_28
REMARK                            x       y       z     vdW  Elec       q    Type
REMARK                         _______ _______ _______ _____ _____    ______ ____
ROOT
ATOM      1  C   UNL     1       7.949 -12.670   0.303  0.00  0.00    -0.073 C 
ATOM      2  C   UNL     1       8.454 -11.292  -0.134  0.00  0.00    +0.018 C 
ATOM      3  C   UNL     1       7.274 -10.328  -0.120  0.00  0.00    -0.027 A 
ATOM      4  C   UNL     1       6.008 -10.804  -0.111  0.00  0.00    -0.021 A 
ATOM      5  S   UNL     1       4.983  -9.363  -0.094  0.00  0.00    -0.079 S 
ATOM      6  C   UNL     1       6.215  -8.144  -0.100  0.00  0.00    +0.084 A 
ATOM      7  C   UNL     1       7.391  -8.882  -0.121  0.00  0.00    +0.068 A 
ATOM      8  C   UNL     1       5.601 -12.245  -0.117  0.00  0.00    -0.035 C 
ATOM      9  N   UNL     1       6.781 -13.048  -0.519  0.00  0.00    +0.384 N 
ATOM     10  H   UNL     1       6.993 -12.860  -1.506  0.00  0.00    -0.081 HD
ENDROOT
BRANCH   7  11
ATOM     11  C   UNL     1       8.702  -8.225  -0.138  0.00  0.00    +0.244 C 
ATOM     12  O   UNL     1       9.262  -7.957   0.909  0.00  0.00    -0.270 OA
ATOM     13  N   UNL     1       9.287  -7.917  -1.312  0.00  0.00    -0.325 N 
ATOM     14  H   UNL     1       8.840  -8.131  -2.147  0.00  0.00    +0.145 HD
ATOM     15  H   UNL     1      10.154  -7.483  -1.324  0.00  0.00    +0.145 HD
ENDBRANCH   7  11
BRANCH   6  16
ATOM     16  N   UNL     1       6.063  -6.766  -0.091  0.00  0.00    -0.279 N 
ATOM     17  C   UNL     1       4.829  -6.224  -0.076  0.00  0.00    +0.218 C 
ATOM     18  O   UNL     1       3.852  -6.942  -0.070  0.00  0.00    -0.275 OA
ATOM     19  H   UNL     1       6.845  -6.191  -0.096  0.00  0.00    +0.155 HD
BRANCH  17  20
ATOM     20  C   UNL     1       4.664  -4.726  -0.067  0.00  0.00    +0.097 C 
BRANCH  20  21
ATOM     21  C   UNL     1       3.174  -4.378  -0.051  0.00  0.00    +0.020 C 
BRANCH  21  22
ATOM     22  C   UNL     1       3.006  -2.857  -0.042  0.00  0.00    +0.075 C 
BRANCH  22  23
ATOM     23  S   UNL     1       1.240  -2.443  -0.022  0.00  0.00    -0.125 S 
BRANCH  23  24
ATOM     24  C   UNL     1       1.215  -0.682  -0.013  0.00  0.00    +0.008 A 
ATOM     25  C   UNL     1       0.002  -0.004   0.002  0.00  0.00    +0.018 A 
ATOM     26  C   UNL     1      -0.017   1.377   0.010  0.00  0.00    +0.047 A 
ATOM     27  C   UNL     1       1.175   2.087   0.002  0.00  0.00    +0.120 A 
ATOM     28  C   UNL     1       2.386   1.411  -0.013  0.00  0.00    +0.047 A 
ATOM     29  C   UNL     1       2.407   0.031  -0.021  0.00  0.00    +0.018 A 
BRANCH  27  30
ATOM     30  O   UNL     1       1.155   3.447   0.009  0.00  0.00    -0.495 OA
ATOM     31  C   UNL     1       2.419   4.114   0.001  0.00  0.00    +0.277 C 
ENDBRANCH  27  30
ENDBRANCH  23  24
ENDBRANCH  22  23
ENDBRANCH  21  22
ENDBRANCH  20  21
ENDBRANCH  17  20
ENDBRANCH   6  16
BRANCH   9  33
ATOM     32  C   UNL     1       6.154 -14.804   1.103  0.00  0.00    -0.014 C 
ATOM     33  C   UNL     1       6.492 -14.489  -0.356  0.00  0.00    -0.074 C 
ATOM     34  C   UNL     1       5.306 -14.862  -1.247  0.00  0.00    -0.014 C 
ENDBRANCH   9  33
TORSDOF 9
