REMARK  Name = ZINC01597066
REMARK  5 active torsions:
REMARK  status: ('A' for Active; 'I' for Inactive)
REMARK    1  A    between atoms: C_7  and  C_19
REMARK    2  A    between atoms: C_9  and  N_11
REMARK    3  A    between atoms: N_11  and  C_12
REMARK    4  A    between atoms: C_19  and  C_21
REMARK    5  A    between atoms: C_19  and  O_27
REMARK                            x       y       z     vdW  Elec       q    Type
REMARK                         _______ _______ _______ _____ _____    ______ ____
ROOT
ATOM      1  C   UNL     1      -4.758  -1.345  -3.661  0.00  0.00    +0.001 A 
ATOM      2  C   UNL     1      -5.404  -0.843  -4.788  0.00  0.00    +0.002 A 
ATOM      3  C   UNL     1      -5.993   0.384  -4.772  0.00  0.00    +0.028 A 
ATOM      4  C   UNL     1      -5.951   1.163  -3.603  0.00  0.00    +0.073 A 
ATOM      5  C   UNL     1      -5.288   0.653  -2.459  0.00  0.00    +0.006 A 
ATOM      6  C   UNL     1      -4.698  -0.619  -2.510  0.00  0.00    +0.010 A 
ATOM      7  C   UNL     1      -5.251   1.431  -1.284  0.00  0.00    -0.008 A 
ATOM      8  C   UNL     1      -5.849   2.655  -1.301  0.00  0.00    +0.050 A 
ATOM      9  C   UNL     1      -6.484   3.107  -2.466  0.00  0.00    +0.124 A 
ATOM     10  N   UNL     1      -6.520   2.372  -3.560  0.00  0.00    -0.232 NA
ENDROOT
BRANCH   9  11
ATOM     11  N   UNL     1      -7.088   4.356  -2.469  0.00  0.00    -0.299 N 
ATOM     12  H   UNL     1      -7.142   4.870  -1.648  0.00  0.00    +0.154 HD
BRANCH  11  13
ATOM     13  C   UNL     1      -7.620   4.873  -3.654  0.00  0.00    +0.032 A 
ATOM     14  C   UNL     1      -7.016   4.586  -4.871  0.00  0.00    +0.025 A 
ATOM     15  C   UNL     1      -7.547   5.094  -6.040  0.00  0.00    +0.022 A 
ATOM     16  C   UNL     1      -8.673   5.897  -5.999  0.00  0.00    +0.041 A 
ATOM     17  C   UNL     1      -9.274   6.188  -4.787  0.00  0.00    +0.022 A 
ATOM     18  C   UNL     1      -8.751   5.679  -3.615  0.00  0.00    +0.025 A 
ATOM     19 CL   UNL     1      -9.334   6.539  -7.471  0.00  0.00    -0.084 Cl
ENDBRANCH  11  13
ENDBRANCH   9  11
BRANCH   7  20
ATOM     20  C   UNL     1      -4.562   0.924  -0.043  0.00  0.00    +0.131 C 
BRANCH  20  21
ATOM     21  C   UNL     1      -3.067   1.242  -0.124  0.00  0.00    -0.038 C 
ATOM     22  C   UNL     1      -2.368   0.728   1.137  0.00  0.00    -0.013 C 
ATOM     23  C   UNL     1      -0.869   1.030   1.043  0.00  0.00    -0.003 C 
ATOM     24  C   UNL     1      -0.304   0.378  -0.222  0.00  0.00    -0.019 C 
ATOM     25  C   UNL     1      -1.063   0.902  -1.444  0.00  0.00    -0.082 C 
ATOM     26  N   UNL     1      -2.497   0.581  -1.314  0.00  0.00    +0.383 N 
ATOM     27  H   UNL     1      -2.994   0.906  -2.152  0.00  0.00    -0.085 HD
ATOM     28  H   UNL     1      -2.609  -0.436  -1.222  0.00  0.00    -0.085 HD
ENDBRANCH  20  21
BRANCH  20  29
ATOM     29  O   UNL     1      -5.122   1.561   1.107  0.00  0.00    -0.389 OA
ATOM     30  H   UNL     1      -5.035   2.524   1.105  0.00  0.00    +0.210 HD
ENDBRANCH  20  29
ENDBRANCH   7  20
TORSDOF 5
