REMARK  Name = ZINC40149585
REMARK  8 active torsions:
REMARK  status: ('A' for Active; 'I' for Inactive)
REMARK    1  A    between atoms: C_1  and  C_2
REMARK    2  A    between atoms: C_6  and  N_8
REMARK    3  A    between atoms: C_9  and  C_11
REMARK    4  A    between atoms: N_16  and  C_18
REMARK    5  A    between atoms: C_18  and  C_19
REMARK    6  A    between atoms: N_24  and  C_25
REMARK    7  A    between atoms: C_25  and  C_26
REMARK    8  A    between atoms: C_26  and  C_27
REMARK                            x       y       z     vdW  Elec       q    Type
REMARK                         _______ _______ _______ _____ _____    ______ ____
ROOT
ATOM      1  C   UNL     1      -0.133  -4.681   3.800  0.00  0.00    +0.059 C 
ATOM      2  C   UNL     1      -1.390  -4.206   4.535  0.00  0.00    +0.009 C 
ATOM      3  C   UNL     1      -1.522  -4.979   5.850  0.00  0.00    -0.018 C 
ATOM      4  C   UNL     1      -1.556  -6.480   5.553  0.00  0.00    -0.078 C 
ATOM      5  N   UNL     1      -0.317  -6.876   4.873  0.00  0.00    +0.386 N 
ATOM      6  C   UNL     1      -0.218  -6.193   3.578  0.00  0.00    -0.065 C 
ATOM      7  H   UNL     1       0.475  -6.624   5.446  0.00  0.00    -0.081 HD
ENDROOT
BRANCH   1   9
ATOM      8  N   UNL     1       0.049  -2.638   2.417  0.00  0.00    -0.270 N 
ATOM      9  C   UNL     1      -0.035  -3.982   2.468  0.00  0.00    +0.220 C 
ATOM     10  O   UNL     1      -0.031  -4.629   1.442  0.00  0.00    -0.275 OA
ATOM     11  H   UNL     1       0.120  -2.125   3.238  0.00  0.00    +0.156 HD
BRANCH   8  17
ATOM     12  C   UNL     1       0.029  -2.966  -2.361  0.00  0.00    +0.065 C 
ATOM     13  C   UNL     1       0.023  -2.114  -1.118  0.00  0.00    +0.040 A 
ATOM     14  C   UNL     1       0.003  -0.738  -1.234  0.00  0.00    +0.023 A 
ATOM     15  C   UNL     1      -0.003   0.041  -0.085  0.00  0.00    +0.005 A 
ATOM     16  C   UNL     1       0.013  -0.595   1.144  0.00  0.00    +0.044 A 
ATOM     17  C   UNL     1       0.033  -1.984   1.186  0.00  0.00    +0.125 A 
ATOM     18  N   UNL     1       0.032  -2.693   0.068  0.00  0.00    -0.237 NA
ENDBRANCH   8  17
ENDBRANCH   1   9
BRANCH   5  19
ATOM     19  C   UNL     1      -0.321  -8.329   4.659  0.00  0.00    +0.019 C 
BRANCH  19  20
ATOM     20  C   UNL     1      -0.288  -9.033   5.992  0.00  0.00    +0.204 C 
ATOM     21  O   UNL     1      -0.265  -8.388   7.018  0.00  0.00    -0.277 OA
ATOM     22  N   UNL     1      -0.286 -10.380   6.042  0.00  0.00    -0.242 N 
ATOM     23  C   UNL     1      -0.257 -11.009   7.234  0.00  0.00    +0.306 C 
ATOM     24  O   UNL     1      -0.233 -10.362   8.262  0.00  0.00    -0.252 OA
ATOM     25  N   UNL     1      -0.254 -12.356   7.284  0.00  0.00    -0.299 N 
ATOM     26  H   UNL     1      -0.305 -10.896   5.221  0.00  0.00    +0.159 HD
ATOM     27  H   UNL     1      -0.273 -12.872   6.463  0.00  0.00    +0.150 HD
BRANCH  25  28
ATOM     28  C   UNL     1      -0.223 -13.040   8.579  0.00  0.00    +0.111 C 
BRANCH  28  29
ATOM     29  C   UNL     1      -0.226 -14.554   8.357  0.00  0.00    +0.061 C 
BRANCH  29  30
ATOM     30  C   UNL     1      -0.194 -15.258   9.689  0.00  0.00    -0.009 A 
ATOM     31  C   UNL     1      -1.228 -15.662  10.466  0.00  0.00    +0.011 A 
ATOM     32  C   UNL     1      -0.959 -16.297  11.664  0.00  0.00    +0.008 A 
ATOM     33  C   UNL     1       0.332 -16.497  12.026  0.00  0.00    +0.045 A 
ATOM     34  S   UNL     1       1.216 -15.782  10.649  0.00  0.00    -0.102 S 
ENDBRANCH  29  30
ENDBRANCH  28  29
ENDBRANCH  25  28
ENDBRANCH  19  20
ENDBRANCH   5  19
TORSDOF 7
