REMARK  Name = ZINC37174225
REMARK  9 active torsions:
REMARK  status: ('A' for Active; 'I' for Inactive)
REMARK    1  A    between atoms: C_1  and  C_2
REMARK    2  A    between atoms: C_2  and  C_4
REMARK    3  A    between atoms: C_2  and  N_16
REMARK    4  A    between atoms: N_6  and  C_7
REMARK    5  A    between atoms: C_10  and  N_15
REMARK    6  A    between atoms: C_12  and  O_13
REMARK    7  A    between atoms: O_13  and  C_14
REMARK    8  A    between atoms: N_16  and  C_17
REMARK    9  A    between atoms: N_16  and  C_18
REMARK                            x       y       z     vdW  Elec       q    Type
REMARK                         _______ _______ _______ _____ _____    ______ ____
ROOT
ATOM      1  C   UNL     1      -1.172  -0.926  -0.448  0.00  0.00    +0.203 C 
ATOM      2  O   UNL     1      -1.463  -1.895   0.221  0.00  0.00    -0.277 OA
ATOM      3  N   UNL     1      -1.935  -0.583  -1.505  0.00  0.00    -0.284 N 
ATOM      4  H   UNL     1      -1.661   0.144  -2.086  0.00  0.00    +0.155 HD
ENDROOT
BRANCH   3   5
ATOM      5  C   UNL     1      -3.127  -1.277  -1.765  0.00  0.00    +0.076 A 
ATOM      6  C   UNL     1      -3.218  -2.631  -1.478  0.00  0.00    +0.029 A 
ATOM      7  C   UNL     1      -4.390  -3.315  -1.734  0.00  0.00    +0.025 A 
ATOM      8  C   UNL     1      -5.480  -2.650  -2.279  0.00  0.00    +0.028 A 
ATOM      9  C   UNL     1      -5.393  -1.294  -2.567  0.00  0.00    +0.070 A 
ATOM     10  C   UNL     1      -4.220  -0.606  -2.306  0.00  0.00    +0.143 A 
BRANCH   8  11
ATOM     11  N   UNL     1      -6.666  -3.345  -2.538  0.00  0.00    -0.358 N 
ATOM     12  H   UNL     1      -6.727  -4.292  -2.336  0.00  0.00    +0.142 HD
ATOM     13  H   UNL     1      -7.428  -2.880  -2.918  0.00  0.00    +0.142 HD
ENDBRANCH   8  11
BRANCH  10  14
ATOM     14  O   UNL     1      -4.135   0.723  -2.583  0.00  0.00    -0.493 OA
ATOM     15  C   UNL     1      -5.295   1.346  -3.137  0.00  0.00    +0.277 C 
ENDBRANCH  10  14
ENDBRANCH   3   5
BRANCH   1  17
ATOM     16  C   UNL     1      -0.367   1.355   0.097  0.00  0.00    -0.004 C 
ATOM     17  C   UNL     1       0.043  -0.106  -0.098  0.00  0.00    +0.016 C 
BRANCH  17  18
ATOM     18  N   UNL     1       0.637  -0.617   1.144  0.00  0.00    +0.388 N 
ATOM     19  C   UNL     1      -0.284  -0.377   2.263  0.00  0.00    -0.095 C 
ATOM     20  H   UNL     1       0.806  -1.608   1.053  0.00  0.00    -0.081 HD
BRANCH  18  21
ATOM     21  C   UNL     1       1.908   0.074   1.399  0.00  0.00    -0.057 C 
ATOM     22  C   UNL     1       2.785  -0.038   0.153  0.00  0.00    -0.004 C 
ATOM     23  C   UNL     1       4.289   0.008   0.546  0.00  0.00    +0.067 C 
ATOM     24  S   UNL     1       4.236  -1.011   2.085  0.00  0.00    -0.162 S 
ATOM     25  C   UNL     1       2.556  -0.533   2.659  0.00  0.00    +0.054 C 
ENDBRANCH  18  21
ENDBRANCH  17  18
ENDBRANCH   1  17
TORSDOF 6
