REMARK  Name = ZINC57043264
REMARK  10 active torsions:
REMARK  status: ('A' for Active; 'I' for Inactive)
REMARK    1  A    between atoms: C_1  and  C_2
REMARK    2  A    between atoms: C_2  and  C_4
REMARK    3  A    between atoms: C_2  and  C_22
REMARK    4  A    between atoms: C_4  and  N_5
REMARK    5  A    between atoms: N_8  and  N_9
REMARK    6  A    between atoms: C_10  and  C_12
REMARK    7  A    between atoms: C_12  and  C_13
REMARK    8  A    between atoms: C_13  and  S_14
REMARK    9  A    between atoms: S_14  and  C_15
REMARK   10  A    between atoms: C_22  and  N_23
REMARK                            x       y       z     vdW  Elec       q    Type
REMARK                         _______ _______ _______ _____ _____    ______ ____
ROOT
ATOM      1  N   UNL     1      -2.105  -0.148  -1.230  0.00  0.00    -0.298 N 
ATOM      2  C   UNL     1      -3.387  -0.508  -1.443  0.00  0.00    +0.316 C 
ATOM      3  O   UNL     1      -3.985  -1.153  -0.604  0.00  0.00    -0.251 OA
ATOM      4  N   UNL     1      -4.005  -0.154  -2.587  0.00  0.00    -0.218 N 
ATOM      5  H   UNL     1      -1.628   0.366  -1.901  0.00  0.00    +0.150 HD
ATOM      6  H   UNL     1      -4.927  -0.413  -2.741  0.00  0.00    +0.174 HD
ENDROOT
BRANCH   4   7
ATOM      7  N   UNL     1      -3.316   0.589  -3.555  0.00  0.00    -0.233 N 
ATOM      8  C   UNL     1      -3.934   0.943  -4.699  0.00  0.00    +0.230 C 
ATOM      9  O   UNL     1      -5.087   0.620  -4.891  0.00  0.00    -0.274 OA
ATOM     10  H   UNL     1      -2.394   0.848  -3.402  0.00  0.00    +0.173 HD
BRANCH   8  11
ATOM     11  C   UNL     1      -3.193   1.742  -5.740  0.00  0.00    +0.108 C 
BRANCH  11  12
ATOM     12  C   UNL     1      -4.116   2.009  -6.931  0.00  0.00    +0.083 C 
BRANCH  12  13
ATOM     13  S   UNL     1      -3.224   2.970  -8.184  0.00  0.00    -0.125 S 
BRANCH  13  14
ATOM     14  C   UNL     1      -4.405   3.192  -9.472  0.00  0.00    +0.008 A 
ATOM     15  C   UNL     1      -5.684   2.666  -9.341  0.00  0.00    +0.017 A 
ATOM     16  C   UNL     1      -6.609   2.842 -10.352  0.00  0.00    +0.039 A 
ATOM     17  C   UNL     1      -6.261   3.542 -11.495  0.00  0.00    +0.123 A 
ATOM     18  C   UNL     1      -4.987   4.068 -11.628  0.00  0.00    +0.039 A 
ATOM     19  C   UNL     1      -4.061   3.899 -10.617  0.00  0.00    +0.017 A 
ATOM     20  F   UNL     1      -7.168   3.712 -12.483  0.00  0.00    -0.205 F 
ENDBRANCH  13  14
ENDBRANCH  12  13
ENDBRANCH  11  12
ENDBRANCH   8  11
ENDBRANCH   4   7
BRANCH   1  21
ATOM     21  C   UNL     1      -1.433  -0.534   0.013  0.00  0.00    +0.107 C 
BRANCH  21  23
ATOM     22  C   UNL     1      -0.019   1.526   0.010  0.00  0.00    +0.007 C 
ATOM     23  C   UNL     1       0.002  -0.004   0.002  0.00  0.00    -0.014 C 
BRANCH  23  24
ATOM     24  C   UNL     1       0.742  -0.511   1.242  0.00  0.00    -0.074 C 
BRANCH  24  25
ATOM     25  N   UNL     1       2.151  -0.103   1.171  0.00  0.00    +0.380 N 
ATOM     26  C   UNL     1       2.794  -0.762   0.028  0.00  0.00    -0.079 C 
ATOM     27  C   UNL     1       4.240  -0.279  -0.098  0.00  0.00    -0.019 C 
ATOM     28  C   UNL     1       5.001  -0.622   1.186  0.00  0.00    -0.004 C 
ATOM     29  C   UNL     1       4.280   0.010   2.380  0.00  0.00    -0.019 C 
ATOM     30  C   UNL     1       2.832  -0.485   2.414  0.00  0.00    -0.079 C 
ATOM     31  H   UNL     1       2.205   0.898   1.054  0.00  0.00    -0.082 HD
ENDBRANCH  24  25
ENDBRANCH  23  24
ENDBRANCH  21  23
ENDBRANCH   1  21
TORSDOF 9
