REMARK  Name = ZINC62737217
REMARK  14 active torsions:
REMARK  status: ('A' for Active; 'I' for Inactive)
REMARK    1  A    between atoms: C_1  and  C_2
REMARK    2  A    between atoms: C_2  and  C_3
REMARK    3  A    between atoms: C_3  and  C_4
REMARK    4  A    between atoms: C_4  and  N_5
REMARK    5  A    between atoms: N_5  and  C_6
REMARK    6  A    between atoms: N_5  and  C_9
REMARK    7  A    between atoms: C_6  and  C_7
REMARK    8  A    between atoms: C_7  and  O_8
REMARK    9  A    between atoms: C_14  and  C_15
REMARK   10  A    between atoms: C_15  and  N_16
REMARK   11  A    between atoms: N_16  and  C_17
REMARK   12  A    between atoms: C_17  and  C_18
REMARK   13  A    between atoms: C_17  and  C_19
REMARK   14  A    between atoms: C_17  and  C_20
REMARK                            x       y       z     vdW  Elec       q    Type
REMARK                         _______ _______ _______ _____ _____    ______ ____
ROOT
ATOM      1  C   UNL     1       0.364  -3.526  -3.979  0.00  0.00    +0.032 A 
ATOM      2  C   UNL     1      -0.145  -2.941  -5.131  0.00  0.00    +0.038 A 
ATOM      3  C   UNL     1      -0.700  -3.733  -6.118  0.00  0.00    +0.020 A 
ATOM      4  C   UNL     1      -0.749  -5.107  -5.959  0.00  0.00    +0.015 A 
ATOM      5  C   UNL     1      -0.243  -5.691  -4.813  0.00  0.00    +0.004 A 
ATOM      6  C   UNL     1       0.319  -4.905  -3.825  0.00  0.00    -0.043 A 
ATOM      7 BR   UNL     1      -1.394  -2.939  -7.688  0.00  0.00    -0.050 Br
ENDROOT
BRANCH   1   8
ATOM      8  N   UNL     1       0.926  -2.728  -2.979  0.00  0.00    -0.328 N 
BRANCH   8   9
ATOM      9  C   UNL     1       2.335  -2.335  -3.062  0.00  0.00    +0.105 C 
BRANCH   9  10
ATOM     10  C   UNL     1       3.205  -3.415  -2.414  0.00  0.00    +0.019 C 
BRANCH  10  12
ATOM     11  C   UNL     1       5.528  -4.021  -1.724  0.00  0.00    +0.004 C 
ATOM     12  C   UNL     1       4.659  -2.941  -2.372  0.00  0.00    -0.002 C 
ENDBRANCH  10  12
ENDBRANCH   9  10
ENDBRANCH   8   9
BRANCH   8  13
ATOM     13  C   UNL     1       0.107  -2.285  -1.849  0.00  0.00    +0.133 C 
BRANCH  13  14
ATOM     14  C   UNL     1      -0.435  -0.882  -2.131  0.00  0.00    +0.174 C 
BRANCH  14  15
ATOM     15  O   UNL     1      -1.323  -0.931  -3.249  0.00  0.00    -0.393 OA
ATOM     16  H   UNL     1      -1.706  -0.074  -3.485  0.00  0.00    +0.209 HD
ENDBRANCH  14  15
ENDBRANCH  13  14
ENDBRANCH   8  13
ENDBRANCH   1   8
BRANCH   6  17
ATOM     17  C   UNL     1       0.876  -5.544  -2.579  0.00  0.00    -0.044 C 
BRANCH  17  18
ATOM     18  N   UNL     1      -0.146  -5.531  -1.523  0.00  0.00    +0.385 N 
ATOM     19  H   UNL     1      -0.363  -4.577  -1.277  0.00  0.00    -0.085 HD
ATOM     20  H   UNL     1      -0.980  -5.991  -1.857  0.00  0.00    -0.085 HD
BRANCH  18  21
ATOM     21  C   UNL     1       0.363  -6.237  -0.340  0.00  0.00    -0.077 C 
ATOM     22  C   UNL     1       1.628  -5.540   0.165  0.00  0.00    -0.011 C 
ATOM     23  C   UNL     1      -0.701  -6.224   0.759  0.00  0.00    -0.011 C 
ATOM     24  C   UNL     1       0.693  -7.684  -0.713  0.00  0.00    -0.011 C 
ENDBRANCH  18  21
ENDBRANCH  17  18
ENDBRANCH   6  17
TORSDOF 10
