REMARK  Name = ZINC05322919
REMARK  11 active torsions:
REMARK  status: ('A' for Active; 'I' for Inactive)
REMARK    1  A    between atoms: C_1  and  C_2
REMARK    2  A    between atoms: C_2  and  C_3
REMARK    3  A    between atoms: C_2  and  C_4
REMARK    4  A    between atoms: C_7  and  N_10
REMARK    5  A    between atoms: C_11  and  C_13
REMARK    6  A    between atoms: C_13  and  C_15
REMARK    7  A    between atoms: C_13  and  N_19
REMARK    8  A    between atoms: C_15  and  C_16
REMARK    9  A    between atoms: C_16  and  S_17
REMARK   10  A    between atoms: S_17  and  C_18
REMARK   11  A    between atoms: C_20  and  C_22
REMARK                            x       y       z     vdW  Elec       q    Type
REMARK                         _______ _______ _______ _____ _____    ______ ____
ROOT
ATOM      1  C   UNL     1      -5.497   3.520   0.901  0.00  0.00    +0.160 C 
ENDROOT
BRANCH   1   3
ATOM      2  N   UNL     1      -6.577   5.636   1.591  0.00  0.00    -0.284 N 
ATOM      3  C   UNL     1      -5.498   4.829   1.648  0.00  0.00    +0.238 C 
ATOM      4  O   UNL     1      -4.530   5.156   2.300  0.00  0.00    -0.273 OA
ATOM      5  H   UNL     1      -7.324   5.407   1.017  0.00  0.00    +0.155 HD
BRANCH   2   9
ATOM      6  C   UNL     1      -6.699   9.113   3.882  0.00  0.00    -0.045 A 
ATOM      7  C   UNL     1      -5.499   8.682   3.345  0.00  0.00    +0.006 A 
ATOM      8  C   UNL     1      -5.455   7.530   2.585  0.00  0.00    +0.023 A 
ATOM      9  C   UNL     1      -6.617   6.803   2.361  0.00  0.00    +0.033 A 
ATOM     10  C   UNL     1      -7.821   7.241   2.897  0.00  0.00    +0.023 A 
ATOM     11  C   UNL     1      -7.857   8.392   3.661  0.00  0.00    +0.006 A 
BRANCH   6  13
ATOM     12  C   UNL     1      -7.688  11.380   4.056  0.00  0.00    +0.012 C 
ATOM     13  C   UNL     1      -6.743  10.371   4.711  0.00  0.00    +0.013 C 
ATOM     14  C   UNL     1      -7.246  10.038   6.117  0.00  0.00    +0.012 C 
ENDBRANCH   6  13
ENDBRANCH   2   9
ENDBRANCH   1   3
BRANCH   1  15
ATOM     15  N   UNL     1      -4.222   2.833   1.121  0.00  0.00    -0.305 N 
ATOM     16  C   UNL     1      -3.770   1.944   0.215  0.00  0.00    +0.200 C 
ATOM     17  O   UNL     1      -4.418   1.712  -0.783  0.00  0.00    -0.278 OA
ATOM     18  H   UNL     1      -3.703   3.019   1.919  0.00  0.00    +0.149 HD
BRANCH  16  19
ATOM     19  C   UNL     1      -2.458   1.238   0.441  0.00  0.00    +0.021 C 
ATOM     20  C   UNL     1      -1.304   2.153   0.029  0.00  0.00    +0.028 C 
ATOM     21  C   UNL     1      -0.011   1.379   0.021  0.00  0.00    -0.047 A 
ATOM     22  C   UNL     1       1.183   2.084   0.023  0.00  0.00    +0.004 A 
ATOM     23  C   UNL     1       2.389   1.414   0.006  0.00  0.00    +0.000 A 
ATOM     24  C   UNL     1       2.408   0.032  -0.013  0.00  0.00    +0.000 A 
ATOM     25  C   UNL     1       1.220  -0.672  -0.012  0.00  0.00    +0.002 A 
ATOM     26  C   UNL     1       0.007   0.000   0.006  0.00  0.00    -0.061 A 
ATOM     27  C   UNL     1      -1.262  -0.811   0.015  0.00  0.00    -0.045 C 
ATOM     28  N   UNL     1      -2.408   0.017  -0.385  0.00  0.00    +0.389 N 
ATOM     29  H   UNL     1      -2.311   0.279  -1.373  0.00  0.00    -0.084 HD
ATOM     30  H   UNL     1      -3.275  -0.517  -0.256  0.00  0.00    -0.084 HD
ENDBRANCH  16  19
ENDBRANCH   1  15
BRANCH   1  31
ATOM     31  C   UNL     1      -6.643   2.642   1.407  0.00  0.00    +0.042 C 
BRANCH  31  32
ATOM     32  C   UNL     1      -6.719   1.367   0.566  0.00  0.00    +0.071 C 
BRANCH  32  33
ATOM     33  S   UNL     1      -8.078   0.326   1.166  0.00  0.00    -0.164 S 
ATOM     34  C   UNL     1      -8.033  -1.125   0.079  0.00  0.00    +0.084 C 
ENDBRANCH  32  33
ENDBRANCH  31  32
ENDBRANCH   1  31
TORSDOF 8
