REMARK  Name = ZINC09331928
REMARK  7 active torsions:
REMARK  status: ('A' for Active; 'I' for Inactive)
REMARK    1  A    between atoms: C_1  and  N_59
REMARK    2  A    between atoms: C_14  and  C_16
REMARK    3  A    between atoms: C_17  and  O_32
REMARK    4  A    between atoms: C_19  and  O_31
REMARK    5  A    between atoms: N_20  and  C_23
REMARK    6  A    between atoms: C_23  and  C_24
REMARK    7  A    between atoms: C_24  and  C_25
REMARK                            x       y       z     vdW  Elec       q    Type
REMARK                         _______ _______ _______ _____ _____    ______ ____
ROOT
ATOM      1  C   UNL     1      -0.934   7.020  -5.416  0.00  0.00    +0.071 A 
ATOM      2  C   UNL     1      -1.108   6.295  -6.582  0.00  0.00    +0.224 A 
ATOM      3  N   UNL     1      -0.953   4.967  -6.567  0.00  0.00    -0.161 NA
ATOM      4  C   UNL     1      -0.633   4.331  -5.463  0.00  0.00    +0.302 A 
ATOM      5  N   UNL     1      -0.456   4.993  -4.290  0.00  0.00    -0.262 N 
ATOM      6  C   UNL     1      -0.598   6.334  -4.242  0.00  0.00    +0.262 A 
ATOM      7  O   UNL     1      -0.437   6.939  -3.194  0.00  0.00    -0.267 OA
ENDROOT
BRANCH   1  21
ATOM      8  C   UNL     1      -3.409   8.370  -4.678  0.00  0.00    -0.095 C 
ATOM      9  C   UNL     1      -2.117  10.359  -4.191  0.00  0.00    -0.073 C 
ATOM     10  C   UNL     1      -0.827  10.826  -3.503  0.00  0.00    +0.019 C 
ATOM     11  C   UNL     1       0.340  10.213  -4.236  0.00  0.00    -0.022 A 
ATOM     12  C   UNL     1       1.740  10.570  -4.190  0.00  0.00    +0.003 A 
ATOM     13  C   UNL     1       2.450  11.548  -3.487  0.00  0.00    +0.010 A 
ATOM     14  C   UNL     1       3.806  11.601  -3.694  0.00  0.00    +0.001 A 
ATOM     15  C   UNL     1       4.454  10.732  -4.556  0.00  0.00    +0.002 A 
ATOM     16  C   UNL     1       3.777   9.754  -5.264  0.00  0.00    +0.026 A 
ATOM     17  C   UNL     1       2.399   9.676  -5.075  0.00  0.00    +0.047 A 
ATOM     18  N   UNL     1       1.448   8.850  -5.602  0.00  0.00    -0.359 N 
ATOM     19  H   UNL     1       1.618   8.139  -6.240  0.00  0.00    +0.166 HD
ATOM     20  C   UNL     1       0.219   9.176  -5.096  0.00  0.00    +0.011 A 
ATOM     21  C   UNL     1      -1.103   8.518  -5.410  0.00  0.00    +0.021 C 
ATOM     22  N   UNL     1      -2.066   8.888  -4.346  0.00  0.00    +0.387 N 
ATOM     23  H   UNL     1      -1.758   8.471  -3.459  0.00  0.00    -0.081 HD
ENDBRANCH   1  21
BRANCH   4  24
ATOM     24  O   UNL     1      -0.481   2.991  -5.494  0.00  0.00    -0.479 OA
ATOM     25  H   UNL     1      -0.615   2.553  -6.346  0.00  0.00    +0.295 HD
ENDBRANCH   4  24
BRANCH   2  26
ATOM     26  O   UNL     1      -1.433   6.928  -7.733  0.00  0.00    -0.492 OA
ATOM     27  H   UNL     1      -1.533   6.337  -8.492  0.00  0.00    +0.294 HD
ENDBRANCH   2  26
BRANCH   5  28
ATOM     28  C   UNL     1      -0.104   4.251  -3.077  0.00  0.00    +0.134 C 
BRANCH  28  29
ATOM     29  C   UNL     1      -1.382   3.833  -2.347  0.00  0.00    +0.052 C 
BRANCH  29  30
ATOM     30  C   UNL     1      -1.020   3.070  -1.099  0.00  0.00    -0.072 C 
ATOM     31  C   UNL     1      -0.952   3.725   0.015  0.00  0.00    -0.028 C 
ATOM     32  C   UNL     1      -0.595   3.106   1.335  0.00  0.00    +0.027 C 
ATOM     33  C   UNL     1      -0.739   1.585   1.264  0.00  0.00    +0.004 C 
ATOM     34  C   UNL     1      -0.013   1.086   0.008  0.00  0.00    +0.005 C 
ATOM     35  C   UNL     1      -0.761   1.597  -1.225  0.00  0.00    +0.030 C 
ENDBRANCH  29  30
ENDBRANCH  28  29
ENDBRANCH   5  28
TORSDOF 6
