REMARK  Name = ZINC13065041
REMARK  13 active torsions:
REMARK  status: ('A' for Active; 'I' for Inactive)
REMARK    1  A    between atoms: C_1  and  C_2
REMARK    2  A    between atoms: C_2  and  C_3
REMARK    3  A    between atoms: C_3  and  C_5
REMARK    4  A    between atoms: C_3  and  N_76
REMARK    5  A    between atoms: N_9  and  C_10
REMARK    6  A    between atoms: C_16  and  C_17
REMARK    7  A    between atoms: C_16  and  N_76
REMARK    8  A    between atoms: C_20  and  O_23
REMARK    9  A    between atoms: O_23  and  C_24
REMARK   10  A    between atoms: C_25  and  C_26
REMARK   11  A    between atoms: C_25  and  N_76
REMARK   12  A    between atoms: C_31  and  C_39
REMARK   13  A    between atoms: C_32  and  C_38
REMARK                            x       y       z     vdW  Elec       q    Type
REMARK                         _______ _______ _______ _____ _____    ______ ____
ROOT
ATOM      1  N   UNL     1      -1.912   2.578   2.252  0.00  0.00    +0.392 N 
ATOM      2  H   UNL     1      -1.251   3.243   2.671  0.00  0.00    -0.080 HD
ENDROOT
BRANCH   1   3
ATOM      3  C   UNL     1      -1.752   1.263   2.906  0.00  0.00    +0.003 C 
BRANCH   3   4
ATOM      4  C   UNL     1      -2.853   0.325   2.485  0.00  0.00    +0.138 A 
ATOM      5  N   UNL     1      -4.122   0.622   2.342  0.00  0.00    -0.115 NA
ATOM      6  N   UNL     1      -4.740  -0.445   1.969  0.00  0.00    -0.023 NA
ATOM      7  N   UNL     1      -3.901  -1.417   1.878  0.00  0.00    -0.044 NA
ATOM      8  N   UNL     1      -2.726  -0.982   2.188  0.00  0.00    -0.228 N 
BRANCH   8   9
ATOM      9  C   UNL     1      -1.487  -1.763   2.212  0.00  0.00    +0.111 C 
ATOM     10  C   UNL     1      -1.318  -2.492   0.878  0.00  0.00    +0.027 C 
ATOM     11  C   UNL     1      -0.024  -3.308   0.903  0.00  0.00    +0.002 C 
ATOM     12  C   UNL     1      -0.089  -4.332   2.039  0.00  0.00    +0.000 C 
ATOM     13  C   UNL     1      -0.258  -3.603   3.373  0.00  0.00    +0.002 C 
ATOM     14  C   UNL     1      -1.552  -2.786   3.348  0.00  0.00    +0.027 C 
ENDBRANCH   8   9
ENDBRANCH   3   4
BRANCH   3  16
ATOM     15  C   UNL     1      -0.603   2.300   4.868  0.00  0.00    +0.002 C 
ATOM     16  C   UNL     1      -1.800   1.458   4.423  0.00  0.00    -0.011 C 
ENDBRANCH   3  16
ENDBRANCH   1   3
BRANCH   1  17
ATOM     17  C   UNL     1      -1.625   2.462   0.807  0.00  0.00    -0.042 C 
BRANCH  17  18
ATOM     18  C   UNL     1      -0.135   2.328   0.619  0.00  0.00    -0.064 A 
ATOM     19  C   UNL     1       0.651   3.459   0.504  0.00  0.00    +0.005 A 
ATOM     20  C   UNL     1       2.015   3.339   0.327  0.00  0.00    +0.046 A 
ATOM     21  C   UNL     1       2.597   2.081   0.264  0.00  0.00    +0.120 A 
ATOM     22  C   UNL     1       1.806   0.947   0.380  0.00  0.00    +0.046 A 
ATOM     23  C   UNL     1       0.442   1.073   0.557  0.00  0.00    +0.005 A 
BRANCH  21  24
ATOM     24  O   UNL     1       3.939   1.960   0.090  0.00  0.00    -0.495 OA
ATOM     25  C   UNL     1       4.691   3.170  -0.022  0.00  0.00    +0.277 C 
ENDBRANCH  21  24
ENDBRANCH  17  18
ENDBRANCH   1  17
BRANCH   1  26
ATOM     26  C   UNL     1      -3.289   3.078   2.454  0.00  0.00    -0.036 C 
BRANCH  26  27
ATOM     27  C   UNL     1      -3.301   4.567   2.219  0.00  0.00    +0.001 A 
ATOM     28  C   UNL     1      -3.648   5.056   1.003  0.00  0.00    +0.017 A 
ATOM     29  C   UNL     1      -3.654   6.507   0.808  0.00  0.00    -0.001 A 
ATOM     30  C   UNL     1      -4.008   7.071  -0.422  0.00  0.00    +0.010 A 
ATOM     31  C   UNL     1      -3.999   8.429  -0.572  0.00  0.00    +0.004 A 
ATOM     32  C   UNL     1      -3.641   9.254   0.485  0.00  0.00    -0.046 A 
ATOM     33  C   UNL     1      -3.289   8.721   1.706  0.00  0.00    -0.024 A 
ATOM     34  C   UNL     1      -3.291   7.341   1.883  0.00  0.00    +0.052 A 
ATOM     35  N   UNL     1      -2.943   6.780   3.093  0.00  0.00    -0.322 N 
ATOM     36  H   UNL     1      -2.693   7.356   3.833  0.00  0.00    +0.169 HD
ATOM     37  C   UNL     1      -2.945   5.446   3.264  0.00  0.00    +0.251 A 
ATOM     38  O   UNL     1      -2.632   4.986   4.348  0.00  0.00    -0.268 OA
ATOM     39  C   UNL     1      -2.904   9.629   2.845  0.00  0.00    +0.046 C 
ATOM     40  C   UNL     1      -3.638  10.749   0.296  0.00  0.00    +0.044 C 
ENDBRANCH  26  27
ENDBRANCH   1  26
TORSDOF 9
