REMARK  Name = ZINC05150307
REMARK  8 active torsions:
REMARK  status: ('A' for Active; 'I' for Inactive)
REMARK    1  A    between atoms: C_1  and  C_2
REMARK    2  A    between atoms: C_4  and  C_27
REMARK    3  A    between atoms: N_8  and  C_24
REMARK    4  A    between atoms: N_10  and  C_11
REMARK    5  A    between atoms: C_11  and  C_13
REMARK    6  A    between atoms: C_17  and  S_19
REMARK    7  A    between atoms: S_19  and  C_22
REMARK    8  A    between atoms: C_24  and  C_25
REMARK                            x       y       z     vdW  Elec       q    Type
REMARK                         _______ _______ _______ _____ _____    ______ ____
ROOT
ATOM      1  C   UNL     1       3.435   2.120   4.008  0.00  0.00    +0.044 C 
ATOM      2  C   UNL     1       1.951   2.298   3.812  0.00  0.00    -0.048 A 
ATOM      3  C   UNL     1       1.174   2.741   4.870  0.00  0.00    +0.008 A 
ATOM      4  C   UNL     1      -0.187   2.904   4.686  0.00  0.00    -0.034 A 
ATOM      5  C   UNL     1      -0.745   2.624   3.461  0.00  0.00    +0.042 A 
ATOM      6  C   UNL     1       0.016   2.174   2.372  0.00  0.00    +0.059 A 
ATOM      7  C   UNL     1       1.395   2.018   2.587  0.00  0.00    +0.030 A 
ATOM      8  N   UNL     1      -0.704   1.940   1.215  0.00  0.00    -0.310 N 
ATOM      9  C   UNL     1      -2.047   2.154   1.193  0.00  0.00    +0.168 A 
ATOM     10  N   UNL     1      -2.891   1.989   0.180  0.00  0.00    -0.152 NA
ATOM     11  S   UNL     1      -2.393   2.690   2.806  0.00  0.00    -0.052 S 
ATOM     12  C   UNL     1      -1.054   3.384   5.822  0.00  0.00    +0.045 C 
ENDROOT
BRANCH  10  13
ATOM     13  C   UNL     1      -4.191   2.252   0.344  0.00  0.00    +0.269 C 
ATOM     14  O   UNL     1      -4.603   2.642   1.423  0.00  0.00    -0.268 OA
BRANCH  13  15
ATOM     15  C   UNL     1      -5.132   2.068  -0.785  0.00  0.00    +0.041 A 
ATOM     16  C   UNL     1      -4.663   1.627  -2.023  0.00  0.00    +0.013 A 
ATOM     17  C   UNL     1      -5.545   1.454  -3.069  0.00  0.00    +0.003 A 
ATOM     18  C   UNL     1      -6.891   1.726  -2.896  0.00  0.00    +0.027 A 
ATOM     19  C   UNL     1      -7.361   2.168  -1.673  0.00  0.00    +0.089 A 
ATOM     20  C   UNL     1      -6.489   2.341  -0.617  0.00  0.00    +0.040 A 
BRANCH  19  21
ATOM     21  S   UNL     1      -9.076   2.513  -1.463  0.00  0.00    -0.006 S 
ATOM     22  O   UNL     1      -9.730   1.696  -2.424  0.00  0.00    -0.170 OA
ATOM     23  O   UNL     1      -9.315   2.330  -0.074  0.00  0.00    -0.170 OA
ATOM     24  C   UNL     1      -9.258   4.263  -1.903  0.00  0.00    +0.200 C 
ENDBRANCH  19  21
ENDBRANCH  13  15
ENDBRANCH  10  13
BRANCH   8  25
ATOM     25  C   UNL     1      -0.018   1.468   0.010  0.00  0.00    +0.212 C 
BRANCH  25  26
ATOM     26  C   UNL     1       0.002  -0.004   0.002  0.00  0.00    -0.084 C 
ATOM     27  C   UNL     1       0.018  -1.178  -0.004  0.00  0.00    +0.005 C 
ENDBRANCH  25  26
ENDBRANCH   8  25
TORSDOF 5
