REMARK  Name = ZINC64227514
REMARK  8 active torsions:
REMARK  status: ('A' for Active; 'I' for Inactive)
REMARK    1  A    between atoms: C_1  and  C_2
REMARK    2  A    between atoms: C_4  and  C_23
REMARK    3  A    between atoms: N_6  and  C_8
REMARK    4  A    between atoms: C_8  and  C_9
REMARK    5  A    between atoms: C_9  and  C_10
REMARK    6  A    between atoms: C_9  and  N_11
REMARK    7  A    between atoms: N_14  and  N_15
REMARK    8  A    between atoms: C_16  and  C_18
REMARK                            x       y       z     vdW  Elec       q    Type
REMARK                         _______ _______ _______ _____ _____    ______ ____
ROOT
ATOM      1  N   UNL     1       0.403  -0.520   3.557  0.00  0.00    -0.297 N 
ATOM      2  C   UNL     1      -0.579   0.073   4.265  0.00  0.00    +0.316 C 
ATOM      3  O   UNL     1      -1.280  -0.589   5.005  0.00  0.00    -0.251 OA
ATOM      4  N   UNL     1      -0.783   1.401   4.153  0.00  0.00    -0.218 N 
ATOM      5  H   UNL     1       0.963   0.009   2.967  0.00  0.00    +0.150 HD
ATOM      6  H   UNL     1      -1.489   1.828   4.662  0.00  0.00    +0.174 HD
ENDROOT
BRANCH   4   7
ATOM      7  N   UNL     1       0.026   2.164   3.300  0.00  0.00    -0.229 N 
ATOM      8  C   UNL     1      -0.178   3.492   3.188  0.00  0.00    +0.263 C 
ATOM      9  O   UNL     1      -1.064   4.027   3.826  0.00  0.00    -0.269 OA
ATOM     10  H   UNL     1       0.732   1.737   2.791  0.00  0.00    +0.173 HD
BRANCH   8  11
ATOM     11  C   UNL     1       0.672   4.295   2.291  0.00  0.00    +0.076 A 
ATOM     12  C   UNL     1       0.594   5.743   2.053  0.00  0.00    +0.054 A 
ATOM     13  C   UNL     1       1.561   6.024   1.167  0.00  0.00    +0.195 A 
ATOM     14  O   UNL     1       2.209   4.893   0.849  0.00  0.00    -0.470 OA
ATOM     15  C   UNL     1       1.700   3.850   1.512  0.00  0.00    +0.208 A 
ENDBRANCH   8  11
ENDBRANCH   4   7
BRANCH   1  16
ATOM     16  C   UNL     1       0.625  -1.963   3.679  0.00  0.00    +0.055 C 
ATOM     17  C   UNL     1       1.560  -2.237   4.859  0.00  0.00    +0.026 C 
BRANCH  16  18
ATOM     18  C   UNL     1       1.259  -2.492   2.392  0.00  0.00    -0.057 C 
BRANCH  18  24
ATOM     19  C   UNL     1       0.958  -2.465  -2.494  0.00  0.00    +0.005 C 
ATOM     20  C   UNL     1       0.247  -2.073  -1.198  0.00  0.00    -0.031 C 
ATOM     21  C   UNL     1      -1.118  -2.764  -1.134  0.00  0.00    +0.003 C 
ATOM     22  C   UNL     1      -1.788  -2.427   0.201  0.00  0.00    -0.031 C 
ATOM     23  C   UNL     1      -0.868  -2.853   1.348  0.00  0.00    -0.076 C 
ATOM     24  N   UNL     1       0.410  -2.139   1.246  0.00  0.00    +0.381 N 
ATOM     25  C   UNL     1       1.091  -2.512   0.001  0.00  0.00    -0.076 C 
ATOM     26  C   UNL     1      -3.118  -3.175   0.309  0.00  0.00    +0.005 C 
ATOM     27  H   UNL     1       0.240  -1.144   1.250  0.00  0.00    -0.082 HD
ENDBRANCH  18  24
ENDBRANCH  16  18
ENDBRANCH   1  16
TORSDOF 5
