REMARK  Name = ZINC63613199
REMARK  5 active torsions:
REMARK  status: ('A' for Active; 'I' for Inactive)
REMARK    1  A    between atoms: C_7  and  C_10
REMARK    2  A    between atoms: C_10  and  C_11
REMARK    3  A    between atoms: C_11  and  N_12
REMARK    4  A    between atoms: C_13  and  C_15
REMARK    5  A    between atoms: C_25  and  C_26
REMARK                            x       y       z     vdW  Elec       q    Type
REMARK                         _______ _______ _______ _____ _____    ______ ____
ROOT
ATOM      1  C   UNL     1      -1.158  -7.224  -3.115  0.00  0.00    +0.039 A 
ATOM      2  C   UNL     1      -1.759  -7.393  -1.865  0.00  0.00    +0.017 A 
ATOM      3  C   UNL     1      -2.791  -8.293  -1.711  0.00  0.00    +0.049 A 
ATOM      4  C   UNL     1      -3.235  -9.035  -2.796  0.00  0.00    +0.150 A 
ATOM      5  C   UNL     1      -2.641  -8.872  -4.050  0.00  0.00    +0.077 A 
ATOM      6  C   UNL     1      -1.609  -7.965  -4.210  0.00  0.00    +0.040 A 
ATOM      7  N   UNL     1      -3.093  -9.619  -5.146  0.00  0.00    -0.276 N 
ATOM      8  C   UNL     1      -4.268 -10.284  -5.043  0.00  0.00    +0.284 C 
ATOM      9  O   UNL     1      -4.708 -10.937  -5.971  0.00  0.00    -0.266 OA
ATOM     10  C   UNL     1      -4.995 -10.189  -3.759  0.00  0.00    +0.191 C 
ATOM     11  C   UNL     1      -6.335 -10.355  -3.694  0.00  0.00    +0.059 C 
ATOM     12  O   UNL     1      -4.253  -9.926  -2.641  0.00  0.00    -0.449 OA
ATOM     13  H   UNL     1      -2.573  -9.658  -5.964  0.00  0.00    +0.155 HD
ENDROOT
BRANCH  11  14
ATOM     14  C   UNL     1      -7.127 -10.441  -4.931  0.00  0.00    -0.021 A 
ATOM     15  C   UNL     1      -8.227 -11.302  -5.003  0.00  0.00    +0.009 A 
ATOM     16  C   UNL     1      -8.964 -11.377  -6.165  0.00  0.00    +0.020 A 
ATOM     17  C   UNL     1      -8.619 -10.603  -7.260  0.00  0.00    +0.041 A 
ATOM     18  C   UNL     1      -7.530  -9.748  -7.196  0.00  0.00    +0.020 A 
ATOM     19  C   UNL     1      -6.787  -9.658  -6.039  0.00  0.00    +0.009 A 
ATOM     20 CL   UNL     1      -9.553 -10.704  -8.719  0.00  0.00    -0.084 Cl
ENDBRANCH  11  14
BRANCH   1  22
ATOM     21  N   UNL     1       0.381  -5.545  -2.222  0.00  0.00    -0.311 N 
ATOM     22  C   UNL     1      -0.053  -6.260  -3.279  0.00  0.00    +0.244 C 
ATOM     23  O   UNL     1       0.467  -6.110  -4.369  0.00  0.00    -0.270 OA
ATOM     24  H   UNL     1      -0.033  -5.665  -1.353  0.00  0.00    +0.149 HD
BRANCH  21  25
ATOM     25  C   UNL     1       1.479  -4.588  -2.385  0.00  0.00    +0.109 C 
BRANCH  25  26
ATOM     26  C   UNL     1       1.773  -3.916  -1.043  0.00  0.00    +0.052 C 
BRANCH  26  33
ATOM     27  C   UNL     1       1.853   0.604  -1.830  0.00  0.00    +0.001 A 
ATOM     28  C   UNL     1       3.147   1.136  -1.920  0.00  0.00    +0.002 A 
ATOM     29  C   UNL     1       4.257   0.380  -1.784  0.00  0.00    +0.026 A 
ATOM     30  C   UNL     1       4.150  -1.017  -1.541  0.00  0.00    +0.043 A 
ATOM     31  N   UNL     1       5.060  -1.947  -1.377  0.00  0.00    -0.380 N 
ATOM     32  C   UNL     1       4.384  -3.230  -1.155  0.00  0.00    +0.144 C 
ATOM     33  C   UNL     1       2.902  -2.932  -1.210  0.00  0.00    -0.040 C 
ATOM     34  C   UNL     1       2.795  -1.604  -1.442  0.00  0.00    -0.001 A 
ATOM     35  C   UNL     1       1.640  -0.712  -1.601  0.00  0.00    +0.010 A 
ATOM     36  H   UNL     1       6.020  -1.809  -1.399  0.00  0.00    +0.160 HD
ENDBRANCH  26  33
ENDBRANCH  25  26
ENDBRANCH  21  25
ENDBRANCH   1  22
TORSDOF 5
