REMARK  Name = ZINC52831414
REMARK  13 active torsions:
REMARK  status: ('A' for Active; 'I' for Inactive)
REMARK    1  A    between atoms: C_1  and  C_2
REMARK    2  A    between atoms: C_9  and  N_17
REMARK    3  A    between atoms: C_10  and  C_11
REMARK    4  A    between atoms: C_11  and  O_13
REMARK    5  A    between atoms: O_13  and  C_14
REMARK    6  A    between atoms: C_14  and  C_15
REMARK    7  A    between atoms: C_14  and  C_16
REMARK    8  A    between atoms: C_18  and  C_20
REMARK    9  A    between atoms: C_20  and  C_22
REMARK   10  A    between atoms: C_20  and  N_23
REMARK   11  A    between atoms: N_23  and  C_24
REMARK   12  A    between atoms: N_23  and  C_25
REMARK   13  A    between atoms: C_25  and  C_26
REMARK                            x       y       z     vdW  Elec       q    Type
REMARK                         _______ _______ _______ _____ _____    ______ ____
ROOT
ATOM      1  C   UNL     1       0.022   2.251   1.829  0.00  0.00    +0.008 C 
ATOM      2  C   UNL     1       0.253   0.780   1.478  0.00  0.00    -0.009 C 
ATOM      3  C   UNL     1      -1.030   0.186   0.889  0.00  0.00    +0.008 C 
ATOM      4  C   UNL     1      -0.743  -1.202   0.310  0.00  0.00    +0.037 C 
ATOM      5  C   UNL     1      -0.044  -2.038   1.372  0.00  0.00    -0.021 A 
ATOM      6  C   UNL     1       0.550  -1.463   2.439  0.00  0.00    -0.004 A 
ATOM      7  S   UNL     1       1.209  -2.816   3.370  0.00  0.00    -0.077 S 
ATOM      8  C   UNL     1       0.725  -4.096   2.396  0.00  0.00    +0.086 A 
ATOM      9  C   UNL     1       0.052  -3.488   1.347  0.00  0.00    +0.091 A 
ATOM     10  C   UNL     1       0.628   0.001   2.747  0.00  0.00    +0.046 C 
ENDROOT
BRANCH   8  11
ATOM     11  N   UNL     1       0.948  -5.449   2.595  0.00  0.00    -0.281 N 
ATOM     12  C   UNL     1       1.627  -5.868   3.681  0.00  0.00    +0.204 C 
ATOM     13  O   UNL     1       2.044  -5.060   4.484  0.00  0.00    -0.277 OA
ATOM     14  H   UNL     1       0.614  -6.096   1.953  0.00  0.00    +0.155 HD
BRANCH  12  15
ATOM     15  C   UNL     1       1.869  -7.340   3.898  0.00  0.00    +0.017 C 
ATOM     16  C   UNL     1       0.681  -7.947   4.647  0.00  0.00    -0.004 C 
BRANCH  15  17
ATOM     17  N   UNL     1       3.093  -7.524   4.690  0.00  0.00    +0.391 N 
ATOM     18  C   UNL     1       3.304  -8.956   4.939  0.00  0.00    -0.094 C 
ATOM     19  H   UNL     1       2.999  -7.040   5.570  0.00  0.00    -0.080 HD
BRANCH  17  20
ATOM     20  C   UNL     1       4.240  -6.980   3.951  0.00  0.00    +0.019 C 
BRANCH  20  21
ATOM     21  C   UNL     1       5.463  -7.008   4.831  0.00  0.00    +0.194 C 
ATOM     22  O   UNL     1       5.386  -7.439   5.963  0.00  0.00    -0.278 OA
ATOM     23  N   UNL     1       6.642  -6.555   4.361  0.00  0.00    -0.331 N 
ATOM     24  H   UNL     1       6.704  -6.211   3.457  0.00  0.00    +0.145 HD
ATOM     25  H   UNL     1       7.429  -6.574   4.928  0.00  0.00    +0.145 HD
ENDBRANCH  20  21
ENDBRANCH  17  20
ENDBRANCH  15  17
ENDBRANCH  12  15
ENDBRANCH   8  11
BRANCH   9  26
ATOM     26  C   UNL     1      -0.536  -4.273   0.260  0.00  0.00    +0.342 C 
ATOM     27  O   UNL     1       0.122  -4.530  -0.730  0.00  0.00    -0.245 OA
BRANCH  26  28
ATOM     28  O   UNL     1      -1.808  -4.712   0.357  0.00  0.00    -0.458 OA
BRANCH  28  29
ATOM     29  C   UNL     1      -2.317  -5.472  -0.741  0.00  0.00    +0.171 C 
ATOM     30  C   UNL     1      -3.361  -6.467  -0.230  0.00  0.00    +0.052 C 
ATOM     31  C   UNL     1      -2.965  -4.529  -1.757  0.00  0.00    +0.052 C 
ENDBRANCH  28  29
ENDBRANCH  26  28
ENDBRANCH   9  26
TORSDOF 8
