REMARK  Name = ZINC62014765
REMARK  6 active torsions:
REMARK  status: ('A' for Active; 'I' for Inactive)
REMARK    1  A    between atoms: C_1  and  C_2
REMARK    2  A    between atoms: C_2  and  C_4
REMARK    3  A    between atoms: C_2  and  N_11
REMARK    4  A    between atoms: N_11  and  C_12
REMARK    5  A    between atoms: N_11  and  C_13
REMARK    6  A    between atoms: C_18  and  C_19
REMARK                            x       y       z     vdW  Elec       q    Type
REMARK                         _______ _______ _______ _____ _____    ______ ____
ROOT
ATOM      1  C   UNL     1      -1.761  -0.829  -1.328  0.00  0.00    +0.042 A 
ATOM      2  C   UNL     1      -1.886  -2.207  -1.452  0.00  0.00    +0.024 A 
ATOM      3  C   UNL     1      -2.401  -2.753  -2.611  0.00  0.00    +0.003 A 
ATOM      4  C   UNL     1      -2.796  -1.935  -3.656  0.00  0.00    +0.021 A 
ATOM      5  C   UNL     1      -2.679  -0.565  -3.552  0.00  0.00    +0.053 A 
ATOM      6  C   UNL     1      -2.166   0.004  -2.382  0.00  0.00    +0.051 A 
ATOM      7 CL   UNL     1      -3.177   0.453  -4.867  0.00  0.00    -0.083 Cl
ENDROOT
BRANCH   6   8
ATOM      8  C   UNL     1      -2.045   1.469  -2.260  0.00  0.00    +0.097 C 
ATOM      9  N   UNL     1      -3.139   2.229  -2.236  0.00  0.00    -0.387 N 
ATOM     10  N   UNL     1      -0.840   2.033  -2.175  0.00  0.00    -0.344 N 
ATOM     11  H   UNL     1      -3.060   3.192  -2.155  0.00  0.00    +0.157 HD
ATOM     12  H   UNL     1      -0.042   1.497  -2.311  0.00  0.00    +0.144 HD
ATOM     13  H   UNL     1      -0.760   2.979  -1.975  0.00  0.00    +0.144 HD
ATOM     14  H   UNL     1      -4.016   1.819  -2.298  0.00  0.00    +0.157 HD
ENDBRANCH   6   8
BRANCH   1  15
ATOM     15  N   UNL     1      -1.243  -0.277  -0.163  0.00  0.00    -0.326 N 
ATOM     16  C   UNL     1      -2.146   0.165   0.903  0.00  0.00    +0.130 C 
BRANCH  15  18
ATOM     17  C   UNL     1       0.503   0.620   1.296  0.00  0.00    +0.033 C 
ATOM     18  C   UNL     1       0.206  -0.137   0.000  0.00  0.00    +0.100 C 
BRANCH  18  19
ATOM     19  C   UNL     1       0.839  -1.503   0.060  0.00  0.00    -0.026 A 
ATOM     20  C   UNL     1       0.301  -2.479   0.879  0.00  0.00    +0.005 A 
ATOM     21  C   UNL     1       0.881  -3.732   0.935  0.00  0.00    +0.002 A 
ATOM     22  C   UNL     1       2.000  -4.011   0.172  0.00  0.00    +0.020 A 
ATOM     23  C   UNL     1       2.539  -3.035  -0.648  0.00  0.00    +0.041 A 
ATOM     24  C   UNL     1       1.954  -1.783  -0.708  0.00  0.00    +0.025 A 
ATOM     25 CL   UNL     1       3.943  -3.385  -1.606  0.00  0.00    -0.084 Cl
ENDBRANCH  18  19
ENDBRANCH  15  18
ENDBRANCH   1  15
TORSDOF 4
