REMARK  Name = ZINC33270316
REMARK  7 active torsions:
REMARK  status: ('A' for Active; 'I' for Inactive)
REMARK    1  A    between atoms: C_1  and  C_2
REMARK    2  A    between atoms: C_3  and  C_8
REMARK    3  A    between atoms: C_4  and  C_7
REMARK    4  A    between atoms: N_13  and  S_14
REMARK    5  A    between atoms: S_14  and  C_17
REMARK    6  A    between atoms: C_20  and  O_24
REMARK    7  A    between atoms: O_24  and  C_25
REMARK                            x       y       z     vdW  Elec       q    Type
REMARK                         _______ _______ _______ _____ _____    ______ ____
ROOT
ATOM      1  C   UNL     1       2.515   1.953  -0.011  0.00  0.00    +0.115 C 
ATOM      2  C   UNL     1       3.138   2.213   1.376  0.00  0.00    +0.027 C 
ATOM      3  C   UNL     1       4.548   2.759   1.027  0.00  0.00    +0.019 C 
ATOM      4  C   UNL     1       4.256   3.575  -0.257  0.00  0.00    +0.110 C 
ATOM      5  N   UNL     1       3.237   2.792  -0.979  0.00  0.00    -0.169 NA
ENDROOT
BRANCH   1   8
ATOM      6  C   UNL     1       1.235   4.934   0.015  0.00  0.00    +0.069 C 
ATOM      7  C   UNL     1       0.490   3.624   0.016  0.00  0.00    +0.086 A 
ATOM      8  C   UNL     1       1.055   2.328   0.004  0.00  0.00    +0.036 A 
ATOM      9  C   UNL     1      -0.018   1.503   0.010  0.00  0.00    +0.139 A 
ATOM     10  O   UNL     1      -1.103   2.291   0.019  0.00  0.00    -0.359 OA
ATOM     11  N   UNL     1      -0.801   3.462   0.028  0.00  0.00    -0.083 NA
ATOM     12  C   UNL     1       0.002  -0.004   0.002  0.00  0.00    +0.089 C 
ENDBRANCH   1   8
BRANCH   5  13
ATOM     13  S   UNL     1       2.953   2.847  -2.609  0.00  0.00    +0.061 S 
ATOM     14  O   UNL     1       4.155   3.301  -3.215  0.00  0.00    -0.153 OA
ATOM     15  O   UNL     1       2.344   1.612  -2.957  0.00  0.00    -0.153 OA
BRANCH  13  16
ATOM     16  C   UNL     1       1.745   4.100  -2.885  0.00  0.00    +0.107 A 
ATOM     17  C   UNL     1       0.401   3.777  -2.875  0.00  0.00    +0.032 A 
ATOM     18  C   UNL     1      -0.549   4.758  -3.086  0.00  0.00    +0.049 A 
ATOM     19  C   UNL     1      -0.153   6.066  -3.319  0.00  0.00    +0.138 A 
ATOM     20  C   UNL     1       1.198   6.388  -3.335  0.00  0.00    +0.084 A 
ATOM     21  C   UNL     1       2.143   5.403  -3.118  0.00  0.00    +0.052 A 
ATOM     22 CL   UNL     1       1.698   8.024  -3.627  0.00  0.00    -0.080 Cl
BRANCH  19  23
ATOM     23  O   UNL     1      -1.085   7.032  -3.533  0.00  0.00    -0.494 OA
ATOM     24  C   UNL     1      -2.456   6.629  -3.502  0.00  0.00    +0.277 C 
ENDBRANCH  19  23
ENDBRANCH  13  16
ENDBRANCH   5  13
TORSDOF 4
