REMARK  Name = ZINC30498924
REMARK  12 active torsions:
REMARK  status: ('A' for Active; 'I' for Inactive)
REMARK    1  A    between atoms: C_1  and  C_2
REMARK    2  A    between atoms: C_2  and  C_3
REMARK    3  A    between atoms: N_5  and  C_6
REMARK    4  A    between atoms: C_9  and  C_12
REMARK    5  A    between atoms: C_12  and  C_14
REMARK    6  A    between atoms: C_12  and  N_15
REMARK    7  A    between atoms: N_15  and  C_16
REMARK    8  A    between atoms: C_16  and  C_18
REMARK    9  A    between atoms: C_16  and  C_19
REMARK   10  A    between atoms: N_21  and  C_22
REMARK   11  A    between atoms: C_27  and  O_28
REMARK   12  A    between atoms: O_28  and  C_29
REMARK                            x       y       z     vdW  Elec       q    Type
REMARK                         _______ _______ _______ _____ _____    ______ ____
ROOT
ATOM      1  N   UNL     1      -1.032   3.221  -0.850  0.00  0.00    +0.391 N 
ATOM      2  H   UNL     1      -0.672   4.120  -0.327  0.00  0.00    -0.084 HD
ATOM      3  H   UNL     1      -0.369   3.002  -1.700  0.00  0.00    -0.084 HD
ENDROOT
BRANCH   1   4
ATOM      4  C   UNL     1      -1.030   2.082   0.078  0.00  0.00    -0.043 C 
ATOM      5  C   UNL     1      -1.397   2.568   1.482  0.00  0.00    -0.009 C 
BRANCH   4   9
ATOM      6  C   UNL     1       2.857   0.308   0.140  0.00  0.00    +0.033 A 
ATOM      7  C   UNL     1       1.725  -0.495   0.167  0.00  0.00    +0.023 A 
ATOM      8  C   UNL     1       0.470   0.081   0.149  0.00  0.00    +0.004 A 
ATOM      9  C   UNL     1       0.340   1.457   0.104  0.00  0.00    -0.062 A 
ATOM     10  C   UNL     1       1.466   2.260   0.077  0.00  0.00    +0.004 A 
ATOM     11  C   UNL     1       2.724   1.690   0.095  0.00  0.00    +0.023 A 
BRANCH   6  14
ATOM     12  C   UNL     1       4.307  -1.523  -0.313  0.00  0.00    +0.217 C 
ATOM     13  O   UNL     1       3.388  -2.104  -0.849  0.00  0.00    -0.275 OA
ATOM     14  N   UNL     1       4.130  -0.272   0.158  0.00  0.00    -0.286 N 
ATOM     15  H   UNL     1       4.986   0.291   0.557  0.00  0.00    +0.155 HD
BRANCH  12  17
ATOM     16  C   UNL     1       5.579  -3.598  -0.787  0.00  0.00    +0.013 C 
ATOM     17  C   UNL     1       5.647  -2.197  -0.174  0.00  0.00    +0.093 C 
ENDBRANCH  12  17
ENDBRANCH   6  14
ENDBRANCH   4   9
ENDBRANCH   1   4
BRANCH   1  18
ATOM     18  C   UNL     1      -2.384   3.483  -1.361  0.00  0.00    +0.014 C 
ATOM     19  C   UNL     1      -2.655   2.583  -2.569  0.00  0.00    -0.004 C 
BRANCH  18  20
ATOM     20  C   UNL     1      -2.493   4.927  -1.776  0.00  0.00    +0.203 C 
ATOM     21  O   UNL     1      -1.539   5.667  -1.657  0.00  0.00    -0.277 OA
ATOM     22  N   UNL     1      -3.652   5.398  -2.279  0.00  0.00    -0.284 N 
ATOM     23  H   UNL     1      -4.540   4.749  -2.315  0.00  0.00    +0.155 HD
BRANCH  22  24
ATOM     24  C   UNL     1      -3.726   6.714  -2.755  0.00  0.00    +0.076 A 
ATOM     25  C   UNL     1      -2.997   7.719  -2.136  0.00  0.00    +0.027 A 
ATOM     26  C   UNL     1      -3.067   9.015  -2.611  0.00  0.00    +0.002 A 
ATOM     27  C   UNL     1      -3.871   9.315  -3.695  0.00  0.00    +0.004 A 
ATOM     28  C   UNL     1      -4.605   8.320  -4.313  0.00  0.00    +0.047 A 
ATOM     29  C   UNL     1      -4.536   7.017  -3.846  0.00  0.00    +0.141 A 
BRANCH  29  30
ATOM     30  O   UNL     1      -5.258   6.037  -4.453  0.00  0.00    -0.493 OA
ATOM     31  C   UNL     1      -6.066   6.421  -5.566  0.00  0.00    +0.277 C 
ENDBRANCH  29  30
ENDBRANCH  22  24
ENDBRANCH  18  20
ENDBRANCH   1  18
TORSDOF 8
