REMARK  Name = ZINC12572026
REMARK  11 active torsions:
REMARK  status: ('A' for Active; 'I' for Inactive)
REMARK    1  A    between atoms: C_1  and  C_2
REMARK    2  A    between atoms: C_7  and  C_14
REMARK    3  A    between atoms: N_11  and  C_12
REMARK    4  A    between atoms: N_11  and  C_13
REMARK    5  A    between atoms: C_14  and  N_15
REMARK    6  A    between atoms: N_15  and  C_16
REMARK    7  A    between atoms: C_16  and  C_17
REMARK    8  A    between atoms: C_17  and  C_18
REMARK    9  A    between atoms: C_25  and  C_27
REMARK   10  A    between atoms: C_32  and  C_34
REMARK   11  A    between atoms: C_32  and  C_35
REMARK                            x       y       z     vdW  Elec       q    Type
REMARK                         _______ _______ _______ _____ _____    ______ ____
ROOT
ATOM      1  N   UNL     1      -1.760  -1.419   1.612  0.00  0.00    -0.297 N 
ATOM      2  C   UNL     1      -2.056  -0.544   2.593  0.00  0.00    +0.219 C 
ATOM      3  O   UNL     1      -1.845  -0.837   3.751  0.00  0.00    -0.275 OA
ENDROOT
BRANCH   2   4
ATOM      4  C   UNL     1      -2.650   0.799   2.252  0.00  0.00    +0.080 C 
ATOM      5  C   UNL     1      -1.555   1.719   1.703  0.00  0.00    +0.041 C 
ATOM      6  C   UNL     1      -2.150   3.103   1.433  0.00  0.00    +0.161 C 
ATOM      7  O   UNL     1      -2.716   3.620   2.639  0.00  0.00    -0.374 OA
ATOM      8  C   UNL     1      -3.777   2.826   3.173  0.00  0.00    +0.065 C 
ATOM      9  C   UNL     1      -3.247   1.431   3.513  0.00  0.00    +0.047 C 
ATOM     10  C   UNL     1      -4.321   3.488   4.441  0.00  0.00    +0.041 C 
ATOM     11  C   UNL     1      -4.897   2.709   2.138  0.00  0.00    +0.041 C 
ENDBRANCH   2   4
BRANCH   1  12
ATOM     12  C   UNL     1      -1.898  -1.020   0.209  0.00  0.00    +0.146 C 
BRANCH  12  19
ATOM     13  C   UNL     1       5.400   1.483  -1.616  0.00  0.00    +0.044 C 
ATOM     14  C   UNL     1       4.092   0.991  -1.051  0.00  0.00    -0.048 A 
ATOM     15  C   UNL     1       3.994   0.714   0.311  0.00  0.00    +0.004 A 
ATOM     16  C   UNL     1       2.826   0.268   0.850  0.00  0.00    +0.010 A 
ATOM     17  C   UNL     1       1.706   0.085   0.025  0.00  0.00    -0.001 A 
ATOM     18  C   UNL     1       0.479  -0.375   0.548  0.00  0.00    +0.018 A 
ATOM     19  C   UNL     1      -0.569  -0.531  -0.307  0.00  0.00    +0.008 A 
ATOM     20  C   UNL     1      -0.409  -0.236  -1.669  0.00  0.00    +0.103 A 
ATOM     21  C   UNL     1       1.803   0.365  -1.359  0.00  0.00    +0.048 A 
ATOM     22  C   UNL     1       3.026   0.823  -1.880  0.00  0.00    +0.029 A 
ATOM     23  N   UNL     1      -1.486  -0.400  -2.528  0.00  0.00    -0.322 N 
ATOM     24  C   UNL     1      -1.772   0.844  -3.256  0.00  0.00    +0.130 C 
ATOM     25  C   UNL     1      -1.253  -1.513  -3.458  0.00  0.00    +0.130 C 
ATOM     26  N   UNL     1       0.744   0.208  -2.226  0.00  0.00    -0.343 N 
ATOM     27  H   UNL     1       0.824   0.414  -3.229  0.00  0.00    +0.167 HD
ENDBRANCH  12  19
ENDBRANCH   1  12
BRANCH   1  28
ATOM     28  C   UNL     1      -1.301  -2.769   1.948  0.00  0.00    +0.113 C 
BRANCH  28  29
ATOM     29  C   UNL     1       0.229  -2.800   1.955  0.00  0.00    +0.054 C 
BRANCH  29  30
ATOM     30  C   UNL     1       0.701  -4.194   2.280  0.00  0.00    -0.046 A 
ATOM     31  C   UNL     1       0.827  -4.590   3.598  0.00  0.00    +0.006 A 
ATOM     32  C   UNL     1       1.255  -5.870   3.898  0.00  0.00    +0.038 A 
ATOM     33  C   UNL     1       1.569  -6.751   2.877  0.00  0.00    +0.123 A 
ATOM     34  C   UNL     1       1.448  -6.351   1.557  0.00  0.00    +0.038 A 
ATOM     35  C   UNL     1       1.014  -5.072   1.260  0.00  0.00    +0.006 A 
ATOM     36  F   UNL     1       1.992  -8.000   3.168  0.00  0.00    -0.205 F 
ENDBRANCH  29  30
ENDBRANCH  28  29
ENDBRANCH   1  28
TORSDOF 6
