REMARK  Name = ZINC43423764
REMARK  6 active torsions:
REMARK  status: ('A' for Active; 'I' for Inactive)
REMARK    1  A    between atoms: C_1  and  C_2
REMARK    2  A    between atoms: C_2  and  C_3
REMARK    3  A    between atoms: C_3  and  C_5
REMARK    4  A    between atoms: C_3  and  N_24
REMARK    5  A    between atoms: C_5  and  C_7
REMARK    6  A    between atoms: C_5  and  N_13
REMARK                            x       y       z     vdW  Elec       q    Type
REMARK                         _______ _______ _______ _____ _____    ______ ____
ROOT
ATOM      1  C   UNL     1      -1.408  -2.107  -0.319  0.00  0.00    +0.080 C 
ENDROOT
BRANCH   1   2
ATOM      2  N   UNL     1      -2.654  -2.860  -0.513  0.00  0.00    -0.289 NA
ATOM      3  C   UNL     1      -3.664  -2.485   0.499  0.00  0.00    +0.113 C 
ATOM      4  C   UNL     1      -4.984  -3.216   0.270  0.00  0.00    +0.175 C 
ATOM      5  O   UNL     1      -5.430  -3.090  -1.092  0.00  0.00    -0.374 OA
ATOM      6  C   UNL     1      -4.438  -3.554  -1.990  0.00  0.00    +0.135 C 
ATOM      7  C   UNL     1      -3.217  -2.607  -1.831  0.00  0.00    +0.086 C 
ATOM      8  C   UNL     1      -2.346  -2.952  -3.034  0.00  0.00    +0.021 C 
ATOM      9  C   UNL     1      -3.332  -3.425  -4.132  0.00  0.00    +0.004 C 
ATOM     10  C   UNL     1      -4.751  -3.432  -3.485  0.00  0.00    +0.033 C 
ENDBRANCH   1   2
BRANCH   1  11
ATOM     11  C   UNL     1      -0.590  -2.760   0.765  0.00  0.00    +0.006 A 
ATOM     12  C   UNL     1       0.733  -3.055   0.776  0.00  0.00    +0.028 A 
ATOM     13  C   UNL     1       1.276  -3.662   1.893  0.00  0.00    +0.025 A 
ATOM     14  C   UNL     1       0.468  -3.945   2.945  0.00  0.00    +0.060 A 
ATOM     15  S   UNL     1      -1.111  -3.339   2.372  0.00  0.00    -0.099 S 
ATOM     16 BR   UNL     1       3.116  -4.093   1.953  0.00  0.00    -0.050 Br
ENDBRANCH   1  11
BRANCH   1  17
ATOM     17  C   UNL     1      -1.740  -0.670   0.089  0.00  0.00    -0.053 C 
BRANCH  17  18
ATOM     18  N   UNL     1      -2.553  -0.039  -0.959  0.00  0.00    +0.381 N 
ATOM     19  H   UNL     1      -2.175  -0.273  -1.865  0.00  0.00    -0.090 HD
ATOM     20  H   UNL     1      -3.503  -0.374  -0.895  0.00  0.00    -0.090 HD
ATOM     21  H   UNL     1      -2.541   0.963  -0.838  0.00  0.00    -0.090 HD
ENDBRANCH  17  18
BRANCH  17  23
ATOM     22  C   UNL     1      -0.768   1.520   0.799  0.00  0.00    +0.002 C 
ATOM     23  C   UNL     1      -0.443   0.120   0.272  0.00  0.00    -0.018 C 
ENDBRANCH  17  23
ENDBRANCH   1  17
TORSDOF 5
