REMARK  Name = ZINC35424241
REMARK  6 active torsions:
REMARK  status: ('A' for Active; 'I' for Inactive)
REMARK    1  A    between atoms: C_1  and  O_2
REMARK    2  A    between atoms: O_2  and  C_3
REMARK    3  A    between atoms: C_3  and  C_5
REMARK    4  A    between atoms: C_21  and  C_34
REMARK    5  A    between atoms: C_24  and  N_27
REMARK    6  A    between atoms: C_30  and  O_33
REMARK                            x       y       z     vdW  Elec       q    Type
REMARK                         _______ _______ _______ _____ _____    ______ ____
ROOT
ATOM      1  C   UNL     1       0.657  -2.104  -1.120  0.00  0.00    +0.172 C 
ATOM      2  C   UNL     1       1.520  -2.641   0.031  0.00  0.00    +0.068 C 
ATOM      3  C   UNL     1       2.959  -2.300  -0.260  0.00  0.00    -0.016 A 
ATOM      4  C   UNL     1       4.100  -2.306   0.628  0.00  0.00    +0.003 A 
ATOM      5  C   UNL     1       4.246  -2.612   1.985  0.00  0.00    +0.010 A 
ATOM      6  C   UNL     1       5.509  -2.505   2.513  0.00  0.00    +0.001 A 
ATOM      7  C   UNL     1       6.596  -2.115   1.749  0.00  0.00    +0.002 A 
ATOM      8  C   UNL     1       6.480  -1.805   0.404  0.00  0.00    +0.026 A 
ATOM      9  C   UNL     1       5.210  -1.904  -0.159  0.00  0.00    +0.047 A 
ATOM     10  N   UNL     1       4.751  -1.677  -1.425  0.00  0.00    -0.356 N 
ATOM     11  H   UNL     1       5.297  -1.391  -2.174  0.00  0.00    +0.166 HD
ATOM     12  C   UNL     1       3.404  -1.914  -1.479  0.00  0.00    +0.038 A 
ATOM     13  C   UNL     1       2.497  -1.782  -2.676  0.00  0.00    +0.103 C 
ATOM     14  N   UNL     1       1.247  -2.505  -2.401  0.00  0.00    -0.274 NA
ATOM     15  C   UNL     1       0.297  -2.350  -3.510  0.00  0.00    +0.087 C 
ATOM     16  C   UNL     1       0.897  -2.962  -4.779  0.00  0.00    +0.008 C 
ATOM     17  C   UNL     1       2.220  -2.265  -5.106  0.00  0.00    -0.065 C 
ATOM     18  C   UNL     1       3.172  -2.380  -3.912  0.00  0.00    +0.010 C 
ENDROOT
BRANCH  15  19
ATOM     19  C   UNL     1      -0.991  -3.056  -3.171  0.00  0.00    -0.030 A 
ATOM     20  C   UNL     1      -0.959  -4.277  -2.523  0.00  0.00    +0.008 A 
ATOM     21  C   UNL     1      -2.140  -4.924  -2.211  0.00  0.00    +0.038 A 
ATOM     22  C   UNL     1      -3.354  -4.350  -2.548  0.00  0.00    +0.123 A 
ATOM     23  C   UNL     1      -3.384  -3.127  -3.196  0.00  0.00    +0.038 A 
ATOM     24  C   UNL     1      -2.202  -2.479  -3.502  0.00  0.00    +0.008 A 
ATOM     25  F   UNL     1      -4.508  -4.982  -2.244  0.00  0.00    -0.205 F 
ENDBRANCH  15  19
BRANCH  17  26
ATOM     26  N   UNL     1       2.830  -2.898  -6.283  0.00  0.00    +0.383 N 
ATOM     27  C   UNL     1       1.960  -2.713  -7.472  0.00  0.00    -0.076 C 
ATOM     28  C   UNL     1       2.938  -2.900  -8.659  0.00  0.00    +0.011 C 
ATOM     29  C   UNL     1       4.234  -2.231  -8.148  0.00  0.00    +0.096 C 
ATOM     30  C   UNL     1       4.110  -2.235  -6.613  0.00  0.00    -0.047 C 
ATOM     31  H   UNL     1       2.981  -3.881  -6.111  0.00  0.00    -0.081 HD
BRANCH  29  32
ATOM     32  O   UNL     1       4.328  -0.891  -8.636  0.00  0.00    -0.394 OA
ATOM     33  H   UNL     1       4.365  -0.826  -9.600  0.00  0.00    +0.210 HD
ENDBRANCH  29  32
ENDBRANCH  17  26
BRANCH   1  34
ATOM     34  C   UNL     1       0.598  -0.600  -1.043  0.00  0.00    +0.325 C 
ATOM     35  O   UNL     1       0.813   0.065  -2.029  0.00  0.00    -0.249 OA
BRANCH  34  37
ATOM     36  C   UNL     1       0.268   1.430   0.122  0.00  0.00    +0.280 C 
ATOM     37  O   UNL     1       0.307   0.002   0.121  0.00  0.00    -0.467 OA
ENDBRANCH  34  37
ENDBRANCH   1  34
TORSDOF 5
