REMARK  Name = ZINC29112888
REMARK  8 active torsions:
REMARK  status: ('A' for Active; 'I' for Inactive)
REMARK    1  A    between atoms: C_1  and  C_2
REMARK    2  A    between atoms: C_2  and  C_3
REMARK    3  A    between atoms: C_2  and  C_4
REMARK    4  A    between atoms: C_4  and  C_6
REMARK    5  A    between atoms: C_4  and  N_11
REMARK    6  A    between atoms: N_11  and  C_12
REMARK    7  A    between atoms: C_12  and  C_13
REMARK    8  A    between atoms: C_17  and  C_26
REMARK                            x       y       z     vdW  Elec       q    Type
REMARK                         _______ _______ _______ _____ _____    ______ ____
ROOT
ATOM      1  C   UNL     1      -4.095  -1.029   2.330  0.00  0.00    +0.203 C 
ATOM      2  O   UNL     1      -4.105   0.151   2.610  0.00  0.00    -0.277 OA
ATOM      3  N   UNL     1      -5.041  -1.849   2.830  0.00  0.00    -0.266 N 
ATOM      4  C   UNL     1      -5.001  -3.300   2.582  0.00  0.00    +0.168 C 
ATOM      5  C   UNL     1      -6.434  -3.759   2.277  0.00  0.00    +0.276 C 
ATOM      6  O   UNL     1      -7.270  -3.423   3.387  0.00  0.00    -0.476 OA
ATOM      7  C   UNL     1      -7.205  -2.154   3.869  0.00  0.00    +0.143 A 
ATOM      8  C   UNL     1      -6.097  -1.349   3.611  0.00  0.00    +0.078 A 
ATOM      9  C   UNL     1      -6.045  -0.058   4.108  0.00  0.00    +0.027 A 
ATOM     10  C   UNL     1      -7.091   0.431   4.868  0.00  0.00    +0.002 A 
ATOM     11  C   UNL     1      -8.190  -0.366   5.128  0.00  0.00    +0.004 A 
ATOM     12  C   UNL     1      -8.250  -1.655   4.631  0.00  0.00    +0.047 A 
ENDROOT
BRANCH   5  13
ATOM     13  C   UNL     1      -6.453  -5.250   2.063  0.00  0.00    +0.253 C 
ATOM     14  O   UNL     1      -7.053  -5.966   2.836  0.00  0.00    -0.272 OA
ATOM     15  N   UNL     1      -5.802  -5.788   1.013  0.00  0.00    -0.326 N 
ATOM     16  H   UNL     1      -5.815  -6.877   0.856  0.00  0.00    +0.145 HD
ATOM     17  H   UNL     1      -5.257  -5.139   0.312  0.00  0.00    +0.145 HD
ENDBRANCH   5  13
BRANCH   1  18
ATOM     18  C   UNL     1      -3.024  -1.579   1.423  0.00  0.00    +0.016 C 
BRANCH  18  19
ATOM     19  N   UNL     1      -2.193  -0.477   0.922  0.00  0.00    +0.390 N 
ATOM     20  H   UNL     1      -1.737   0.039   1.779  0.00  0.00    -0.084 HD
ATOM     21  H   UNL     1      -2.835   0.226   0.370  0.00  0.00    -0.084 HD
BRANCH  19  22
ATOM     22  C   UNL     1      -1.136  -0.976   0.032  0.00  0.00    -0.031 C 
BRANCH  22  23
ATOM     23  C   UNL     1       0.017  -0.006   0.028  0.00  0.00    -0.024 A 
ATOM     24  C   UNL     1       1.348  -0.262   0.027  0.00  0.00    +0.009 A 
ATOM     25  C   UNL     1       2.235   0.798   0.022  0.00  0.00    +0.008 A 
ATOM     26  C   UNL     1       1.747   2.063   0.018  0.00  0.00    +0.045 A 
ATOM     27  S   UNL     1      -0.016   1.779   0.021  0.00  0.00    -0.103 S 
ENDBRANCH  22  23
BRANCH  22  29
ATOM     28  C   UNL     1      -2.057   0.264  -1.932  0.00  0.00    +0.006 C 
ATOM     29  C   UNL     1      -1.689  -1.118  -1.388  0.00  0.00    -0.027 C 
ATOM     30  C   UNL     1      -0.628  -1.754  -2.287  0.00  0.00    +0.006 C 
ENDBRANCH  22  29
ENDBRANCH  19  22
ENDBRANCH  18  19
ENDBRANCH   1  18
TORSDOF 6
