REMARK  Name = ZINC63806663
REMARK  6 active torsions:
REMARK  status: ('A' for Active; 'I' for Inactive)
REMARK    1  A    between atoms: C_7  and  C_10
REMARK    2  A    between atoms: C_10  and  C_11
REMARK    3  A    between atoms: C_11  and  N_12
REMARK    4  A    between atoms: C_13  and  C_15
REMARK    5  A    between atoms: C_15  and  S_16
REMARK    6  A    between atoms: S_16  and  C_17
REMARK                            x       y       z     vdW  Elec       q    Type
REMARK                         _______ _______ _______ _____ _____    ______ ____
ROOT
ATOM      1  N   UNL     1      -0.458  -4.798  -1.460  0.00  0.00    -0.314 N 
ATOM      2  C   UNL     1      -0.811  -5.380  -2.623  0.00  0.00    +0.223 C 
ATOM      3  O   UNL     1      -0.371  -4.957  -3.671  0.00  0.00    -0.275 OA
ATOM      4  H   UNL     1      -0.810  -5.136  -0.622  0.00  0.00    +0.149 HD
ENDROOT
BRANCH   1   5
ATOM      5  C   UNL     1       0.457  -3.653  -1.462  0.00  0.00    +0.108 C 
BRANCH   5   6
ATOM      6  C   UNL     1       0.691  -3.186  -0.024  0.00  0.00    +0.052 C 
BRANCH   6  13
ATOM      7  C   UNL     1      -0.016   1.348   0.009  0.00  0.00    +0.001 A 
ATOM      8  C   UNL     1       1.166   2.101   0.002  0.00  0.00    +0.002 A 
ATOM      9  C   UNL     1       2.391   1.535  -0.013  0.00  0.00    +0.026 A 
ATOM     10  C   UNL     1       2.529   0.120  -0.022  0.00  0.00    +0.043 A 
ATOM     11  N   UNL     1       3.587  -0.654  -0.037  0.00  0.00    -0.380 N 
ATOM     12  C   UNL     1       3.143  -2.053  -0.041  0.00  0.00    +0.144 C 
ATOM     13  C   UNL     1       1.631  -2.008  -0.025  0.00  0.00    -0.040 C 
ATOM     14  C   UNL     1       1.295  -0.698  -0.014  0.00  0.00    -0.001 A 
ATOM     15  C   UNL     1       0.002  -0.004   0.002  0.00  0.00    +0.010 A 
ATOM     16  H   UNL     1       4.509  -0.353  -0.045  0.00  0.00    +0.160 HD
ENDBRANCH   6  13
ENDBRANCH   5   6
ENDBRANCH   1   5
BRANCH   2  17
ATOM     17  C   UNL     1      -1.752  -6.557  -2.622  0.00  0.00    +0.167 C 
BRANCH  17  18
ATOM     18  S   UNL     1      -2.029  -7.112  -4.326  0.00  0.00    -0.118 S 
BRANCH  18  19
ATOM     19  C   UNL     1      -3.167  -8.514  -4.152  0.00  0.00    +0.193 C 
ATOM     20  N   UNL     1      -4.389  -8.118  -3.439  0.00  0.00    -0.323 N 
ATOM     21  C   UNL     1      -4.659  -8.747  -2.225  0.00  0.00    +0.042 A 
ATOM     22  C   UNL     1      -5.775  -8.499  -1.405  0.00  0.00    +0.024 A 
ATOM     23  C   UNL     1      -5.953  -9.175  -0.221  0.00  0.00    +0.002 A 
ATOM     24  C   UNL     1      -5.039 -10.121   0.206  0.00  0.00    +0.001 A 
ATOM     25  C   UNL     1      -3.931 -10.386  -0.581  0.00  0.00    +0.016 A 
ATOM     26  C   UNL     1      -3.755  -9.710  -1.767  0.00  0.00    +0.031 A 
ATOM     27  S   UNL     1      -2.483  -9.782  -3.011  0.00  0.00    -0.090 S 
ATOM     28  H   UNL     1      -4.985  -7.443  -3.800  0.00  0.00    +0.148 HD
ENDBRANCH  18  19
ENDBRANCH  17  18
ENDBRANCH   2  17
TORSDOF 6
