REMARK  Name = ZINC19502183
REMARK  11 active torsions:
REMARK  status: ('A' for Active; 'I' for Inactive)
REMARK    1  A    between atoms: C_1  and  C_2
REMARK    2  A    between atoms: C_2  and  C_3
REMARK    3  A    between atoms: C_3  and  C_4
REMARK    4  A    between atoms: C_4  and  C_5
REMARK    5  A    between atoms: C_5  and  C_31
REMARK    6  A    between atoms: C_10  and  C_13
REMARK    7  A    between atoms: C_16  and  O_19
REMARK    8  A    between atoms: N_22  and  C_25
REMARK    9  A    between atoms: C_31  and  O_33
REMARK   10  A    between atoms: O_33  and  C_34
REMARK   11  A    between atoms: C_34  and  C_35
REMARK                            x       y       z     vdW  Elec       q    Type
REMARK                         _______ _______ _______ _____ _____    ______ ____
ROOT
ATOM      1  C   UNL     1       1.503  -2.548   2.473  0.00  0.00    +0.129 C 
ATOM      2  C   UNL     1       1.436  -4.069   2.556  0.00  0.00    +0.120 C 
ATOM      3  C   UNL     1       1.813  -4.199   4.080  0.00  0.00    +0.111 C 
ATOM      4  C   UNL     1       0.934  -3.221   4.734  0.00  0.00    +0.097 C 
ATOM      5  N   UNL     1       0.803  -2.109   3.724  0.00  0.00    -0.293 NA
ATOM      6  C   UNL     1       2.189  -5.589   4.178  0.00  0.00    +0.232 C 
ATOM      7  O   UNL     1       2.030  -6.331   5.123  0.00  0.00    -0.274 OA
ATOM      8  N   UNL     1       2.765  -5.887   2.968  0.00  0.00    -0.210 N 
ATOM      9  C   UNL     1       2.538  -4.921   2.009  0.00  0.00    +0.232 C 
ATOM     10  O   UNL     1       3.109  -4.783   0.949  0.00  0.00    -0.274 OA
ATOM     11  H   UNL     1       1.193  -1.246   4.073  0.00  0.00    +0.124 HD
ENDROOT
BRANCH   4  12
ATOM     12  C   UNL     1      -0.403  -3.842   5.046  0.00  0.00    -0.029 A 
ATOM     13  C   UNL     1      -1.353  -3.970   4.050  0.00  0.00    +0.009 A 
ATOM     14  C   UNL     1      -2.580  -4.538   4.333  0.00  0.00    +0.046 A 
ATOM     15  C   UNL     1      -2.858  -4.982   5.618  0.00  0.00    +0.117 A 
ATOM     16  C   UNL     1      -1.902  -4.853   6.615  0.00  0.00    +0.046 A 
ATOM     17  C   UNL     1      -0.675  -4.289   6.326  0.00  0.00    +0.009 A 
BRANCH  15  18
ATOM     18  O   UNL     1      -4.064  -5.541   5.899  0.00  0.00    -0.507 OA
ATOM     19  H   UNL     1      -4.092  -6.500   5.774  0.00  0.00    +0.292 HD
ENDBRANCH  15  18
ENDBRANCH   4  12
BRANCH   8  20
ATOM     20  C   UNL     1       3.499  -7.056   2.725  0.00  0.00    +0.044 A 
ATOM     21  C   UNL     1       4.056  -7.280   1.473  0.00  0.00    +0.024 A 
ATOM     22  C   UNL     1       4.778  -8.433   1.237  0.00  0.00    +0.002 A 
ATOM     23  C   UNL     1       4.948  -9.364   2.245  0.00  0.00    +0.000 A 
ATOM     24  C   UNL     1       4.394  -9.144   3.493  0.00  0.00    +0.002 A 
ATOM     25  C   UNL     1       3.675  -7.990   3.737  0.00  0.00    +0.024 A 
ENDBRANCH   8  20
BRANCH   1  26
ATOM     26  C   UNL     1       2.933  -2.073   2.468  0.00  0.00    +0.328 C 
ATOM     27  O   UNL     1       3.806  -2.789   2.037  0.00  0.00    -0.249 OA
BRANCH  26  28
ATOM     28  O   UNL     1       3.238  -0.855   2.942  0.00  0.00    -0.464 OA
BRANCH  28  29
ATOM     29  C   UNL     1       4.613  -0.470   2.907  0.00  0.00    +0.229 C 
ATOM     30  C   UNL     1       4.764   0.938   3.485  0.00  0.00    +0.048 C 
ENDBRANCH  28  29
ENDBRANCH  26  28
ENDBRANCH   1  26
BRANCH   1  31
ATOM     31  C   UNL     1       0.763  -2.041   1.233  0.00  0.00    +0.034 C 
BRANCH  31  32
ATOM     32  C   UNL     1       0.742  -0.511   1.242  0.00  0.00    +0.002 C 
BRANCH  32  34
ATOM     33  C   UNL     1      -0.019   1.526   0.010  0.00  0.00    +0.004 C 
ATOM     34  C   UNL     1       0.002  -0.004   0.002  0.00  0.00    -0.003 C 
ENDBRANCH  32  34
ENDBRANCH  31  32
ENDBRANCH   1  31
TORSDOF 9
