REMARK  Name = ZINC43190044
REMARK  12 active torsions:
REMARK  status: ('A' for Active; 'I' for Inactive)
REMARK    1  A    between atoms: C_1  and  C_2
REMARK    2  A    between atoms: C_5  and  S_8
REMARK    3  A    between atoms: S_8  and  C_9
REMARK    4  A    between atoms: C_9  and  C_10
REMARK    5  A    between atoms: N_12  and  N_13
REMARK    6  A    between atoms: N_16  and  C_17
REMARK    7  A    between atoms: C_17  and  C_18
REMARK    8  A    between atoms: C_18  and  C_19
REMARK    9  A    between atoms: C_18  and  C_20
REMARK   10  A    between atoms: C_18  and  N_21
REMARK   11  A    between atoms: N_21  and  C_22
REMARK   12  A    between atoms: N_21  and  C_23
REMARK                            x       y       z     vdW  Elec       q    Type
REMARK                         _______ _______ _______ _____ _____    ______ ____
ROOT
ATOM      1  N   UNL     1      -0.449  -8.287   3.314  0.00  0.00    -0.218 N 
ATOM      2  C   UNL     1      -0.252  -8.891   4.502  0.00  0.00    +0.316 C 
ATOM      3  O   UNL     1      -0.171 -10.103   4.562  0.00  0.00    -0.251 OA
ATOM      4  N   UNL     1      -0.146  -8.153   5.625  0.00  0.00    -0.300 N 
ATOM      5  H   UNL     1      -0.525  -8.818   2.506  0.00  0.00    +0.174 HD
ATOM      6  H   UNL     1      -0.211  -7.186   5.577  0.00  0.00    +0.150 HD
ENDROOT
BRANCH   1   9
ATOM      7  C   UNL     1      -0.740  -6.286   2.057  0.00  0.00    +0.239 C 
ATOM      8  O   UNL     1      -0.835  -6.951   1.047  0.00  0.00    -0.273 OA
ATOM      9  N   UNL     1      -0.543  -6.891   3.245  0.00  0.00    -0.233 N 
ATOM     10  H   UNL     1      -0.466  -6.359   4.053  0.00  0.00    +0.173 HD
BRANCH   7  11
ATOM     11  C   UNL     1      -0.841  -4.784   1.983  0.00  0.00    +0.171 C 
BRANCH  11  12
ATOM     12  S   UNL     1      -1.103  -4.280   0.260  0.00  0.00    -0.116 S 
BRANCH  12  17
ATOM     13  C   UNL     1      -1.434   1.741   0.535  0.00  0.00    +0.044 C 
ATOM     14  C   UNL     1      -1.351   0.237   0.467  0.00  0.00    -0.050 A 
ATOM     15  C   UNL     1      -1.475  -0.405  -0.752  0.00  0.00    +0.004 A 
ATOM     16  C   UNL     1      -1.400  -1.782  -0.819  0.00  0.00    +0.015 A 
ATOM     17  C   UNL     1      -1.199  -2.523   0.340  0.00  0.00    +0.008 A 
ATOM     18  C   UNL     1      -1.074  -1.873   1.563  0.00  0.00    +0.015 A 
ATOM     19  C   UNL     1      -1.145  -0.495   1.621  0.00  0.00    +0.004 A 
ENDBRANCH  12  17
ENDBRANCH  11  12
ENDBRANCH   7  11
ENDBRANCH   1   9
BRANCH   4  20
ATOM     20  C   UNL     1       0.068  -8.810   6.917  0.00  0.00    +0.093 C 
BRANCH  20  21
ATOM     21  C   UNL     1       0.283  -7.749   7.998  0.00  0.00    -0.056 C 
ATOM     22  C   UNL     1      -0.999  -6.934   8.176  0.00  0.00    -0.008 C 
ATOM     23  C   UNL     1       0.639  -8.434   9.320  0.00  0.00    -0.008 C 
BRANCH  21  24
ATOM     24  N   UNL     1       1.380  -6.857   7.599  0.00  0.00    +0.380 N 
ATOM     25  C   UNL     1       1.589  -5.841   8.639  0.00  0.00    -0.096 C 
ATOM     26  C   UNL     1       2.610  -7.641   7.425  0.00  0.00    -0.096 C 
ATOM     27  H   UNL     1       1.144  -6.404   6.729  0.00  0.00    -0.082 HD
ENDBRANCH  21  24
ENDBRANCH  20  21
ENDBRANCH   4  20
TORSDOF 7
