REMARK  Name = ZINC22791763
REMARK  12 active torsions:
REMARK  status: ('A' for Active; 'I' for Inactive)
REMARK    1  A    between atoms: C_1  and  C_2
REMARK    2  A    between atoms: C_2  and  N_3
REMARK    3  A    between atoms: N_3  and  C_4
REMARK    4  A    between atoms: N_3  and  C_6
REMARK    5  A    between atoms: C_4  and  C_5
REMARK    6  A    between atoms: C_6  and  C_7
REMARK    7  A    between atoms: C_7  and  N_8
REMARK    8  A    between atoms: N_8  and  CA_9
REMARK    9  A    between atoms: CA_9  and  C_11
REMARK   10  A    between atoms: CA_9  and  C_23
REMARK   11  A    between atoms: C_11  and  C_12
REMARK   12  A    between atoms: N_14  and  C_15
REMARK                            x       y       z     vdW  Elec       q    Type
REMARK                         _______ _______ _______ _____ _____    ______ ____
ROOT
ATOM      1  CA  UNL     1      -0.023  -3.805   3.342  0.00  0.00    +0.052 C 
ENDROOT
BRANCH   1   2
ATOM      2  N   UNL     1      -0.580  -3.572   2.003  0.00  0.00    +0.387 N 
ATOM      3  H1  UNL     1      -1.530  -3.909   1.970  0.00  0.00    -0.085 HD
ATOM      4  H2  UNL     1      -0.025  -4.063   1.318  0.00  0.00    -0.085 HD
BRANCH   2   5
ATOM      5  C   UNL     1      -0.560  -2.133   1.709  0.00  0.00    -0.100 C 
BRANCH   5   6
ATOM      6  C   UNL     1      -1.140  -1.890   0.314  0.00  0.00    -0.098 C 
BRANCH   6   7
ATOM      7  N   UNL     1      -1.121  -0.451   0.019  0.00  0.00    +0.378 N 
ATOM      8  H   UNL     1      -1.607   0.049   0.750  0.00  0.00    -0.082 HD
BRANCH   7  10
ATOM      9  C   UNL     1       0.290   1.537  -0.219  0.00  0.00    -0.017 C 
ATOM     10  C   UNL     1       0.270   0.016  -0.051  0.00  0.00    -0.082 C 
ENDBRANCH   7  10
BRANCH   7  11
ATOM     11  C   UNL     1      -1.786  -0.205  -1.267  0.00  0.00    -0.082 C 
ATOM     12  C   UNL     1      -3.270  -0.560  -1.150  0.00  0.00    -0.017 C 
ENDBRANCH   7  11
ENDBRANCH   6   7
ENDBRANCH   5   6
ENDBRANCH   2   5
ENDBRANCH   1   2
BRANCH   1  13
ATOM     13  C   UNL     1      -0.920  -3.175   4.376  0.00  0.00    +0.343 C 
ATOM     14  O   UNL     1      -2.015  -2.747   4.054  0.00  0.00    -0.248 OA
ATOM     15  OXT UNL     1      -0.550  -3.093   5.535  0.00  0.00    -0.248 OA
ENDBRANCH   1  13
BRANCH   1  16
ATOM     16  C   UNL     1       0.073  -5.311   3.599  0.00  0.00    +0.091 C 
BRANCH  16  17
ATOM     17  C   UNL     1       1.064  -5.922   2.643  0.00  0.00    +0.216 C 
ATOM     18  O   UNL     1       1.638  -5.222   1.835  0.00  0.00    -0.276 OA
ATOM     19  N   UNL     1       1.313  -7.245   2.686  0.00  0.00    -0.284 N 
ATOM     20  H   UNL     1       0.805  -7.816   3.284  0.00  0.00    +0.155 HD
BRANCH  19  21
ATOM     21  C   UNL     1       2.306  -7.798   1.867  0.00  0.00    +0.053 A 
ATOM     22  C   UNL     1       3.444  -7.063   1.562  0.00  0.00    +0.025 A 
ATOM     23  C   UNL     1       4.422  -7.610   0.754  0.00  0.00    +0.003 A 
ATOM     24  C   UNL     1       4.270  -8.888   0.249  0.00  0.00    +0.021 A 
ATOM     25  C   UNL     1       3.137  -9.624   0.551  0.00  0.00    +0.061 A 
ATOM     26  C   UNL     1       2.157  -9.084   1.364  0.00  0.00    +0.080 A 
ATOM     27 CL   UNL     1       0.739 -10.009   1.748  0.00  0.00    -0.080 Cl
ATOM     28 CL   UNL     1       2.950 -11.228  -0.086  0.00  0.00    -0.082 Cl
ENDBRANCH  19  21
ENDBRANCH  16  17
ENDBRANCH   1  16
TORSDOF 10
