REMARK  Name = ZINC44409697
REMARK  11 active torsions:
REMARK  status: ('A' for Active; 'I' for Inactive)
REMARK    1  A    between atoms: C_1  and  C_2
REMARK    2  A    between atoms: C_2  and  C_3
REMARK    3  A    between atoms: C_3  and  C_5
REMARK    4  A    between atoms: C_3  and  N_33
REMARK    5  A    between atoms: C_5  and  C_6
REMARK    6  A    between atoms: C_7  and  O_31
REMARK    7  A    between atoms: C_9  and  C_30
REMARK    8  A    between atoms: C_16  and  O_23
REMARK    9  A    between atoms: C_17  and  C_22
REMARK   10  A    between atoms: C_27  and  O_29
REMARK   11  A    between atoms: O_31  and  C_32
REMARK                            x       y       z     vdW  Elec       q    Type
REMARK                         _______ _______ _______ _____ _____    ______ ____
ROOT
ATOM      1  C   UNL     1       1.706  -2.521   2.328  0.00  0.00    +0.036 A 
ATOM      2  C   UNL     1       3.086  -2.626   2.200  0.00  0.00    +0.127 A 
ATOM      3  C   UNL     1       3.860  -3.080   3.263  0.00  0.00    +0.050 A 
ATOM      4  C   UNL     1       3.264  -3.460   4.446  0.00  0.00    -0.029 A 
ATOM      5  C   UNL     1       1.877  -3.377   4.572  0.00  0.00    +0.105 A 
ATOM      6  C   UNL     1       1.105  -2.861   3.523  0.00  0.00    +0.149 A 
ATOM      7  O   UNL     1      -0.208  -2.654   3.747  0.00  0.00    -0.451 OA
ATOM      8  C   UNL     1      -1.070  -3.663   4.015  0.00  0.00    +0.181 A 
ATOM      9  C   UNL     1      -2.262  -3.644   3.306  0.00  0.00    +0.083 A 
ATOM     10  C   UNL     1      -3.231  -4.633   3.490  0.00  0.00    +0.113 A 
ATOM     11  C   UNL     1      -2.990  -5.662   4.410  0.00  0.00    +0.138 A 
ATOM     12  C   UNL     1      -1.802  -5.675   5.114  0.00  0.00    +0.038 A 
ATOM     13  C   UNL     1      -0.837  -4.681   4.926  0.00  0.00    +0.181 A 
ATOM     14  O   UNL     1       0.282  -4.816   5.688  0.00  0.00    -0.418 OA
ATOM     15  C   UNL     1       1.186  -3.840   5.786  0.00  0.00    +0.348 C 
ATOM     16  O   UNL     1       1.428  -3.336   6.866  0.00  0.00    -0.244 OA
ATOM     17  C   UNL     1      -1.542  -6.780   6.105  0.00  0.00    +0.051 C 
ATOM     18  C   UNL     1      -4.358  -4.327   2.599  0.00  0.00    +0.346 C 
ATOM     19  O   UNL     1      -5.374  -4.989   2.509  0.00  0.00    -0.245 OA
ATOM     20  O   UNL     1      -4.101  -3.208   1.900  0.00  0.00    -0.427 OA
ATOM     21  C   UNL     1      -2.815  -2.701   2.267  0.00  0.00    +0.345 C 
ATOM     22  C   UNL     1       4.103  -3.961   5.593  0.00  0.00    +0.045 C 
ENDROOT
BRANCH  11  23
ATOM     23  O   UNL     1      -3.915  -6.635   4.608  0.00  0.00    -0.506 OA
ATOM     24  H   UNL     1      -3.810  -7.401   4.028  0.00  0.00    +0.292 HD
ENDBRANCH  11  23
BRANCH  21  25
ATOM     25  O   UNL     1      -2.944  -1.389   2.816  0.00  0.00    -0.354 OA
ATOM     26  H   UNL     1      -3.296  -0.736   2.196  0.00  0.00    +0.214 HD
ENDBRANCH  21  25
BRANCH   2  27
ATOM     27  O   UNL     1       3.682  -2.285   1.029  0.00  0.00    -0.495 OA
ATOM     28  C   UNL     1       5.104  -2.416   0.963  0.00  0.00    +0.277 C 
ENDBRANCH   2  27
BRANCH   1  29
ATOM     29  C   UNL     1       0.872  -2.034   1.171  0.00  0.00    +0.026 C 
BRANCH  29  30
ATOM     30  C   UNL     1       0.742  -0.511   1.242  0.00  0.00    -0.071 C 
BRANCH  30  31
ATOM     31  N   UNL     1      -0.010  -0.139   2.447  0.00  0.00    +0.380 N 
ATOM     32  H   UNL     1      -0.929  -0.554   2.411  0.00  0.00    -0.090 HD
ATOM     33  H   UNL     1       0.478  -0.473   3.265  0.00  0.00    -0.090 HD
ATOM     34  H   UNL     1      -0.096   0.865   2.494  0.00  0.00    -0.090 HD
ENDBRANCH  30  31
BRANCH  30  36
ATOM     35  C   UNL     1      -0.019   1.526   0.010  0.00  0.00    +0.002 C 
ATOM     36  C   UNL     1       0.002  -0.004   0.002  0.00  0.00    -0.019 C 
ENDBRANCH  30  36
ENDBRANCH  29  30
ENDBRANCH   1  29
TORSDOF 7
