REMARK  Name = ZINC21013373
REMARK  8 active torsions:
REMARK  status: ('A' for Active; 'I' for Inactive)
REMARK    1  A    between atoms: C_1  and  C_2
REMARK    2  A    between atoms: C_5  and  C_8
REMARK    3  A    between atoms: C_8  and  C_10
REMARK    4  A    between atoms: C_8  and  N_11
REMARK    5  A    between atoms: N_11  and  C_12
REMARK    6  A    between atoms: C_12  and  C_13
REMARK    7  A    between atoms: C_16  and  S_19
REMARK    8  A    between atoms: S_19  and  N_22
REMARK                            x       y       z     vdW  Elec       q    Type
REMARK                         _______ _______ _______ _____ _____    ______ ____
ROOT
ATOM      1  C   UNL     1      -1.332   2.114   0.020  0.00  0.00    -0.046 C 
ENDROOT
BRANCH   1   2
ATOM      2  C   UNL     1      -0.017   1.378   0.010  0.00  0.00    -0.064 A 
ATOM      3  C   UNL     1       1.171   2.086   0.002  0.00  0.00    +0.003 A 
ATOM      4  C   UNL     1       2.377   1.411  -0.015  0.00  0.00    +0.029 A 
ATOM      5  C   UNL     1       2.396   0.029  -0.021  0.00  0.00    +0.105 A 
ATOM      6  C   UNL     1       1.208  -0.679  -0.013  0.00  0.00    +0.029 A 
ATOM      7  C   UNL     1       0.002  -0.004   0.002  0.00  0.00    +0.003 A 
BRANCH   5   8
ATOM      8  S   UNL     1       3.934  -0.832  -0.039  0.00  0.00    +0.056 S 
ATOM      9  O   UNL     1       4.901   0.055   0.506  0.00  0.00    -0.153 OA
ATOM     10  O   UNL     1       3.685  -2.119   0.508  0.00  0.00    -0.153 OA
BRANCH   8  11
ATOM     11  N   UNL     1       4.346  -1.064  -1.626  0.00  0.00    -0.204 NA
ATOM     12  H   UNL     1       5.305  -1.600  -1.681  0.00  0.00    +0.144 HD
ATOM     13  H   UNL     1       4.442  -0.089  -2.127  0.00  0.00    +0.144 HD
ENDBRANCH   8  11
ENDBRANCH   5   8
ENDBRANCH   1   2
BRANCH   1  14
ATOM     14  N   UNL     1      -1.753   2.345   1.408  0.00  0.00    +0.386 N 
ATOM     15  H   UNL     1      -0.980   2.941   1.916  0.00  0.00    -0.085 HD
ATOM     16  H   UNL     1      -1.857   1.373   1.912  0.00  0.00    -0.085 HD
BRANCH  14  17
ATOM     17  C   UNL     1      -3.034   3.062   1.457  0.00  0.00    -0.044 C 
ATOM     18  C   UNL     1      -2.781   4.567   1.352  0.00  0.00    -0.009 C 
BRANCH  17  23
ATOM     19  C   UNL     1      -5.700   1.901   6.451  0.00  0.00    +0.044 C 
ATOM     20  C   UNL     1      -5.005   2.204   5.149  0.00  0.00    -0.050 A 
ATOM     21  C   UNL     1      -5.734   2.279   3.977  0.00  0.00    +0.003 A 
ATOM     22  C   UNL     1      -5.097   2.557   2.783  0.00  0.00    +0.002 A 
ATOM     23  C   UNL     1      -3.729   2.759   2.760  0.00  0.00    -0.062 A 
ATOM     24  C   UNL     1      -2.999   2.678   3.930  0.00  0.00    +0.002 A 
ATOM     25  C   UNL     1      -3.637   2.405   5.126  0.00  0.00    +0.003 A 
ENDBRANCH  17  23
ENDBRANCH  14  17
ENDBRANCH   1  14
TORSDOF 6
