REMARK  Name = ZINC04163045
REMARK  5 active torsions:
REMARK  status: ('A' for Active; 'I' for Inactive)
REMARK    1  A    between atoms: C_1  and  C_2
REMARK    2  A    between atoms: C_2  and  N_3
REMARK    3  A    between atoms: C_9  and  N_14
REMARK    4  A    between atoms: C_10  and  C_11
REMARK    5  A    between atoms: N_17  and  C_18
REMARK                            x       y       z     vdW  Elec       q    Type
REMARK                         _______ _______ _______ _____ _____    ______ ____
ROOT
ATOM      1  N   UNL     1      -1.378  -0.514   0.017  0.00  0.00    +0.383 N 
ATOM      2  C   UNL     1      -1.353  -1.979   0.123  0.00  0.00    -0.074 C 
ATOM      3  C   UNL     1      -2.755  -2.509   0.446  0.00  0.00    +0.018 C 
ATOM      4  C   UNL     1      -3.722  -1.919  -0.571  0.00  0.00    -0.027 A 
ATOM      5  C   UNL     1      -3.363  -0.843  -1.306  0.00  0.00    -0.021 A 
ATOM      6  S   UNL     1      -4.765  -0.514  -2.331  0.00  0.00    -0.079 S 
ATOM      7  C   UNL     1      -5.791  -1.740  -1.815  0.00  0.00    +0.086 A 
ATOM      8  C   UNL     1      -5.057  -2.413  -0.849  0.00  0.00    +0.068 A 
ATOM      9  C   UNL     1      -2.055  -0.119  -1.232  0.00  0.00    -0.035 C 
ATOM     10  H   UNL     1      -1.876  -0.129   0.805  0.00  0.00    -0.081 HD
ENDROOT
BRANCH   7  11
ATOM     11  N   UNL     1      -7.076  -2.017  -2.255  0.00  0.00    -0.263 N 
ATOM     12  C   UNL     1      -7.640  -1.253  -3.211  0.00  0.00    +0.308 C 
ATOM     13  O   UNL     1      -7.022  -0.321  -3.688  0.00  0.00    -0.252 OA
ATOM     14  N   UNL     1      -8.890  -1.522  -3.638  0.00  0.00    -0.269 N 
ATOM     15  H   UNL     1      -7.569  -2.760  -1.874  0.00  0.00    +0.157 HD
ATOM     16  H   UNL     1      -9.358  -2.304  -3.307  0.00  0.00    +0.156 HD
BRANCH  14  17
ATOM     17  C   UNL     1      -9.513  -0.672  -4.560  0.00  0.00    +0.036 A 
ATOM     18  C   UNL     1     -10.880  -0.442  -4.481  0.00  0.00    +0.025 A 
ATOM     19  C   UNL     1     -11.492   0.398  -5.391  0.00  0.00    +0.023 A 
ATOM     20  C   UNL     1     -10.745   1.009  -6.382  0.00  0.00    +0.059 A 
ATOM     21  C   UNL     1      -9.381   0.781  -6.464  0.00  0.00    +0.061 A 
ATOM     22  C   UNL     1      -8.763  -0.054  -5.552  0.00  0.00    +0.044 A 
ATOM     23 CL   UNL     1      -8.447   1.549  -7.709  0.00  0.00    -0.082 Cl
ATOM     24 CL   UNL     1     -11.518   2.062  -7.525  0.00  0.00    -0.082 Cl
ENDBRANCH  14  17
ENDBRANCH   7  11
BRANCH   8  25
ATOM     25  C   UNL     1      -5.607  -3.572  -0.140  0.00  0.00    +0.244 C 
ATOM     26  O   UNL     1      -6.226  -3.414   0.896  0.00  0.00    -0.270 OA
ATOM     27  N   UNL     1      -5.426  -4.812  -0.635  0.00  0.00    -0.325 N 
ATOM     28  H   UNL     1      -4.933  -4.938  -1.461  0.00  0.00    +0.145 HD
ATOM     29  H   UNL     1      -5.790  -5.580  -0.166  0.00  0.00    +0.145 HD
ENDBRANCH   8  25
BRANCH   1  31
ATOM     30  C   UNL     1      -0.027   1.529   0.028  0.00  0.00    -0.017 C 
ATOM     31  C   UNL     1      -0.001  -0.001   0.009  0.00  0.00    -0.082 C 
ENDBRANCH   1  31
TORSDOF 4
