REMARK  Name = ZINC02201905
REMARK  7 active torsions:
REMARK  status: ('A' for Active; 'I' for Inactive)
REMARK    1  A    between atoms: C_6  and  C_7
REMARK    2  A    between atoms: C_10  and  C_12
REMARK    3  A    between atoms: C_12  and  C_28
REMARK    4  A    between atoms: C_13  and  N_14
REMARK    5  A    between atoms: N_14  and  C_15
REMARK    6  A    between atoms: C_18  and  S_21
REMARK    7  A    between atoms: S_21  and  N_24
REMARK                            x       y       z     vdW  Elec       q    Type
REMARK                         _______ _______ _______ _____ _____    ______ ____
ROOT
ATOM      1  N   UNL     1      -2.731   6.664   0.060  0.00  0.00    -0.319 N 
ATOM      2  H   UNL     1      -2.095   7.397   0.058  0.00  0.00    +0.152 HD
ENDROOT
BRANCH   1   3
ATOM      3  C   UNL     1      -4.103   6.930   0.074  0.00  0.00    +0.031 A 
ATOM      4  C   UNL     1      -5.015   5.882   0.071  0.00  0.00    +0.025 A 
ATOM      5  C   UNL     1      -6.370   6.148   0.092  0.00  0.00    +0.030 A 
ATOM      6  C   UNL     1      -6.819   7.455   0.102  0.00  0.00    +0.109 A 
ATOM      7  C   UNL     1      -5.914   8.501   0.098  0.00  0.00    +0.030 A 
ATOM      8  C   UNL     1      -4.558   8.242   0.085  0.00  0.00    +0.025 A 
BRANCH   6   9
ATOM      9  S   UNL     1      -8.549   7.790   0.120  0.00  0.00    +0.076 S 
ATOM     10  O   UNL     1      -9.179   6.642   0.671  0.00  0.00    -0.150 OA
ATOM     11  O   UNL     1      -8.706   9.087   0.679  0.00  0.00    -0.150 OA
BRANCH   9  12
ATOM     12  N   UNL     1      -9.045   7.891  -1.457  0.00  0.00    -0.169 N 
ATOM     13  C   UNL     1      -8.986   6.804  -2.252  0.00  0.00    +0.316 C 
ATOM     14  O   UNL     1      -8.569   5.750  -1.812  0.00  0.00    -0.251 OA
ATOM     15  N   UNL     1      -9.390   6.886  -3.535  0.00  0.00    -0.312 N 
ATOM     16  H   UNL     1      -9.377   8.732  -1.808  0.00  0.00    +0.178 HD
ATOM     17  H   UNL     1      -9.722   7.727  -3.887  0.00  0.00    +0.147 HD
ATOM     18  H   UNL     1      -9.348   6.104  -4.108  0.00  0.00    +0.147 HD
ENDBRANCH   9  12
ENDBRANCH   6   9
ENDBRANCH   1   3
BRANCH   1  20
ATOM     19  C   UNL     1      -0.947   5.114   0.036  0.00  0.00    +0.098 C 
ATOM     20  C   UNL     1      -2.285   5.372   0.050  0.00  0.00    +0.093 C 
BRANCH  19  24
ATOM     21  C   UNL     1       1.029   1.963   0.003  0.00  0.00    +0.079 A 
ATOM     22  C   UNL     1      -0.013   1.076   0.008  0.00  0.00    +0.075 A 
ATOM     23  S   UNL     1      -1.405   2.198   0.019  0.00  0.00    -0.074 S 
ATOM     24  C   UNL     1      -0.466   3.719   0.025  0.00  0.00    +0.120 A 
ATOM     25  N   UNL     1       0.777   3.261   0.011  0.00  0.00    -0.238 NA
BRANCH  21  31
ATOM     26  C   UNL     1       2.691   0.104  -0.017  0.00  0.00    +0.013 A 
ATOM     27  C   UNL     1       3.994  -0.347  -0.036  0.00  0.00    +0.039 A 
ATOM     28  C   UNL     1       5.043   0.558  -0.041  0.00  0.00    +0.123 A 
ATOM     29  C   UNL     1       4.788   1.920  -0.032  0.00  0.00    +0.039 A 
ATOM     30  C   UNL     1       3.488   2.380  -0.018  0.00  0.00    +0.013 A 
ATOM     31  C   UNL     1       2.429   1.473  -0.013  0.00  0.00    +0.001 A 
ATOM     32  F   UNL     1       6.318   0.112  -0.055  0.00  0.00    -0.205 F 
ENDBRANCH  21  31
ENDBRANCH  19  24
BRANCH  19  33
ATOM     33  C   UNL     1      -0.009   6.195   0.033  0.00  0.00    +0.103 C 
ATOM     34  N   UNL     1       0.736   7.053   0.030  0.00  0.00    -0.191 NA
ENDBRANCH  19  33
ENDBRANCH   1  20
TORSDOF 7
