REMARK  Name = ZINC08635690
REMARK  10 active torsions:
REMARK  status: ('A' for Active; 'I' for Inactive)
REMARK    1  A    between atoms: C_1  and  O_2
REMARK    2  A    between atoms: O_2  and  C_3
REMARK    3  A    between atoms: C_3  and  C_4
REMARK    4  A    between atoms: C_4  and  N_5
REMARK    5  A    between atoms: N_5  and  C_6
REMARK    6  A    between atoms: C_6  and  N_8
REMARK    7  A    between atoms: N_8  and  C_9
REMARK    8  A    between atoms: C_9  and  C_10
REMARK    9  A    between atoms: C_18  and  C_20
REMARK   10  A    between atoms: C_20  and  N_66
REMARK                            x       y       z     vdW  Elec       q    Type
REMARK                         _______ _______ _______ _____ _____    ______ ____
ROOT
ATOM      1  C   UNL     1      -0.201  -0.124   0.123  0.00  0.00    -0.051 C 
ATOM      2  C   UNL     1      -1.610  -0.667  -0.134  0.00  0.00    -0.010 C 
ATOM      3  C   UNL     1      -1.609  -1.438  -1.461  0.00  0.00    -0.015 C 
ATOM      4  C   UNL     1      -0.588  -2.579  -1.362  0.00  0.00    -0.015 C 
ATOM      5  C   UNL     1       0.792  -1.984  -1.071  0.00  0.00    -0.078 C 
ATOM      6  C   UNL     1       0.226   0.051  -2.255  0.00  0.00    -0.076 C 
ATOM      7  C   UNL     1      -1.182  -0.496  -2.594  0.00  0.00    -0.041 C 
ATOM      8  N   UNL     1       0.710  -0.510  -0.976  0.00  0.00    +0.383 N 
ATOM      9  H   UNL     1       1.645  -0.136  -0.780  0.00  0.00    -0.081 HD
ENDROOT
BRANCH   1  10
ATOM     10  C   UNL     1      -0.251   1.402   0.214  0.00  0.00    +0.088 C 
BRANCH  10  11
ATOM     11  N   UNL     1       1.111   1.928   0.340  0.00  0.00    -0.328 N 
ATOM     12  H   UNL     1       1.866   1.320   0.353  0.00  0.00    +0.148 HD
BRANCH  11  13
ATOM     13  C   UNL     1       1.313   3.257   0.436  0.00  0.00    +0.130 C 
ATOM     14  S   UNL     1      -0.020   4.330   0.411  0.00  0.00    -0.019 S 
BRANCH  13  15
ATOM     15  N   UNL     1       2.566   3.741   0.551  0.00  0.00    -0.324 N 
ATOM     16  H   UNL     1       3.321   3.133   0.565  0.00  0.00    +0.148 HD
BRANCH  15  17
ATOM     17  C   UNL     1       2.786   5.186   0.656  0.00  0.00    +0.131 C 
BRANCH  17  18
ATOM     18  C   UNL     1       4.286   5.465   0.775  0.00  0.00    +0.178 C 
BRANCH  18  20
ATOM     19  C   UNL     1       6.354   5.290  -0.423  0.00  0.00    +0.194 C 
ATOM     20  O   UNL     1       4.942   5.069  -0.431  0.00  0.00    -0.381 OA
ENDBRANCH  18  20
ENDBRANCH  17  18
ENDBRANCH  15  17
ENDBRANCH  13  15
ENDBRANCH  11  13
ENDBRANCH  10  11
ENDBRANCH   1  10
BRANCH   7  21
ATOM     21  C   UNL     1      -2.169   0.668  -2.691  0.00  0.00    -0.077 C 
BRANCH  21  33
ATOM     22  C   UNL     1      -2.424   2.839  -3.734  0.00  0.00    -0.060 C 
ATOM     23  C   UNL     1      -1.985   3.697  -4.923  0.00  0.00    +0.089 C 
ATOM     24  N   UNL     1      -2.405   3.049  -6.173  0.00  0.00    -0.303 N 
ATOM     25  C   UNL     1      -1.813   1.710  -6.294  0.00  0.00    +0.089 C 
ATOM     26  C   UNL     1      -2.252   0.852  -5.105  0.00  0.00    -0.060 C 
ATOM     27  C   UNL     1      -2.088   3.833  -7.269  0.00  0.00    +0.218 A 
ATOM     28  N   UNL     1      -1.334   3.322  -8.232  0.00  0.00    -0.223 NA
ATOM     29  C   UNL     1      -1.017   4.042  -9.295  0.00  0.00    +0.116 A 
ATOM     30  C   UNL     1      -1.473   5.347  -9.389  0.00  0.00    +0.039 A 
ATOM     31  C   UNL     1      -2.255   5.851  -8.361  0.00  0.00    +0.116 A 
ATOM     32  N   UNL     1      -2.540   5.076  -7.328  0.00  0.00    -0.223 NA
ATOM     33  N   UNL     1      -1.804   1.503  -3.856  0.00  0.00    +0.382 N 
ATOM     34  H   UNL     1      -0.783   1.610  -3.883  0.00  0.00    -0.082 HD
ENDBRANCH  21  33
ENDBRANCH   7  21
TORSDOF 9
