REMARK  Name = ZINC01597067
REMARK  5 active torsions:
REMARK  status: ('A' for Active; 'I' for Inactive)
REMARK    1  A    between atoms: C_7  and  C_19
REMARK    2  A    between atoms: C_9  and  N_11
REMARK    3  A    between atoms: N_11  and  C_12
REMARK    4  A    between atoms: C_19  and  C_21
REMARK    5  A    between atoms: C_19  and  O_27
REMARK                            x       y       z     vdW  Elec       q    Type
REMARK                         _______ _______ _______ _____ _____    ______ ____
ROOT
ATOM      1  C   UNL     1      -5.541   7.419   0.537  0.00  0.00    +0.001 A 
ATOM      2  C   UNL     1      -6.050   7.618   1.819  0.00  0.00    +0.002 A 
ATOM      3  C   UNL     1      -5.258   7.484   2.917  0.00  0.00    +0.028 A 
ATOM      4  C   UNL     1      -3.904   7.141   2.763  0.00  0.00    +0.073 A 
ATOM      5  C   UNL     1      -3.388   6.940   1.459  0.00  0.00    +0.006 A 
ATOM      6  C   UNL     1      -4.234   7.086   0.349  0.00  0.00    +0.010 A 
ATOM      7  C   UNL     1      -2.030   6.595   1.304  0.00  0.00    -0.008 A 
ATOM      8  C   UNL     1      -1.265   6.463   2.423  0.00  0.00    +0.050 A 
ATOM      9  C   UNL     1      -1.833   6.681   3.687  0.00  0.00    +0.124 A 
ATOM     10  N   UNL     1      -3.103   7.003   3.825  0.00  0.00    -0.232 NA
ENDROOT
BRANCH   9  11
ATOM     11  N   UNL     1      -1.040   6.549   4.817  0.00  0.00    -0.299 N 
ATOM     12  H   UNL     1      -1.443   6.579   5.699  0.00  0.00    +0.154 HD
BRANCH  11  13
ATOM     13  C   UNL     1       0.341   6.371   4.686  0.00  0.00    +0.032 A 
ATOM     14  C   UNL     1       1.002   5.443   5.481  0.00  0.00    +0.025 A 
ATOM     15  C   UNL     1       2.365   5.266   5.346  0.00  0.00    +0.022 A 
ATOM     16  C   UNL     1       3.074   6.021   4.427  0.00  0.00    +0.041 A 
ATOM     17  C   UNL     1       2.419   6.950   3.638  0.00  0.00    +0.022 A 
ATOM     18  C   UNL     1       1.055   7.127   3.766  0.00  0.00    +0.025 A 
ATOM     19 CL   UNL     1       4.788   5.801   4.265  0.00  0.00    -0.084 Cl
ENDBRANCH  11  13
ENDBRANCH   9  11
BRANCH   7  20
ATOM     20  C   UNL     1      -1.442   6.371  -0.066  0.00  0.00    +0.131 C 
BRANCH  20  21
ATOM     21  C   UNL     1      -1.699   4.927  -0.502  0.00  0.00    -0.038 C 
ATOM     22  C   UNL     1      -0.995   4.664  -1.835  0.00  0.00    -0.013 C 
ATOM     23  C   UNL     1      -1.238   3.213  -2.257  0.00  0.00    -0.003 C 
ATOM     24  C   UNL     1      -0.730   2.277  -1.156  0.00  0.00    -0.019 C 
ATOM     25  C   UNL     1      -1.441   2.609   0.158  0.00  0.00    -0.082 C 
ATOM     26  N   UNL     1      -1.172   4.012   0.528  0.00  0.00    +0.383 N 
ATOM     27  H   UNL     1      -1.625   4.217   1.427  0.00  0.00    -0.085 HD
ATOM     28  H   UNL     1      -0.158   4.149   0.617  0.00  0.00    -0.085 HD
ENDBRANCH  20  21
BRANCH  20  29
ATOM     29  O   UNL     1      -0.034   6.613  -0.024  0.00  0.00    -0.389 OA
ATOM     30  H   UNL     1       0.446   6.040   0.590  0.00  0.00    +0.210 HD
ENDBRANCH  20  29
ENDBRANCH   7  20
TORSDOF 5
