REMARK  Name = ZINC42117732
REMARK  4 active torsions:
REMARK  status: ('A' for Active; 'I' for Inactive)
REMARK    1  A    between atoms: C_1  and  C_2
REMARK    2  A    between atoms: C_11  and  N_13
REMARK    3  A    between atoms: N_13  and  C_14
REMARK    4  A    between atoms: C_19  and  O_22
REMARK                            x       y       z     vdW  Elec       q    Type
REMARK                         _______ _______ _______ _____ _____    ______ ____
ROOT
ATOM      1  C   UNL     1       3.510  -3.287  -0.490  0.00  0.00    +0.046 C 
ATOM      2  C   UNL     1       2.960  -3.546   0.889  0.00  0.00    -0.028 A 
ATOM      3  C   UNL     1       3.646  -4.369   1.760  0.00  0.00    +0.020 A 
ATOM      4  C   UNL     1       3.149  -4.614   3.027  0.00  0.00    +0.018 A 
ATOM      5  C   UNL     1       1.957  -4.029   3.424  0.00  0.00    +0.019 A 
ATOM      6  C   UNL     1       1.273  -3.209   2.557  0.00  0.00    -0.030 A 
ATOM      7  C   UNL     1       1.764  -2.951   1.283  0.00  0.00    +0.038 A 
ATOM      8  N   UNL     1       0.903  -2.092   0.599  0.00  0.00    -0.286 N 
ATOM      9  C   UNL     1      -0.159  -1.738   1.342  0.00  0.00    +0.208 C 
ATOM     10  O   UNL     1      -1.063  -1.005   1.002  0.00  0.00    -0.277 OA
ATOM     11  C   UNL     1      -0.021  -2.437   2.678  0.00  0.00    +0.049 C 
ATOM     12 BR   UNL     1       4.093  -5.742   4.214  0.00  0.00    -0.050 Br
ATOM     13  H   UNL     1       1.055  -1.785  -0.309  0.00  0.00    +0.155 HD
ENDROOT
BRANCH  11  14
ATOM     14  N   UNL     1      -1.146  -3.352   2.912  0.00  0.00    +0.391 N 
ATOM     15  H   UNL     1      -2.013  -2.836   2.880  0.00  0.00    -0.084 HD
ATOM     16  H   UNL     1      -1.154  -4.066   2.198  0.00  0.00    -0.084 HD
BRANCH  14  17
ATOM     17  C   UNL     1      -1.000  -3.981   4.231  0.00  0.00    -0.068 C 
ATOM     18  C   UNL     1      -1.084  -2.909   5.319  0.00  0.00    -0.016 C 
ATOM     19  C   UNL     1      -0.931  -3.565   6.694  0.00  0.00    +0.001 C 
ATOM     20  C   UNL     1      -2.050  -4.588   6.898  0.00  0.00    +0.031 C 
ATOM     21  C   UNL     1      -1.965  -5.660   5.809  0.00  0.00    +0.113 C 
ATOM     22  C   UNL     1      -2.118  -5.005   4.435  0.00  0.00    +0.015 C 
BRANCH  21  23
ATOM     23  O   UNL     1      -0.698  -6.317   5.886  0.00  0.00    -0.392 OA
ATOM     24  H   UNL     1      -0.532  -6.756   6.731  0.00  0.00    +0.210 HD
ENDBRANCH  21  23
ENDBRANCH  14  17
ENDBRANCH  11  14
TORSDOF 3
