REMARK  Name = ZINC63677518
REMARK  8 active torsions:
REMARK  status: ('A' for Active; 'I' for Inactive)
REMARK    1  A    between atoms: C_1  and  C_2
REMARK    2  A    between atoms: C_4  and  C_33
REMARK    3  A    between atoms: N_11  and  C_12
REMARK    4  A    between atoms: N_11  and  C_23
REMARK    5  A    between atoms: C_12  and  C_13
REMARK    6  A    between atoms: C_13  and  C_14
REMARK    7  A    between atoms: C_23  and  N_25
REMARK    8  A    between atoms: N_25  and  C_26
REMARK                            x       y       z     vdW  Elec       q    Type
REMARK                         _______ _______ _______ _____ _____    ______ ____
ROOT
ATOM      1  C   UNL     1      -3.457   1.605   3.182  0.00  0.00    +0.066 C 
ATOM      2  C   UNL     1      -3.594   0.113   3.027  0.00  0.00    +0.044 A 
ATOM      3  C   UNL     1      -4.845  -0.465   2.881  0.00  0.00    +0.046 A 
ATOM      4  C   UNL     1      -4.927  -1.842   2.740  0.00  0.00    +0.044 A 
ATOM      5  N   UNL     1      -3.815  -2.558   2.751  0.00  0.00    -0.217 NA
ATOM      6  C   UNL     1      -2.635  -1.974   2.893  0.00  0.00    +0.231 A 
ATOM      7  N   UNL     1      -2.521  -0.661   3.024  0.00  0.00    -0.217 NA
ATOM      8  N   UNL     1      -1.488  -2.757   2.900  0.00  0.00    -0.297 N 
ATOM      9  C   UNL     1      -0.262  -2.180   3.150  0.00  0.00    +0.196 C 
ATOM     10  N   UNL     1       0.821  -2.898   3.078  0.00  0.00    -0.270 NA
ATOM     11  N   UNL     1      -0.182  -0.842   3.477  0.00  0.00    -0.253 N 
ATOM     12  C   UNL     1      -6.266  -2.514   2.578  0.00  0.00    +0.066 C 
ATOM     13  H   UNL     1      -1.551  -3.710   2.728  0.00  0.00    +0.171 HD
ATOM     14  H   UNL     1       1.685  -2.493   3.254  0.00  0.00    +0.190 HD
ENDROOT
BRANCH  11  15
ATOM     15  C   UNL     1      -0.038   0.081   2.506  0.00  0.00    +0.144 C 
ATOM     16  S   UNL     1       0.200   1.726   2.917  0.00  0.00    -0.018 S 
BRANCH  15  17
ATOM     17  N   UNL     1      -0.081  -0.290   1.211  0.00  0.00    -0.296 N 
ATOM     18  H   UNL     1      -0.849  -0.059   0.665  0.00  0.00    +0.154 HD
BRANCH  17  19
ATOM     19  C   UNL     1       0.983  -1.009   0.653  0.00  0.00    +0.033 A 
ATOM     20  C   UNL     1       2.104  -1.298   1.420  0.00  0.00    +0.026 A 
ATOM     21  C   UNL     1       3.152  -2.008   0.868  0.00  0.00    +0.040 A 
ATOM     22  C   UNL     1       3.086  -2.431  -0.449  0.00  0.00    +0.124 A 
ATOM     23  C   UNL     1       1.969  -2.143  -1.215  0.00  0.00    +0.040 A 
ATOM     24  C   UNL     1       0.916  -1.439  -0.665  0.00  0.00    +0.026 A 
ATOM     25  F   UNL     1       4.113  -3.124  -0.987  0.00  0.00    -0.205 F 
ENDBRANCH  17  19
ENDBRANCH  15  17
ENDBRANCH  11  15
BRANCH  11  26
ATOM     26  C   UNL     1      -0.255  -0.425   4.880  0.00  0.00    +0.120 C 
BRANCH  26  27
ATOM     27  C   UNL     1       1.154  -0.392   5.475  0.00  0.00    +0.052 C 
BRANCH  27  28
ATOM     28  C   UNL     1       1.079   0.037   6.918  0.00  0.00    -0.040 C 
ATOM     29  C   UNL     1       1.036  -0.767   8.004  0.00  0.00    -0.001 A 
ATOM     30  C   UNL     1       1.044  -2.227   8.162  0.00  0.00    +0.010 A 
ATOM     31  C   UNL     1       0.989  -2.752   9.406  0.00  0.00    +0.001 A 
ATOM     32  C   UNL     1       0.924  -1.941  10.547  0.00  0.00    +0.002 A 
ATOM     33  C   UNL     1       0.914  -0.592  10.483  0.00  0.00    +0.026 A 
ATOM     34  C   UNL     1       0.968   0.068   9.225  0.00  0.00    +0.043 A 
ATOM     35  N   UNL     1       0.970   1.339   8.905  0.00  0.00    -0.380 N 
ATOM     36  C   UNL     1       1.045   1.455   7.444  0.00  0.00    +0.144 C 
ATOM     37  H   UNL     1       0.932   2.080   9.530  0.00  0.00    +0.160 HD
ENDBRANCH  27  28
ENDBRANCH  26  27
ENDBRANCH  11  26
TORSDOF 6
