REMARK  Name = ZINC15205440
REMARK  5 active torsions:
REMARK  status: ('A' for Active; 'I' for Inactive)
REMARK    1  A    between atoms: C_1  and  C_2
REMARK    2  A    between atoms: C_2  and  C_23
REMARK    3  A    between atoms: C_6  and  C_21
REMARK    4  A    between atoms: C_17  and  C_19
REMARK    5  A    between atoms: C_17  and  C_20
REMARK                            x       y       z     vdW  Elec       q    Type
REMARK                         _______ _______ _______ _____ _____    ______ ____
ROOT
ATOM      1  C   UNL     1      -4.244  -1.549  -0.740  0.00  0.00    +0.074 C 
ATOM      2  C   UNL     1      -3.615  -0.208  -0.355  0.00  0.00    +0.166 C 
ATOM      3  O   UNL     1      -2.308  -0.088  -0.973  0.00  0.00    -0.341 OA
ATOM      4  C   UNL     1      -1.419  -0.545   0.047  0.00  0.00    +0.183 C 
ATOM      5  C   UNL     1       0.002  -0.004   0.002  0.00  0.00    +0.162 C 
ATOM      6  O   UNL     1       0.664  -0.492   1.175  0.00  0.00    -0.342 OA
ATOM      7  C   UNL     1       0.119  -0.168   2.448  0.00  0.00    +0.285 C 
ATOM      8  C   UNL     1      -1.407  -0.425   2.525  0.00  0.00    +0.209 C 
ATOM      9  C   UNL     1      -2.073   0.117   1.295  0.00  0.00    +0.187 C 
ATOM     10  O   UNL     1      -3.452  -0.141   1.081  0.00  0.00    -0.341 OA
ATOM     11  O   UNL     1      -1.500  -1.852   2.632  0.00  0.00    -0.338 OA
ATOM     12  C   UNL     1      -0.247  -2.311   3.163  0.00  0.00    +0.168 C 
ATOM     13  O   UNL     1       0.605  -1.173   3.382  0.00  0.00    -0.318 OA
ATOM     14  C   UNL     1       0.415  -3.266   2.168  0.00  0.00    +0.074 C 
ATOM     15  C   UNL     1      -0.488  -3.036   4.489  0.00  0.00    +0.074 C 
ATOM     16  C   UNL     1      -4.513   0.937  -0.827  0.00  0.00    +0.074 C 
ENDROOT
BRANCH   5  17
ATOM     17  C   UNL     1      -0.019   1.526   0.010  0.00  0.00    +0.108 C 
ATOM     18  I   UNL     1       2.001   2.275  -0.180  0.00  0.00    -0.083 I 
ENDBRANCH   5  17
TORSDOF 1
