REMARK  Name = ZINC63351099
REMARK  14 active torsions:
REMARK  status: ('A' for Active; 'I' for Inactive)
REMARK    1  A    between atoms: C_1  and  C_2
REMARK    2  A    between atoms: C_6  and  C_12
REMARK    3  A    between atoms: C_7  and  C_11
REMARK    4  A    between atoms: C_13  and  O_15
REMARK    5  A    between atoms: O_15  and  C_16
REMARK    6  A    between atoms: C_16  and  C_18
REMARK    7  A    between atoms: C_18  and  C_20
REMARK    8  A    between atoms: C_18  and  N_30
REMARK    9  A    between atoms: C_20  and  C_21
REMARK   10  A    between atoms: C_31  and  O_33
REMARK   11  A    between atoms: O_33  and  C_34
REMARK   12  A    between atoms: C_34  and  C_35
REMARK   13  A    between atoms: C_34  and  C_36
REMARK   14  A    between atoms: C_34  and  C_37
REMARK                            x       y       z     vdW  Elec       q    Type
REMARK                         _______ _______ _______ _____ _____    ______ ____
ROOT
ATOM      1  C   UNL     1       0.129  -2.716   4.849  0.00  0.00    +0.189 C 
ENDROOT
BRANCH   1   2
ATOM      2  N   UNL     1       0.439  -1.708   5.866  0.00  0.00    -0.268 N 
ATOM      3  C   UNL     1      -0.413  -0.688   6.086  0.00  0.00    +0.401 C 
ATOM      4  O   UNL     1      -1.439  -0.604   5.440  0.00  0.00    -0.226 OA
ATOM      5  H   UNL     1       1.259  -1.775   6.381  0.00  0.00    +0.153 HD
BRANCH   3   6
ATOM      6  O   UNL     1      -0.128   0.238   7.020  0.00  0.00    -0.445 OA
BRANCH   6   7
ATOM      7  C   UNL     1      -1.076   1.292   7.200  0.00  0.00    +0.107 C 
ATOM      8  C   UNL     1      -2.426   0.699   7.608  0.00  0.00    +0.055 C 
ATOM      9  C   UNL     1      -0.584   2.240   8.296  0.00  0.00    +0.055 C 
ATOM     10  C   UNL     1      -1.234   2.066   5.889  0.00  0.00    +0.055 C 
ENDBRANCH   6   7
ENDBRANCH   3   6
ENDBRANCH   1   2
BRANCH   1  11
ATOM     11  C   UNL     1       0.004  -2.050   3.503  0.00  0.00    +0.333 C 
ATOM     12  O   UNL     1      -0.203  -0.861   3.434  0.00  0.00    -0.248 OA
BRANCH  11  13
ATOM     13  O   UNL     1       0.124  -2.776   2.380  0.00  0.00    -0.424 OA
BRANCH  13  26
ATOM     14  C   UNL     1      -2.419  -1.013  -1.389  0.00  0.00    +0.044 C 
ATOM     15  C   UNL     1      -1.108  -1.238  -0.682  0.00  0.00    -0.043 A 
ATOM     16  C   UNL     1       0.062  -0.774  -1.250  0.00  0.00    +0.050 A 
ATOM     17  C   UNL     1       1.275  -0.976  -0.608  0.00  0.00    +0.143 A 
ATOM     18  C   UNL     1       1.302  -1.654   0.624  0.00  0.00    +0.063 A 
ATOM     19  C   UNL     1       2.587  -1.861   1.293  0.00  0.00    -0.027 A 
ATOM     20  C   UNL     1       3.708  -1.386   0.691  0.00  0.00    +0.038 A 
ATOM     21  C   UNL     1       3.609  -0.715  -0.545  0.00  0.00    +0.340 A 
ATOM     22  O   UNL     1       4.622  -0.293  -1.075  0.00  0.00    -0.245 OA
ATOM     23  O   UNL     1       2.427  -0.529  -1.153  0.00  0.00    -0.422 OA
ATOM     24  C   UNL     1       5.054  -1.575   1.343  0.00  0.00    +0.051 C 
ATOM     25  C   UNL     1       2.664  -2.582   2.615  0.00  0.00    +0.045 C 
ATOM     26  C   UNL     1       0.106  -2.121   1.192  0.00  0.00    +0.143 A 
ATOM     27  C   UNL     1      -1.091  -1.902   0.533  0.00  0.00    +0.050 A 
ENDBRANCH  13  26
ENDBRANCH  11  13
ENDBRANCH   1  11
BRANCH   1  28
ATOM     28  C   UNL     1      -1.190  -3.406   5.201  0.00  0.00    +0.067 C 
BRANCH  28  29
ATOM     29  C   UNL     1      -1.028  -4.174   6.487  0.00  0.00    -0.039 C 
ATOM     30  C   UNL     1      -1.341  -3.750   7.732  0.00  0.00    -0.001 A 
ATOM     31  C   UNL     1      -1.903  -2.494   8.243  0.00  0.00    +0.010 A 
ATOM     32  C   UNL     1      -2.109  -2.360   9.573  0.00  0.00    +0.001 A 
ATOM     33  C   UNL     1      -1.798  -3.388  10.474  0.00  0.00    +0.002 A 
ATOM     34  C   UNL     1      -1.278  -4.570  10.081  0.00  0.00    +0.026 A 
ATOM     35  C   UNL     1      -1.022  -4.820   8.704  0.00  0.00    +0.043 A 
ATOM     36  N   UNL     1      -0.531  -5.865   8.084  0.00  0.00    -0.380 N 
ATOM     37  C   UNL     1      -0.488  -5.578   6.646  0.00  0.00    +0.144 C 
ATOM     38  H   UNL     1      -0.247  -6.692   8.504  0.00  0.00    +0.160 HD
ENDBRANCH  28  29
ENDBRANCH   1  28
TORSDOF 8
