REMARK  Name = ZINC12317471
REMARK  10 active torsions:
REMARK  status: ('A' for Active; 'I' for Inactive)
REMARK    1  A    between atoms: C_1  and  C_2
REMARK    2  A    between atoms: C_2  and  C_3
REMARK    3  A    between atoms: C_6  and  C_10
REMARK    4  A    between atoms: C_7  and  C_9
REMARK    5  A    between atoms: C_10  and  N_62
REMARK    6  A    between atoms: C_23  and  C_25
REMARK    7  A    between atoms: C_29  and  O_33
REMARK    8  A    between atoms: C_30  and  O_31
REMARK    9  A    between atoms: O_31  and  C_32
REMARK   10  A    between atoms: O_33  and  C_34
REMARK                            x       y       z     vdW  Elec       q    Type
REMARK                         _______ _______ _______ _____ _____    ______ ____
ROOT
ATOM      1  C   UNL     1      -0.510   1.916  -0.337  0.00  0.00    -0.072 C 
ATOM      2  C   UNL     1      -1.032   3.146  -1.093  0.00  0.00    +0.019 C 
ATOM      3  C   UNL     1      -0.880   4.346  -0.193  0.00  0.00    -0.022 A 
ATOM      4  C   UNL     1      -0.928   5.752  -0.524  0.00  0.00    +0.003 A 
ATOM      5  C   UNL     1      -1.123   6.439  -1.726  0.00  0.00    +0.010 A 
ATOM      6  C   UNL     1      -1.107   7.811  -1.668  0.00  0.00    +0.001 A 
ATOM      7  C   UNL     1      -0.907   8.494  -0.479  0.00  0.00    +0.002 A 
ATOM      8  C   UNL     1      -0.712   7.840   0.725  0.00  0.00    +0.026 A 
ATOM      9  C   UNL     1      -0.723   6.447   0.696  0.00  0.00    +0.047 A 
ATOM     10  N   UNL     1      -0.566   5.511   1.677  0.00  0.00    -0.359 N 
ATOM     11  H   UNL     1      -0.410   5.705   2.615  0.00  0.00    +0.166 HD
ATOM     12  C   UNL     1      -0.661   4.256   1.139  0.00  0.00    +0.011 A 
ATOM     13  C   UNL     1      -0.548   2.938   1.868  0.00  0.00    +0.015 C 
ATOM     14  N   UNL     1      -1.134   1.884   1.005  0.00  0.00    +0.392 N 
ATOM     15  H   UNL     1      -2.141   2.056   0.907  0.00  0.00    -0.080 HD
ENDROOT
BRANCH  13  16
ATOM     16  C   UNL     1      -1.327   3.003   3.156  0.00  0.00    -0.010 A 
ATOM     17  C   UNL     1      -2.704   2.878   3.138  0.00  0.00    +0.006 A 
ATOM     18  C   UNL     1      -3.422   2.937   4.317  0.00  0.00    +0.004 A 
ATOM     19  C   UNL     1      -2.767   3.122   5.521  0.00  0.00    +0.049 A 
ATOM     20  C   UNL     1      -1.387   3.248   5.546  0.00  0.00    +0.162 A 
ATOM     21  C   UNL     1      -0.664   3.182   4.359  0.00  0.00    +0.163 A 
BRANCH  21  22
ATOM     22  O   UNL     1       0.691   3.300   4.378  0.00  0.00    -0.491 OA
ATOM     23  C   UNL     1       1.226   4.624   4.410  0.00  0.00    +0.277 C 
ENDBRANCH  21  22
BRANCH  20  24
ATOM     24  O   UNL     1      -0.741   3.430   6.729  0.00  0.00    -0.491 OA
ATOM     25  C   UNL     1      -1.547   3.482   7.907  0.00  0.00    +0.277 C 
ENDBRANCH  20  24
ENDBRANCH  13  16
BRANCH  14  26
ATOM     26  C   UNL     1      -0.931   0.557   1.623  0.00  0.00    -0.021 C 
BRANCH  26  30
ATOM     27  C   UNL     1       2.527   0.104   2.717  0.00  0.00    +0.107 A 
ATOM     28  N   UNL     1       1.254   0.478   2.972  0.00  0.00    -0.347 N 
ATOM     29  H   UNL     1       0.902   0.831   3.839  0.00  0.00    +0.167 HD
ATOM     30  C   UNL     1       0.537   0.282   1.823  0.00  0.00    +0.022 A 
ATOM     31  C   UNL     1       1.394  -0.208   0.907  0.00  0.00    +0.057 A 
ATOM     32  N   UNL     1       2.603  -0.302   1.479  0.00  0.00    -0.238 NA
ATOM     33  C   UNL     1       1.054  -0.584  -0.512  0.00  0.00    +0.067 C 
BRANCH  27  35
ATOM     34  C   UNL     1       4.312  -1.235   3.798  0.00  0.00    +0.012 C 
ATOM     35  C   UNL     1       3.669   0.150   3.699  0.00  0.00    +0.071 C 
ENDBRANCH  27  35
ENDBRANCH  26  30
ENDBRANCH  14  26
TORSDOF 6
