REMARK  Name = ZINC20530918
REMARK  10 active torsions:
REMARK  status: ('A' for Active; 'I' for Inactive)
REMARK    1  A    between atoms: C_1  and  C_2
REMARK    2  A    between atoms: C_2  and  O_3
REMARK    3  A    between atoms: O_3  and  C_4
REMARK    4  A    between atoms: C_4  and  C_6
REMARK    5  A    between atoms: C_7  and  C_22
REMARK    6  A    between atoms: C_12  and  C_14
REMARK    7  A    between atoms: C_17  and  O_20
REMARK    8  A    between atoms: O_20  and  C_21
REMARK    9  A    between atoms: C_22  and  N_23
REMARK   10  A    between atoms: N_26  and  C_29
REMARK                            x       y       z     vdW  Elec       q    Type
REMARK                         _______ _______ _______ _____ _____    ______ ____
ROOT
ATOM      1  C   UNL     1      -3.155   1.060  -1.508  0.00  0.00    +0.079 C 
ATOM      2  C   UNL     1      -4.479   1.323  -1.500  0.00  0.00    +0.038 C 
ATOM      3  N   UNL     1      -5.109   1.737  -0.360  0.00  0.00    -0.271 N 
ATOM      4  C   UNL     1      -4.484   1.913   0.811  0.00  0.00    +0.304 C 
ATOM      5  O   UNL     1      -5.129   2.285   1.771  0.00  0.00    -0.252 OA
ATOM      6  N   UNL     1      -3.163   1.691   0.959  0.00  0.00    -0.288 N 
ATOM      7  C   UNL     1      -2.392   1.241  -0.211  0.00  0.00    +0.144 C 
ATOM      8  H   UNL     1      -6.188   1.946  -0.373  0.00  0.00    +0.156 HD
ATOM      9  H   UNL     1      -2.659   1.839   1.926  0.00  0.00    +0.151 HD
ENDROOT
BRANCH   7  10
ATOM     10  C   UNL     1      -1.291   2.241  -0.456  0.00  0.00    -0.022 A 
ATOM     11  C   UNL     1       0.002   1.804  -0.676  0.00  0.00    +0.009 A 
ATOM     12  C   UNL     1       1.012   2.718  -0.906  0.00  0.00    +0.046 A 
ATOM     13  C   UNL     1       0.728   4.076  -0.910  0.00  0.00    +0.120 A 
ATOM     14  C   UNL     1      -0.569   4.512  -0.683  0.00  0.00    +0.046 A 
ATOM     15  C   UNL     1      -1.575   3.594  -0.454  0.00  0.00    +0.009 A 
BRANCH  13  16
ATOM     16  O   UNL     1       1.719   4.978  -1.137  0.00  0.00    -0.495 OA
ATOM     17  C   UNL     1       1.355   6.359  -1.127  0.00  0.00    +0.277 C 
ENDBRANCH  13  16
ENDBRANCH   7  10
BRANCH   1  18
ATOM     18  C   UNL     1      -2.502   0.631  -2.687  0.00  0.00    +0.339 C 
ATOM     19  O   UNL     1      -3.103   0.619  -3.745  0.00  0.00    -0.245 OA
BRANCH  18  20
ATOM     20  O   UNL     1      -1.213   0.236  -2.639  0.00  0.00    -0.462 OA
BRANCH  20  22
ATOM     21  C   UNL     1       0.836  -0.593  -3.616  0.00  0.00    +0.048 C 
ATOM     22  C   UNL     1      -0.617  -0.185  -3.868  0.00  0.00    +0.229 C 
ENDBRANCH  20  22
ENDBRANCH  18  20
ENDBRANCH   1  18
BRANCH   2  23
ATOM     23  C   UNL     1      -5.277   1.156  -2.768  0.00  0.00    +0.135 C 
BRANCH  23  24
ATOM     24  N   UNL     1      -5.131   2.358  -3.599  0.00  0.00    -0.300 NA
ATOM     25  C   UNL     1      -5.750   3.524  -2.953  0.00  0.00    +0.066 C 
ATOM     26  C   UNL     1      -5.508   4.768  -3.811  0.00  0.00    -0.063 C 
ATOM     27  N   UNL     1      -6.071   4.552  -5.151  0.00  0.00    +0.383 N 
ATOM     28  C   UNL     1      -5.453   3.387  -5.798  0.00  0.00    -0.063 C 
ATOM     29  C   UNL     1      -5.694   2.143  -4.939  0.00  0.00    +0.066 C 
ATOM     30  H   UNL     1      -7.146   4.348  -5.039  0.00  0.00    -0.081 HD
BRANCH  27  31
ATOM     31  C   UNL     1      -5.926   5.754  -5.982  0.00  0.00    -0.068 C 
ATOM     32  C   UNL     1      -4.440   6.046  -6.202  0.00  0.00    -0.015 C 
ATOM     33  C   UNL     1      -4.289   7.298  -7.068  0.00  0.00    -0.002 C 
ATOM     34  C   UNL     1      -4.943   8.488  -6.364  0.00  0.00    -0.000 C 
ATOM     35  C   UNL     1      -6.429   8.196  -6.144  0.00  0.00    -0.002 C 
ATOM     36  C   UNL     1      -6.580   6.944  -5.278  0.00  0.00    -0.015 C 
ENDBRANCH  27  31
ENDBRANCH  23  24
ENDBRANCH   2  23
TORSDOF 8
