REMARK  Name = ZINC66893650
REMARK  4 active torsions:
REMARK  status: ('A' for Active; 'I' for Inactive)
REMARK    1  A    between atoms: C_1  and  N_2
REMARK    2  A    between atoms: C_6  and  C_8
REMARK    3  A    between atoms: C_8  and  N_9
REMARK    4  A    between atoms: C_14  and  C_16
REMARK                            x       y       z     vdW  Elec       q    Type
REMARK                         _______ _______ _______ _____ _____    ______ ____
ROOT
ATOM      1  N   UNL     1      -3.373  -4.809   0.174  0.00  0.00    +0.393 N 
ATOM      2  C   UNL     1      -3.985  -4.550   1.482  0.00  0.00    -0.077 C 
ATOM      3  C   UNL     1      -5.505  -4.690   1.375  0.00  0.00    -0.019 C 
ATOM      4  C   UNL     1      -5.850  -6.111   0.920  0.00  0.00    -0.003 C 
ATOM      5  C   UNL     1      -5.146  -6.396  -0.409  0.00  0.00    -0.006 C 
ATOM      6  C   UNL     1      -3.639  -6.193  -0.236  0.00  0.00    +0.020 C 
ATOM      7  H   UNL     1      -3.763  -4.176  -0.509  0.00  0.00    -0.080 HD
ENDROOT
BRANCH   6   8
ATOM      8  C   UNL     1      -2.942  -6.472  -1.542  0.00  0.00    +0.202 C 
ATOM      9  O   UNL     1      -2.741  -5.571  -2.328  0.00  0.00    -0.277 OA
ATOM     10  N   UNL     1      -2.540  -7.725  -1.837  0.00  0.00    -0.298 N 
ATOM     11  C   UNL     1      -2.875  -8.855  -0.956  0.00  0.00    +0.136 C 
ATOM     12  C   UNL     1      -3.487  -9.970  -1.811  0.00  0.00    +0.179 C 
ATOM     13  O   UNL     1      -2.615 -10.256  -2.906  0.00  0.00    -0.377 OA
ATOM     14  C   UNL     1      -2.422  -9.159  -3.803  0.00  0.00    +0.179 C 
ATOM     15  C   UNL     1      -1.760  -8.004  -3.053  0.00  0.00    +0.136 C 
ENDBRANCH   6   8
BRANCH   1  16
ATOM     16  C   UNL     1      -1.922  -4.596   0.263  0.00  0.00    +0.020 C 
BRANCH  16  22
ATOM     17  C   UNL     1       1.423   0.450   1.221  0.00  0.00    +0.129 C 
ATOM     18  N   UNL     1       1.151  -0.969   0.977  0.00  0.00    -0.302 N 
ATOM     19  C   UNL     1      -0.120  -1.401   0.858  0.00  0.00    +0.306 C 
ATOM     20  O   UNL     1      -1.041  -0.613   0.953  0.00  0.00    -0.252 OA
ATOM     21  N   UNL     1      -0.371  -2.706   0.633  0.00  0.00    -0.242 N 
ATOM     22  C   UNL     1      -1.642  -3.137   0.514  0.00  0.00    +0.204 C 
ATOM     23  O   UNL     1      -2.560  -2.351   0.609  0.00  0.00    -0.277 OA
ATOM     24  H   UNL     1       1.886  -1.598   0.901  0.00  0.00    +0.150 HD
ATOM     25  H   UNL     1       0.364  -3.334   0.557  0.00  0.00    +0.159 HD
ENDBRANCH  16  22
ENDBRANCH   1  16
TORSDOF 3
