REMARK  Name = ZINC65356885
REMARK  5 active torsions:
REMARK  status: ('A' for Active; 'I' for Inactive)
REMARK    1  A    between atoms: C_1  and  N_2
REMARK    2  A    between atoms: C_18  and  C_23
REMARK    3  A    between atoms: C_26  and  O_30
REMARK    4  A    between atoms: C_27  and  O_29
REMARK    5  A    between atoms: O_30  and  C_31
REMARK                            x       y       z     vdW  Elec       q    Type
REMARK                         _______ _______ _______ _____ _____    ______ ____
ROOT
ATOM      1  C   UNL     1      -0.150   1.409  -0.031  0.00  0.00    +0.140 C 
ATOM      2  N   UNL     1      -0.090  -0.055  -0.038  0.00  0.00    -0.255 N 
ATOM      3  C   UNL     1      -1.174  -0.858  -0.059  0.00  0.00    +0.242 C 
ATOM      4  O   UNL     1      -2.336  -0.518  -0.108  0.00  0.00    -0.273 OA
ATOM      5  C   UNL     1      -0.636  -2.272  -0.010  0.00  0.00    +0.166 C 
ATOM      6  C   UNL     1      -1.104  -3.055  -1.249  0.00  0.00    +0.065 C 
ATOM      7  C   UNL     1      -0.108  -4.173  -1.446  0.00  0.00    -0.034 C 
ATOM      8  C   UNL     1      -0.289  -5.486  -1.551  0.00  0.00    -0.001 A 
ATOM      9  C   UNL     1      -1.512  -6.302  -1.611  0.00  0.00    +0.010 A 
ATOM     10  C   UNL     1      -1.331  -7.646  -1.701  0.00  0.00    +0.001 A 
ATOM     11  C   UNL     1      -0.070  -8.252  -1.737  0.00  0.00    +0.002 A 
ATOM     12  C   UNL     1       1.106  -7.578  -1.695  0.00  0.00    +0.026 A 
ATOM     13  C   UNL     1       1.045  -6.157  -1.607  0.00  0.00    +0.043 A 
ATOM     14  N   UNL     1       1.999  -5.274  -1.570  0.00  0.00    -0.375 N 
ATOM     15  C   UNL     1       1.395  -3.941  -1.542  0.00  0.00    +0.131 C 
ATOM     16  C   UNL     1       1.807  -3.161  -0.285  0.00  0.00    +0.133 C 
ATOM     17  N   UNL     1       0.827  -2.080  -0.089  0.00  0.00    -0.291 N 
ATOM     18  C   UNL     1       1.049  -0.761  -0.029  0.00  0.00    +0.143 C 
ATOM     19  S   UNL     1       2.608  -0.059   0.053  0.00  0.00    -0.018 S 
ATOM     20  H   UNL     1       2.950  -5.466  -1.563  0.00  0.00    +0.160 HD
ENDROOT
BRANCH  16  21
ATOM     21  C   UNL     1       1.790  -4.072   0.915  0.00  0.00    -0.021 A 
ATOM     22  C   UNL     1       2.973  -4.390   1.556  0.00  0.00    +0.009 A 
ATOM     23  C   UNL     1       2.962  -5.226   2.658  0.00  0.00    +0.050 A 
ATOM     24  C   UNL     1       1.764  -5.746   3.121  0.00  0.00    +0.161 A 
ATOM     25  C   UNL     1       0.574  -5.425   2.476  0.00  0.00    +0.159 A 
ATOM     26  C   UNL     1       0.591  -4.583   1.375  0.00  0.00    +0.054 A 
BRANCH  25  27
ATOM     27  O   UNL     1      -0.604  -5.933   2.927  0.00  0.00    -0.503 OA
ATOM     28  H   UNL     1      -1.044  -5.380   3.588  0.00  0.00    +0.292 HD
ENDBRANCH  25  27
BRANCH  24  29
ATOM     29  O   UNL     1       1.752  -6.568   4.204  0.00  0.00    -0.491 OA
ATOM     30  C   UNL     1       3.012  -6.854   4.816  0.00  0.00    +0.277 C 
ENDBRANCH  24  29
ENDBRANCH  16  21
TORSDOF 3
