REMARK  Name = ZINC43526823
REMARK  13 active torsions:
REMARK  status: ('A' for Active; 'I' for Inactive)
REMARK    1  A    between atoms: C_1  and  N_2
REMARK    2  A    between atoms: N_2  and  C_3
REMARK    3  A    between atoms: N_2  and  C_4
REMARK    4  A    between atoms: C_7  and  N_10
REMARK    5  A    between atoms: N_10  and  C_11
REMARK    6  A    between atoms: C_11  and  N_13
REMARK    7  A    between atoms: N_13  and  C_14
REMARK    8  A    between atoms: C_14  and  C_15
REMARK    9  A    between atoms: C_24  and  C_26
REMARK   10  A    between atoms: C_26  and  N_27
REMARK   11  A    between atoms: N_27  and  C_28
REMARK   12  A    between atoms: N_27  and  C_29
REMARK   13  A    between atoms: C_29  and  C_30
REMARK                            x       y       z     vdW  Elec       q    Type
REMARK                         _______ _______ _______ _____ _____    ______ ____
ROOT
ATOM      1  C   UNL     1      -0.456  -3.019  -9.582  0.00  0.00    -0.051 C 
ATOM      2  C   UNL     1      -0.468  -2.252 -10.907  0.00  0.00    -0.010 C 
ATOM      3  C   UNL     1       0.732  -2.702 -11.750  0.00  0.00    -0.015 C 
ATOM      4  C   UNL     1       2.015  -2.401 -10.965  0.00  0.00    -0.015 C 
ATOM      5  C   UNL     1       1.962  -3.144  -9.628  0.00  0.00    -0.078 C 
ATOM      6  N   UNL     1       0.691  -3.929  -9.543  0.00  0.00    +0.383 N 
ATOM      7  C   UNL     1       0.602  -4.917 -10.621  0.00  0.00    -0.076 C 
ATOM      8  C   UNL     1       0.623  -4.216 -11.978  0.00  0.00    -0.041 C 
ATOM      9  H   UNL     1       0.675  -4.425  -8.664  0.00  0.00    -0.081 HD
ENDROOT
BRANCH   1  10
ATOM     10  C   UNL     1      -0.355  -2.026  -8.422  0.00  0.00    +0.088 C 
BRANCH  10  11
ATOM     11  N   UNL     1      -0.228  -2.760  -7.161  0.00  0.00    -0.328 N 
ATOM     12  H   UNL     1      -0.219  -3.730  -7.163  0.00  0.00    +0.148 HD
BRANCH  11  13
ATOM     13  C   UNL     1      -0.124  -2.088  -5.997  0.00  0.00    +0.134 C 
ATOM     14  S   UNL     1      -0.141  -0.376  -5.994  0.00  0.00    -0.019 S 
BRANCH  13  15
ATOM     15  N   UNL     1      -0.008  -2.763  -4.837  0.00  0.00    -0.297 N 
ATOM     16  H   UNL     1       0.082  -3.729  -4.845  0.00  0.00    +0.154 HD
BRANCH  15  20
ATOM     17  C   UNL     1      -0.034  -0.700  -1.212  0.00  0.00    +0.029 A 
ATOM     18  C   UNL     1      -0.921  -0.345  -2.220  0.00  0.00    +0.025 A 
ATOM     19  C   UNL     1      -0.912  -1.028  -3.420  0.00  0.00    +0.025 A 
ATOM     20  C   UNL     1      -0.016  -2.070  -3.619  0.00  0.00    +0.033 A 
ATOM     21  C   UNL     1       0.870  -2.426  -2.611  0.00  0.00    +0.025 A 
ATOM     22  C   UNL     1       0.866  -1.739  -1.413  0.00  0.00    +0.025 A 
BRANCH  17  24
ATOM     23  C   UNL     1       0.898  -0.379   1.065  0.00  0.00    +0.129 C 
ATOM     24  N   UNL     1      -0.042  -0.008   0.004  0.00  0.00    -0.336 N 
ATOM     25  C   UNL     1      -0.991   1.088   0.216  0.00  0.00    +0.129 C 
ENDBRANCH  17  24
ENDBRANCH  15  20
ENDBRANCH  13  15
ENDBRANCH  11  13
ENDBRANCH  10  11
ENDBRANCH   1  10
BRANCH   8  26
ATOM     26  C   UNL     1       1.828  -4.701 -12.786  0.00  0.00    -0.077 C 
BRANCH  26  27
ATOM     27  N   UNL     1       1.663  -6.125 -13.106  0.00  0.00    +0.381 N 
ATOM     28  C   UNL     1       0.505  -6.296 -13.993  0.00  0.00    -0.096 C 
ATOM     29  H   UNL     1       1.514  -6.645 -12.254  0.00  0.00    -0.082 HD
BRANCH  27  30
ATOM     30  C   UNL     1       2.872  -6.620 -13.777  0.00  0.00    -0.043 C 
BRANCH  30  31
ATOM     31  C   UNL     1       2.753  -8.107 -13.994  0.00  0.00    -0.064 A 
ATOM     32  C   UNL     1       3.204  -8.985 -13.026  0.00  0.00    +0.002 A 
ATOM     33  C   UNL     1       3.095 -10.348 -13.226  0.00  0.00    +0.000 A 
ATOM     34  C   UNL     1       2.534 -10.834 -14.393  0.00  0.00    +0.000 A 
ATOM     35  C   UNL     1       2.083  -9.955 -15.360  0.00  0.00    +0.000 A 
ATOM     36  C   UNL     1       2.188  -8.592 -15.159  0.00  0.00    +0.002 A 
ENDBRANCH  30  31
ENDBRANCH  27  30
ENDBRANCH  26  27
ENDBRANCH   8  26
TORSDOF 10
