REMARK  Name = ZINC21263972
REMARK  10 active torsions:
REMARK  status: ('A' for Active; 'I' for Inactive)
REMARK    1  A    between atoms: C_1  and  C_2
REMARK    2  A    between atoms: C_2  and  C_25
REMARK    3  A    between atoms: C_4  and  N_10
REMARK    4  A    between atoms: C_6  and  C_8
REMARK    5  A    between atoms: C_6  and  C_9
REMARK    6  A    between atoms: N_10  and  C_11
REMARK    7  A    between atoms: C_11  and  N_13
REMARK    8  A    between atoms: N_13  and  C_14
REMARK    9  A    between atoms: N_13  and  C_20
REMARK   10  A    between atoms: C_14  and  C_15
REMARK                            x       y       z     vdW  Elec       q    Type
REMARK                         _______ _______ _______ _____ _____    ______ ____
ROOT
ATOM      1  N   UNL     1       0.764   5.096  -1.346  0.00  0.00    -0.324 N 
ATOM      2  H   UNL     1       1.008   5.666  -0.438  0.00  0.00    +0.148 HD
ENDROOT
BRANCH   1   6
ATOM      3  C   UNL     1      -0.085   0.913  -2.440  0.00  0.00    -0.010 C 
ATOM      4  C   UNL     1      -0.116   1.420  -0.994  0.00  0.00    -0.072 C 
ATOM      5  C   UNL     1      -0.316   2.934  -0.988  0.00  0.00    +0.009 C 
ATOM      6  C   UNL     1       0.978   3.644  -1.382  0.00  0.00    +0.069 C 
ATOM      7  C   UNL     1       2.064   3.271  -0.373  0.00  0.00    +0.009 C 
ATOM      8  C   UNL     1       2.294   1.761  -0.375  0.00  0.00    -0.072 C 
ATOM      9  N   UNL     1       1.065   1.003  -0.268  0.00  0.00    +0.386 N 
ATOM     10  C   UNL     1       3.178   1.424   0.847  0.00  0.00    -0.010 C 
ATOM     11  C   UNL     1       3.083   1.364  -1.628  0.00  0.00    -0.010 C 
ATOM     12  C   UNL     1      -1.349   0.785  -0.313  0.00  0.00    -0.010 C 
ATOM     13  H   UNL     1       0.851   1.000   0.811  0.00  0.00    -0.084 HD
ATOM     14  H   UNL     1       1.353  -0.010  -0.587  0.00  0.00    -0.084 HD
ENDBRANCH   1   6
BRANCH   1  15
ATOM     15  C   UNL     1       0.267   5.731  -2.427  0.00  0.00    +0.134 C 
ATOM     16  S   UNL     1       0.012   4.869  -3.884  0.00  0.00    -0.019 S 
BRANCH  15  17
ATOM     17  N   UNL     1      -0.028   7.044  -2.360  0.00  0.00    -0.305 N 
BRANCH  17  18
ATOM     18  C   UNL     1       0.289   7.806  -1.150  0.00  0.00    +0.075 C 
ATOM     19  C   UNL     1       1.769   7.599  -0.768  0.00  0.00    +0.022 C 
ATOM     20  C   UNL     1       1.760   7.557   0.780  0.00  0.00    +0.002 C 
ATOM     21  C   UNL     1       0.456   6.782   1.093  0.00  0.00    +0.002 C 
ATOM     22  C   UNL     1      -0.546   7.286   0.034  0.00  0.00    +0.022 C 
ENDBRANCH  17  18
BRANCH  17  23
ATOM     23  C   UNL     1      -0.666   7.710  -3.499  0.00  0.00    +0.149 C 
BRANCH  23  24
ATOM     24  C   UNL     1      -2.164   7.624  -3.356  0.00  0.00    +0.007 A 
ATOM     25  C   UNL     1      -3.014   8.483  -2.743  0.00  0.00    +0.013 A 
ATOM     26  C   UNL     1      -4.366   8.198  -2.737  0.00  0.00    +0.008 A 
ATOM     27  C   UNL     1      -4.803   7.067  -3.344  0.00  0.00    +0.045 A 
ATOM     28  S   UNL     1      -3.280   6.367  -3.958  0.00  0.00    -0.100 S 
ENDBRANCH  23  24
ENDBRANCH  17  23
ENDBRANCH  15  17
ENDBRANCH   1  15
TORSDOF 6
