REMARK  Name = ZINC58565918
REMARK  4 active torsions:
REMARK  status: ('A' for Active; 'I' for Inactive)
REMARK    1  A    between atoms: C_4  and  N_7
REMARK    2  A    between atoms: C_8  and  C_11
REMARK    3  A    between atoms: N_9  and  N_10
REMARK    4  A    between atoms: C_11  and  C_12
REMARK                            x       y       z     vdW  Elec       q    Type
REMARK                         _______ _______ _______ _____ _____    ______ ____
ROOT
ATOM      1  N   UNL     1       3.603  -0.850  -1.124  0.00  0.00    -0.303 N 
ATOM      2  C   UNL     1       3.632  -1.998  -0.344  0.00  0.00    +0.093 C 
ATOM      3  N   UNL     1       2.554  -2.413   0.235  0.00  0.00    -0.304 N 
ATOM      4  H   UNL     1       2.803  -0.301  -1.150  0.00  0.00    +0.153 HD
ATOM      5  H   UNL     1       2.590  -3.166   0.846  0.00  0.00    +0.185 HD
ENDROOT
BRANCH   1   9
ATOM      6  C   UNL     1       6.948   0.240  -3.351  0.00  0.00    +0.000 A 
ATOM      7  C   UNL     1       5.695   0.253  -3.937  0.00  0.00    +0.002 A 
ATOM      8  C   UNL     1       4.584  -0.108  -3.201  0.00  0.00    +0.023 A 
ATOM      9  C   UNL     1       4.725  -0.484  -1.871  0.00  0.00    +0.032 A 
ATOM     10  C   UNL     1       5.985  -0.496  -1.286  0.00  0.00    +0.023 A 
ATOM     11  C   UNL     1       7.093  -0.134  -2.028  0.00  0.00    +0.002 A 
ENDBRANCH   1   9
BRANCH   3  12
ATOM     12  N   UNL     1       1.333  -1.775  -0.018  0.00  0.00    -0.304 N 
ATOM     13  H   UNL     1       0.538  -2.035   0.475  0.00  0.00    +0.162 HD
ATOM     14  H   UNL     1       1.281  -1.074  -0.686  0.00  0.00    +0.162 HD
ENDBRANCH   3  12
BRANCH   2  15
ATOM     15  C   UNL     1       4.921  -2.760  -0.173  0.00  0.00    +0.106 C 
BRANCH  15  16
ATOM     16  C   UNL     1       5.154  -3.031   1.291  0.00  0.00    -0.040 A 
ATOM     17  C   UNL     1       5.752  -2.070   2.085  0.00  0.00    +0.005 A 
ATOM     18  C   UNL     1       5.965  -2.318   3.428  0.00  0.00    +0.015 A 
ATOM     19  C   UNL     1       5.580  -3.527   3.978  0.00  0.00    +0.018 A 
ATOM     20  C   UNL     1       4.982  -4.488   3.183  0.00  0.00    +0.015 A 
ATOM     21  C   UNL     1       4.764  -4.238   1.841  0.00  0.00    +0.005 A 
ATOM     22 BR   UNL     1       5.872  -3.867   5.815  0.00  0.00    -0.050 Br
ENDBRANCH  15  16
ENDBRANCH   2  15
TORSDOF 4
