REMARK  Name = ZINC12872071
REMARK  13 active torsions:
REMARK  status: ('A' for Active; 'I' for Inactive)
REMARK    1  A    between atoms: C_1  and  C_2
REMARK    2  A    between atoms: C_10  and  C_23
REMARK    3  A    between atoms: C_15  and  C_16
REMARK    4  A    between atoms: C_15  and  O_19
REMARK    5  A    between atoms: C_16  and  C_18
REMARK    6  A    between atoms: O_19  and  C_20
REMARK    7  A    between atoms: C_20  and  C_22
REMARK    8  A    between atoms: C_24  and  C_41
REMARK    9  A    between atoms: C_27  and  O_31
REMARK   10  A    between atoms: O_31  and  C_32
REMARK   11  A    between atoms: C_32  and  C_34
REMARK   12  A    between atoms: C_34  and  C_35
REMARK   13  A    between atoms: C_35  and  N_85
REMARK                            x       y       z     vdW  Elec       q    Type
REMARK                         _______ _______ _______ _____ _____    ______ ____
ROOT
ATOM      1  C   UNL     1       4.409  -5.618   1.596  0.00  0.00    +0.044 C 
ATOM      2  C   UNL     1       4.115  -4.141   1.657  0.00  0.00    -0.051 C 
ATOM      3  C   UNL     1       3.588  -3.512   0.621  0.00  0.00    -0.019 C 
ATOM      4  C   UNL     1       3.246  -2.061   0.568  0.00  0.00    +0.020 C 
ATOM      5  C   UNL     1       3.436  -1.329   1.893  0.00  0.00    +0.006 C 
ATOM      6  C   UNL     1       2.161  -1.399   2.734  0.00  0.00    +0.005 C 
ATOM      7  C   UNL     1       1.075  -0.517   2.096  0.00  0.00    +0.011 C 
ATOM      8  C   UNL     1       1.334  -0.473   0.600  0.00  0.00    +0.018 C 
ATOM      9  C   UNL     1       1.794  -1.880   0.142  0.00  0.00    +0.006 C 
ATOM     10  C   UNL     1       1.610  -1.800  -1.383  0.00  0.00    +0.009 C 
ATOM     11  C   UNL     1       0.277  -1.027  -1.542  0.00  0.00    +0.057 C 
ATOM     12  C   UNL     1       0.088  -0.204  -0.247  0.00  0.00    +0.176 C 
ATOM     13  C   UNL     1       2.416   0.560   0.278  0.00  0.00    +0.016 C 
ATOM     14  C   UNL     1       4.619  -1.883   2.676  0.00  0.00    -0.003 C 
ATOM     15  C   UNL     1       4.410  -3.356   2.879  0.00  0.00    -0.039 C 
ATOM     16  C   UNL     1       4.472  -3.961   4.047  0.00  0.00    +0.021 C 
ATOM     17  C   UNL     1       4.733  -3.193   5.317  0.00  0.00    +0.200 C 
ATOM     18  C   UNL     1       4.156  -1.782   5.146  0.00  0.00    +0.050 C 
ATOM     19  C   UNL     1       4.849  -1.115   3.960  0.00  0.00    +0.015 C 
ATOM     20  C   UNL     1       5.858  -1.705   1.796  0.00  0.00    +0.016 C 
ENDROOT
BRANCH  12  21
ATOM     21  C   UNL     1      -0.013   1.264  -0.573  0.00  0.00    +0.174 C 
ATOM     22  O   UNL     1       0.466   1.689  -1.597  0.00  0.00    -0.293 OA
ATOM     23  C   UNL     1      -0.716   2.199   0.376  0.00  0.00    +0.090 C 
ENDBRANCH  12  21
BRANCH  12  24
ATOM     24  O   UNL     1      -1.103  -0.644   0.457  0.00  0.00    -0.450 OA
BRANCH  24  25
ATOM     25  C   UNL     1      -2.273  -0.523  -0.190  0.00  0.00    +0.305 C 
ATOM     26  O   UNL     1      -2.294  -0.125  -1.331  0.00  0.00    -0.251 OA
ATOM     27  C   UNL     1      -3.560  -0.882   0.507  0.00  0.00    +0.136 C 
ENDBRANCH  24  25
ENDBRANCH  12  24
BRANCH  17  28
ATOM     28  O   UNL     1       4.085  -3.857   6.434  0.00  0.00    -0.457 OA
BRANCH  28  29
ATOM     29  C   UNL     1       4.801  -4.784   7.091  0.00  0.00    +0.306 C 
ATOM     30  O   UNL     1       5.932  -5.031   6.744  0.00  0.00    -0.251 OA
BRANCH  29  31
ATOM     31  C   UNL     1       4.195  -5.515   8.261  0.00  0.00    +0.102 C 
BRANCH  31  32
ATOM     32  C   UNL     1       5.213  -6.508   8.825  0.00  0.00    -0.068 C 
BRANCH  32  38
ATOM     33  C   UNL     1       4.364  -6.303  11.083  0.00  0.00    -0.079 C 
ATOM     34  C   UNL     1       3.618  -7.047  12.193  0.00  0.00    -0.019 C 
ATOM     35  C   UNL     1       4.465  -8.231  12.666  0.00  0.00    -0.004 C 
ATOM     36  C   UNL     1       4.760  -9.146  11.473  0.00  0.00    -0.019 C 
ATOM     37  C   UNL     1       5.473  -8.341  10.384  0.00  0.00    -0.079 C 
ATOM     38  N   UNL     1       4.596  -7.231   9.955  0.00  0.00    +0.380 N 
ATOM     39  H   UNL     1       3.694  -7.618   9.652  0.00  0.00    -0.082 HD
ENDBRANCH  32  38
ENDBRANCH  31  32
ENDBRANCH  29  31
ENDBRANCH  28  29
ENDBRANCH  17  28
TORSDOF 8
