REMARK  Name = ZINC03376358
REMARK  11 active torsions:
REMARK  status: ('A' for Active; 'I' for Inactive)
REMARK    1  A    between atoms: C_1  and  C_2
REMARK    2  A    between atoms: C_2  and  C_4
REMARK    3  A    between atoms: C_2  and  N_31
REMARK    4  A    between atoms: C_7  and  S_16
REMARK    5  A    between atoms: N_8  and  C_9
REMARK    6  A    between atoms: S_16  and  C_17
REMARK    7  A    between atoms: C_17  and  C_19
REMARK    8  A    between atoms: C_17  and  C_20
REMARK    9  A    between atoms: N_22  and  C_23
REMARK   10  A    between atoms: N_31  and  C_32
REMARK   11  A    between atoms: N_31  and  C_33
REMARK                            x       y       z     vdW  Elec       q    Type
REMARK                         _______ _______ _______ _____ _____    ______ ____
ROOT
ATOM      1  C   UNL     1       6.688   9.482  -1.500  0.00  0.00    +0.125 A 
ATOM      2  N   UNL     1       7.069   8.334  -1.015  0.00  0.00    -0.135 NA
ATOM      3  N   UNL     1       6.046   7.601  -0.755  0.00  0.00    -0.122 NA
ATOM      4  C   UNL     1       4.945   8.242  -1.072  0.00  0.00    +0.197 A 
ATOM      5  N   UNL     1       5.319   9.466  -1.555  0.00  0.00    -0.275 N 
ENDROOT
BRANCH   5   6
ATOM      6  C   UNL     1       4.477  10.491  -2.010  0.00  0.00    +0.050 A 
ATOM      7  C   UNL     1       4.514  10.881  -3.342  0.00  0.00    +0.028 A 
ATOM      8  C   UNL     1       3.680  11.887  -3.790  0.00  0.00    +0.022 A 
ATOM      9  C   UNL     1       2.816  12.513  -2.909  0.00  0.00    +0.041 A 
ATOM     10  C   UNL     1       2.781  12.130  -1.580  0.00  0.00    +0.022 A 
ATOM     11  C   UNL     1       3.609  11.121  -1.129  0.00  0.00    +0.028 A 
ATOM     12 CL   UNL     1       1.774  13.782  -3.473  0.00  0.00    -0.084 Cl
ENDBRANCH   5   6
BRANCH   1  14
ATOM     13  C   UNL     1       8.131  11.325  -0.683  0.00  0.00    -0.005 C 
ATOM     14  C   UNL     1       7.585  10.616  -1.924  0.00  0.00    -0.003 C 
BRANCH  14  15
ATOM     15  N   UNL     1       8.703  10.085  -2.717  0.00  0.00    +0.382 N 
ATOM     16  C   UNL     1       9.534  11.174  -3.248  0.00  0.00    -0.096 C 
ATOM     17  C   UNL     1       9.508   9.144  -1.927  0.00  0.00    -0.096 C 
ATOM     18  H   UNL     1       8.280   9.536  -3.571  0.00  0.00    -0.082 HD
ENDBRANCH  14  15
ENDBRANCH   1  14
BRANCH   4  19
ATOM     19  S   UNL     1       3.297   7.642  -0.900  0.00  0.00    -0.073 S 
BRANCH  19  20
ATOM     20  C   UNL     1       3.630   6.000  -0.215  0.00  0.00    +0.137 C 
ATOM     21  C   UNL     1       4.269   6.144   1.168  0.00  0.00    +0.029 C 
BRANCH  20  22
ATOM     22  C   UNL     1       2.338   5.235  -0.093  0.00  0.00    +0.230 C 
ATOM     23  O   UNL     1       1.280   5.828  -0.081  0.00  0.00    -0.274 OA
ATOM     24  N   UNL     1       2.357   3.890   0.001  0.00  0.00    -0.283 N 
ATOM     25  H   UNL     1       3.317   3.358   0.081  0.00  0.00    +0.155 HD
BRANCH  24  26
ATOM     26  C   UNL     1       1.156   3.171  -0.003  0.00  0.00    +0.053 A 
ATOM     27  C   UNL     1       0.024   3.711  -0.598  0.00  0.00    +0.044 A 
ATOM     28  C   UNL     1      -1.161   2.999  -0.600  0.00  0.00    +0.043 A 
ATOM     29  C   UNL     1      -1.217   1.746  -0.014  0.00  0.00    +0.021 A 
ATOM     30  C   UNL     1      -0.093   1.208   0.584  0.00  0.00    +0.023 A 
ATOM     31  C   UNL     1       1.095   1.915   0.589  0.00  0.00    +0.062 A 
ATOM     32 CL   UNL     1       2.508   1.236   1.334  0.00  0.00    -0.082 Cl
ATOM     33 CL   UNL     1      -2.577   3.673  -1.343  0.00  0.00    -0.083 Cl
ENDBRANCH  24  26
ENDBRANCH  20  22
ENDBRANCH  19  20
ENDBRANCH   4  19
TORSDOF 7
