REMARK  Name = ZINC37610288
REMARK  9 active torsions:
REMARK  status: ('A' for Active; 'I' for Inactive)
REMARK    1  A    between atoms: C_1  and  C_2
REMARK    2  A    between atoms: C_2  and  C_3
REMARK    3  A    between atoms: C_2  and  N_4
REMARK    4  A    between atoms: N_4  and  C_5
REMARK    5  A    between atoms: C_5  and  C_6
REMARK    6  A    between atoms: N_8  and  C_9
REMARK    7  A    between atoms: C_12  and  N_16
REMARK    8  A    between atoms: N_16  and  S_17
REMARK    9  A    between atoms: S_17  and  C_20
REMARK                            x       y       z     vdW  Elec       q    Type
REMARK                         _______ _______ _______ _____ _____    ______ ____
ROOT
ATOM      1  C   UNL     1      -5.557  -0.981  -2.315  0.00  0.00    +0.035 A 
ATOM      2  C   UNL     1      -6.062  -1.477  -3.510  0.00  0.00    +0.025 A 
ATOM      3  C   UNL     1      -7.321  -2.042  -3.546  0.00  0.00    +0.028 A 
ATOM      4  C   UNL     1      -8.084  -2.115  -2.388  0.00  0.00    +0.066 A 
ATOM      5  C   UNL     1      -7.579  -1.619  -1.192  0.00  0.00    +0.065 A 
ATOM      6  C   UNL     1      -6.316  -1.058  -1.155  0.00  0.00    +0.045 A 
ATOM      7 CL   UNL     1      -8.531  -1.709   0.257  0.00  0.00    -0.082 Cl
ENDROOT
BRANCH   1  10
ATOM      8  C   UNL     1      -3.498  -0.569  -1.193  0.00  0.00    +0.200 C 
ATOM      9  O   UNL     1      -3.932  -1.138  -0.213  0.00  0.00    -0.278 OA
ATOM     10  N   UNL     1      -4.279  -0.407  -2.279  0.00  0.00    -0.287 N 
ATOM     11  H   UNL     1      -3.956   0.106  -3.036  0.00  0.00    +0.155 HD
BRANCH   8  12
ATOM     12  C   UNL     1      -2.087  -0.041  -1.194  0.00  0.00    +0.015 C 
BRANCH  12  13
ATOM     13  N   UNL     1      -1.450  -0.341   0.096  0.00  0.00    +0.386 N 
ATOM     14  H   UNL     1      -1.436  -1.340   0.239  0.00  0.00    -0.085 HD
ATOM     15  H   UNL     1      -1.973   0.098   0.839  0.00  0.00    -0.085 HD
BRANCH  13  17
ATOM     16  C   UNL     1      -0.100   1.700   0.001  0.00  0.00    -0.014 C 
ATOM     17  C   UNL     1      -0.074   0.173   0.094  0.00  0.00    -0.078 C 
ATOM     18  C   UNL     1       0.629  -0.248   1.386  0.00  0.00    -0.014 C 
ENDBRANCH  13  17
ENDBRANCH  12  13
ENDBRANCH   8  12
ENDBRANCH   1  10
BRANCH   4  19
ATOM     19  N   UNL     1      -9.361  -2.687  -2.425  0.00  0.00    -0.219 N 
ATOM     20  H   UNL     1     -10.069  -2.328  -1.868  0.00  0.00    +0.173 HD
BRANCH  19  21
ATOM     21  S   UNL     1      -9.662  -3.976  -3.419  0.00  0.00    +0.040 S 
ATOM     22  O   UNL     1     -11.004  -4.347  -3.135  0.00  0.00    -0.155 OA
ATOM     23  O   UNL     1      -9.293  -3.527  -4.716  0.00  0.00    -0.155 OA
ATOM     24  C   UNL     1      -8.523  -5.272  -2.860  0.00  0.00    +0.218 C 
ENDBRANCH  19  21
ENDBRANCH   4  19
TORSDOF 6
