REMARK  Name = ZINC04606802
REMARK  4 active torsions:
REMARK  status: ('A' for Active; 'I' for Inactive)
REMARK    1  A    between atoms: C_1  and  N_2
REMARK    2  A    between atoms: N_2  and  C_3
REMARK    3  A    between atoms: C_16  and  C_18
REMARK    4  A    between atoms: C_19  and  C_20
REMARK                            x       y       z     vdW  Elec       q    Type
REMARK                         _______ _______ _______ _____ _____    ______ ____
ROOT
ATOM      1  C   UNL     1      -5.578  -1.024  -1.795  0.00  0.00    +0.133 C 
ATOM      2  N   UNL     1      -4.686  -0.258  -0.920  0.00  0.00    -0.292 N 
ATOM      3  C   UNL     1      -5.203   0.332   0.317  0.00  0.00    +0.133 C 
ATOM      4  C   UNL     1      -3.390  -0.097  -1.254  0.00  0.00    +0.304 C 
ATOM      5  O   UNL     1      -3.063  -0.067  -2.425  0.00  0.00    -0.252 OA
ATOM      6  N   UNL     1      -2.457   0.030  -0.290  0.00  0.00    -0.285 N 
ATOM      7  C   UNL     1      -1.066   0.356  -0.634  0.00  0.00    +0.112 C 
ATOM      8  C   UNL     1      -0.145  -0.704  -0.017  0.00  0.00    +0.056 C 
ATOM      9  C   UNL     1      -0.434  -0.822   1.473  0.00  0.00    +0.087 C 
ATOM     10  C   UNL     1      -1.882  -1.212   1.731  0.00  0.00    +0.056 C 
ATOM     11  C   UNL     1      -2.812  -0.155   1.124  0.00  0.00    +0.112 C 
ATOM     12  N   UNL     1      -0.085   0.416   2.180  0.00  0.00    -0.282 N 
ATOM     13  C   UNL     1       1.055   0.330   3.093  0.00  0.00    +0.120 C 
ATOM     14  C   UNL     1       1.163  -1.095   3.712  0.00  0.00    +0.090 C 
ATOM     15  S   UNL     1       0.683  -2.077   2.219  0.00  0.00    -0.133 S 
ATOM     16  C   UNL     1      -0.772   1.562   2.000  0.00  0.00    +0.241 C 
ATOM     17  O   UNL     1      -1.603   1.639   1.114  0.00  0.00    -0.271 OA
ENDROOT
BRANCH  16  18
ATOM     18  C   UNL     1      -0.518   2.712   2.869  0.00  0.00    +0.068 C 
ATOM     19  C   UNL     1      -1.205   3.858   2.688  0.00  0.00    +0.013 C 
BRANCH  19  20
ATOM     20  C   UNL     1      -0.950   5.015   3.562  0.00  0.00    -0.025 A 
ATOM     21  C   UNL     1       0.001   4.927   4.585  0.00  0.00    +0.008 A 
ATOM     22  C   UNL     1       0.238   6.017   5.396  0.00  0.00    +0.001 A 
ATOM     23  C   UNL     1      -0.470   7.191   5.207  0.00  0.00    +0.000 A 
ATOM     24  C   UNL     1      -1.416   7.284   4.201  0.00  0.00    +0.001 A 
ATOM     25  C   UNL     1      -1.660   6.205   3.378  0.00  0.00    +0.008 A 
ENDBRANCH  19  20
ENDBRANCH  16  18
TORSDOF 2
