REMARK  Name = ZINC10351442
REMARK  9 active torsions:
REMARK  status: ('A' for Active; 'I' for Inactive)
REMARK    1  A    between atoms: C_1  and  C_2
REMARK    2  A    between atoms: C_5  and  C_8
REMARK    3  A    between atoms: C_8  and  C_10
REMARK    4  A    between atoms: C_8  and  N_49
REMARK    5  A    between atoms: C_13  and  C_15
REMARK    6  A    between atoms: C_13  and  C_16
REMARK    7  A    between atoms: C_13  and  N_49
REMARK    8  A    between atoms: N_18  and  C_19
REMARK    9  A    between atoms: C_22  and  C_26
REMARK                            x       y       z     vdW  Elec       q    Type
REMARK                         _______ _______ _______ _____ _____    ______ ____
ROOT
ATOM      1  C   UNL     1      -0.846   1.415   1.403  0.00  0.00    +0.014 C 
ATOM      2  C   UNL     1      -0.175   0.937   0.114  0.00  0.00    -0.004 C 
ENDROOT
BRANCH   1   3
ATOM      3  C   UNL     1      -0.074   0.902   2.592  0.00  0.00    +0.203 C 
ATOM      4  O   UNL     1      -0.618   0.183   3.403  0.00  0.00    -0.277 OA
ATOM      5  N   UNL     1       1.220   1.242   2.752  0.00  0.00    -0.287 N 
ATOM      6  H   UNL     1       1.633   1.879   2.148  0.00  0.00    +0.155 HD
BRANCH   5   7
ATOM      7  C   UNL     1       1.968   0.677   3.791  0.00  0.00    +0.036 A 
ATOM      8  C   UNL     1       2.948   1.426   4.430  0.00  0.00    +0.024 A 
ATOM      9  C   UNL     1       3.681   0.868   5.459  0.00  0.00    +0.008 A 
ATOM     10  C   UNL     1       3.450  -0.439   5.846  0.00  0.00    -0.015 A 
ATOM     11  C   UNL     1       2.478  -1.191   5.208  0.00  0.00    +0.128 A 
ATOM     12  C   UNL     1       1.736  -0.635   4.181  0.00  0.00    +0.062 A 
ATOM     13  F   UNL     1       2.253  -2.467   5.589  0.00  0.00    -0.205 F 
ATOM     14  C   UNL     1       4.257  -1.046   6.965  0.00  0.00    +0.047 C 
ENDBRANCH   5   7
ENDBRANCH   1   3
BRANCH   1  15
ATOM     15  N   UNL     1      -2.226   0.897   1.462  0.00  0.00    +0.391 N 
ATOM     16  H   UNL     1      -2.241  -0.069   1.115  0.00  0.00    -0.084 HD
ATOM     17  H   UNL     1      -2.554   0.916   2.436  0.00  0.00    -0.084 HD
BRANCH  15  18
ATOM     18  C   UNL     1      -3.120   1.726   0.632  0.00  0.00    -0.037 C 
BRANCH  18  23
ATOM     19  C   UNL     1      -4.581   6.501   3.541  0.00  0.00    +0.044 C 
ATOM     20  C   UNL     1      -4.200   5.256   2.782  0.00  0.00    -0.050 A 
ATOM     21  C   UNL     1      -3.930   5.327   1.428  0.00  0.00    +0.003 A 
ATOM     22  C   UNL     1      -3.580   4.185   0.733  0.00  0.00    +0.002 A 
ATOM     23  C   UNL     1      -3.501   2.972   1.391  0.00  0.00    -0.061 A 
ATOM     24  C   UNL     1      -3.777   2.900   2.743  0.00  0.00    +0.002 A 
ATOM     25  C   UNL     1      -4.122   4.043   3.440  0.00  0.00    +0.003 A 
ENDBRANCH  18  23
BRANCH  18  26
ATOM     26  C   UNL     1      -4.381   0.926   0.299  0.00  0.00    -0.021 C 
ATOM     27  C   UNL     1      -4.518  -0.466   0.918  0.00  0.00    +0.002 C 
ATOM     28  C   UNL     1      -4.218  -0.319  -0.574  0.00  0.00    +0.002 C 
ENDBRANCH  18  26
ENDBRANCH  15  18
ENDBRANCH   1  15
TORSDOF 6
