REMARK  Name = ZINC37174136
REMARK  9 active torsions:
REMARK  status: ('A' for Active; 'I' for Inactive)
REMARK    1  A    between atoms: C_1  and  C_2
REMARK    2  A    between atoms: C_3  and  N_22
REMARK    3  A    between atoms: C_7  and  N_8
REMARK    4  A    between atoms: C_9  and  C_11
REMARK    5  A    between atoms: C_11  and  C_12
REMARK    6  A    between atoms: C_12  and  C_13
REMARK    7  A    between atoms: C_13  and  N_14
REMARK    8  A    between atoms: N_14  and  C_15
REMARK    9  A    between atoms: N_14  and  C_16
REMARK                            x       y       z     vdW  Elec       q    Type
REMARK                         _______ _______ _______ _____ _____    ______ ____
ROOT
ATOM      1  N   UNL     1       0.025  -0.015   2.415  0.00  0.00    -0.285 N 
ATOM      2  C   UNL     1      -0.056  -0.695   3.576  0.00  0.00    +0.217 C 
ATOM      3  O   UNL     1      -0.040  -1.907   3.571  0.00  0.00    -0.275 OA
ATOM      4  H   UNL     1       0.078   0.954   2.423  0.00  0.00    +0.155 HD
ENDROOT
BRANCH   1  11
ATOM      5  C   UNL     1      -1.266   1.183   0.182  0.00  0.00    +0.047 C 
ATOM      6  C   UNL     1      -0.585  -0.158   0.085  0.00  0.00    -0.009 A 
ATOM      7  C   UNL     1      -0.569  -0.844  -1.122  0.00  0.00    +0.029 A 
ATOM      8  C   UNL     1       0.060  -2.080  -1.208  0.00  0.00    +0.023 A 
ATOM      9  C   UNL     1       0.669  -2.626  -0.094  0.00  0.00    +0.004 A 
ATOM     10  C   UNL     1       0.656  -1.945   1.107  0.00  0.00    +0.024 A 
ATOM     11  C   UNL     1       0.033  -0.706   1.199  0.00  0.00    +0.038 A 
BRANCH   7  12
ATOM     12  N   UNL     1      -1.185  -0.293  -2.248  0.00  0.00    -0.358 N 
ATOM     13  H   UNL     1      -1.625   0.569  -2.187  0.00  0.00    +0.142 HD
ATOM     14  H   UNL     1      -1.174  -0.774  -3.090  0.00  0.00    +0.142 HD
ENDBRANCH   7  12
ENDBRANCH   1  11
BRANCH   2  15
ATOM     15  C   UNL     1      -0.168   0.052   4.880  0.00  0.00    +0.094 C 
BRANCH  15  16
ATOM     16  C   UNL     1      -0.244  -0.948   6.036  0.00  0.00    -0.009 C 
BRANCH  16  17
ATOM     17  C   UNL     1      -0.357  -0.189   7.360  0.00  0.00    -0.078 C 
BRANCH  17  18
ATOM     18  N   UNL     1      -0.431  -1.150   8.469  0.00  0.00    +0.380 N 
ATOM     19  C   UNL     1      -1.672  -1.929   8.361  0.00  0.00    -0.096 C 
ATOM     20  H   UNL     1       0.362  -1.772   8.429  0.00  0.00    -0.082 HD
BRANCH  18  21
ATOM     21  C   UNL     1      -0.419  -0.424   9.747  0.00  0.00    -0.058 C 
ATOM     22  C   UNL     1       0.846   0.430   9.812  0.00  0.00    -0.004 C 
ATOM     23  C   UNL     1       1.281   0.636  11.290  0.00  0.00    +0.067 C 
ATOM     24  S   UNL     1       0.921  -1.049  11.955  0.00  0.00    -0.162 S 
ATOM     25  C   UNL     1      -0.527  -1.445  10.896  0.00  0.00    +0.054 C 
ENDBRANCH  18  21
ENDBRANCH  17  18
ENDBRANCH  16  17
ENDBRANCH  15  16
ENDBRANCH   2  15
TORSDOF 7
