REMARK  Name = ZINC20208481
REMARK  8 active torsions:
REMARK  status: ('A' for Active; 'I' for Inactive)
REMARK    1  A    between atoms: C_1  and  C_2
REMARK    2  A    between atoms: C_2  and  S_3
REMARK    3  A    between atoms: S_3  and  C_6
REMARK    4  A    between atoms: C_12  and  C_13
REMARK    5  A    between atoms: C_16  and  O_19
REMARK    6  A    between atoms: O_19  and  C_20
REMARK    7  A    between atoms: C_20  and  C_22
REMARK    8  A    between atoms: C_26  and  C_28
REMARK                            x       y       z     vdW  Elec       q    Type
REMARK                         _______ _______ _______ _____ _____    ______ ____
ROOT
ATOM      1  C   UNL     1      -4.539 -10.934   2.562  0.00  0.00    +0.235 C 
ATOM      2  N   UNL     1      -4.511  -9.893   1.780  0.00  0.00    -0.145 NA
ATOM      3  N   UNL     1      -3.321  -9.395   1.296  0.00  0.00    -0.150 N 
ATOM      4  C   UNL     1      -3.172  -8.225   0.519  0.00  0.00    +0.153 C 
ATOM      5  N   UNL     1      -4.046  -7.255   0.507  0.00  0.00    -0.283 NA
ATOM      6  C   UNL     1      -1.917  -8.207  -0.286  0.00  0.00    +0.081 C 
ATOM      7  C   UNL     1      -1.856  -7.600  -1.520  0.00  0.00    +0.024 C 
ATOM      8  C   UNL     1      -0.738  -8.879   0.314  0.00  0.00    +0.273 C 
ATOM      9  O   UNL     1       0.397  -8.556   0.000  0.00  0.00    -0.268 OA
ATOM     10  N   UNL     1      -0.955  -9.855   1.217  0.00  0.00    -0.152 NA
ATOM     11  C   UNL     1      -2.177 -10.089   1.626  0.00  0.00    +0.182 C 
ATOM     12  S   UNL     1      -2.806 -11.347   2.707  0.00  0.00    -0.015 S 
ATOM     13  H   UNL     1      -4.880  -7.348   0.993  0.00  0.00    +0.188 HD
ENDROOT
BRANCH   7  14
ATOM     14  C   UNL     1      -3.082  -7.114  -2.159  0.00  0.00    -0.024 A 
ATOM     15  C   UNL     1      -3.055  -5.948  -2.937  0.00  0.00    +0.011 A 
ATOM     16  C   UNL     1      -4.205  -5.498  -3.532  0.00  0.00    +0.047 A 
ATOM     17  C   UNL     1      -5.397  -6.196  -3.365  0.00  0.00    +0.132 A 
ATOM     18  C   UNL     1      -5.429  -7.353  -2.595  0.00  0.00    +0.047 A 
ATOM     19  C   UNL     1      -4.285  -7.816  -2.000  0.00  0.00    +0.011 A 
BRANCH  17  20
ATOM     20  O   UNL     1      -6.532  -5.745  -3.957  0.00  0.00    -0.422 OA
BRANCH  20  21
ATOM     21  C   UNL     1      -6.594  -5.763  -5.303  0.00  0.00    +0.344 C 
ATOM     22  O   UNL     1      -5.692  -6.261  -5.946  0.00  0.00    -0.245 OA
BRANCH  21  23
ATOM     23  C   UNL     1      -7.759  -5.177  -5.996  0.00  0.00    +0.060 A 
ATOM     24  C   UNL     1      -8.796  -4.598  -5.260  0.00  0.00    +0.015 A 
ATOM     25  C   UNL     1      -9.880  -4.053  -5.914  0.00  0.00    +0.001 A 
ATOM     26  C   UNL     1      -9.944  -4.078  -7.297  0.00  0.00    +0.003 A 
ATOM     27  C   UNL     1      -8.921  -4.650  -8.032  0.00  0.00    -0.050 A 
ATOM     28  C   UNL     1      -7.827  -5.194  -7.391  0.00  0.00    +0.018 A 
ATOM     29  C   UNL     1      -8.998  -4.673  -9.537  0.00  0.00    +0.044 C 
ENDBRANCH  21  23
ENDBRANCH  20  21
ENDBRANCH  17  20
ENDBRANCH   7  14
BRANCH   1  30
ATOM     30  S   UNL     1      -5.930 -11.729   3.297  0.00  0.00    +0.022 S 
ATOM     31  O   UNL     1      -6.960 -10.749   3.277  0.00  0.00    -0.167 OA
ATOM     32  O   UNL     1      -5.444 -12.244   4.529  0.00  0.00    -0.167 OA
BRANCH  30  34
ATOM     33  C   UNL     1      -7.546 -13.857   2.712  0.00  0.00    +0.028 C 
ATOM     34  C   UNL     1      -6.339 -13.089   2.169  0.00  0.00    +0.171 C 
ENDBRANCH  30  34
ENDBRANCH   1  30
TORSDOF 6
