REMARK  Name = ZINC62432608
REMARK  10 active torsions:
REMARK  status: ('A' for Active; 'I' for Inactive)
REMARK    1  A    between atoms: C_1  and  C_2
REMARK    2  A    between atoms: C_2  and  C_3
REMARK    3  A    between atoms: C_6  and  C_9
REMARK    4  A    between atoms: C_9  and  C_10
REMARK    5  A    between atoms: C_11  and  C_19
REMARK    6  A    between atoms: C_19  and  C_21
REMARK    7  A    between atoms: C_19  and  N_25
REMARK    8  A    between atoms: C_21  and  N_22
REMARK    9  A    between atoms: N_22  and  C_23
REMARK   10  A    between atoms: N_22  and  C_24
REMARK                            x       y       z     vdW  Elec       q    Type
REMARK                         _______ _______ _______ _____ _____    ______ ____
ROOT
ATOM      1  C   UNL     1       3.258  -0.812   5.489  0.00  0.00    +0.069 A 
ATOM      2  C   UNL     1       4.408  -0.118   5.345  0.00  0.00    +0.061 A 
ATOM      3  N   UNL     1       4.359   0.932   6.221  0.00  0.00    -0.302 N 
ATOM      4  C   UNL     1       5.232   1.943   6.500  0.00  0.00    +0.093 A 
ATOM      5  C   UNL     1       4.933   2.872   7.432  0.00  0.00    +0.018 A 
ATOM      6  C   UNL     1       3.715   2.810   8.129  0.00  0.00    +0.005 A 
ATOM      7  C   UNL     1       2.835   1.808   7.860  0.00  0.00    +0.047 A 
ATOM      8  C   UNL     1       3.162   0.845   6.884  0.00  0.00    +0.138 A 
ATOM      9  N   UNL     1       2.513  -0.213   6.421  0.00  0.00    -0.232 NA
ENDROOT
BRANCH   1  10
ATOM     10  C   UNL     1       2.877  -2.052   4.722  0.00  0.00    +0.092 C 
BRANCH  10  14
ATOM     11  C   UNL     1       0.801  -0.941   1.158  0.00  0.00    -0.048 A 
ATOM     12  C   UNL     1       2.177  -1.073   1.143  0.00  0.00    +0.004 A 
ATOM     13  C   UNL     1       2.849  -1.433   2.297  0.00  0.00    +0.004 A 
ATOM     14  C   UNL     1       2.145  -1.659   3.465  0.00  0.00    -0.042 A 
ATOM     15  C   UNL     1       0.769  -1.527   3.479  0.00  0.00    +0.004 A 
ATOM     16  C   UNL     1       0.097  -1.163   2.327  0.00  0.00    +0.004 A 
BRANCH  11  18
ATOM     17  C   UNL     1      -0.037   0.975  -0.175  0.00  0.00    +0.009 C 
ATOM     18  C   UNL     1       0.068  -0.550  -0.100  0.00  0.00    +0.032 C 
ENDBRANCH  11  18
ENDBRANCH  10  14
ENDBRANCH   1  10
BRANCH   2  19
ATOM     19  C   UNL     1       5.534  -0.439   4.396  0.00  0.00    +0.083 C 
BRANCH  19  20
ATOM     20  N   UNL     1       5.950   0.784   3.697  0.00  0.00    -0.324 NA
ATOM     21  H   UNL     1       6.373   1.440   4.336  0.00  0.00    +0.119 HD
ATOM     22  H   UNL     1       6.573   0.569   2.933  0.00  0.00    +0.119 HD
ENDBRANCH  19  20
BRANCH  19  23
ATOM     23  C   UNL     1       6.718  -1.004   5.184  0.00  0.00    -0.055 C 
BRANCH  23  24
ATOM     24  N   UNL     1       7.857  -1.206   4.278  0.00  0.00    +0.377 N 
ATOM     25  C   UNL     1       9.029  -1.634   5.052  0.00  0.00    -0.097 C 
ATOM     26  C   UNL     1       7.519  -2.238   3.289  0.00  0.00    -0.097 C 
ATOM     27  H   UNL     1       8.066  -0.341   3.802  0.00  0.00    -0.083 HD
ENDBRANCH  23  24
ENDBRANCH  19  23
ENDBRANCH   2  19
TORSDOF 7
