REMARK  Name = ZINC13025716
REMARK  7 active torsions:
REMARK  status: ('A' for Active; 'I' for Inactive)
REMARK    1  A    between atoms: C_5  and  C_7
REMARK    2  A    between atoms: C_7  and  C_9
REMARK    3  A    between atoms: C_7  and  N_17
REMARK    4  A    between atoms: N_11  and  C_12
REMARK    5  A    between atoms: N_17  and  C_18
REMARK    6  A    between atoms: C_22  and  C_24
REMARK    7  A    between atoms: C_28  and  C_30
REMARK                            x       y       z     vdW  Elec       q    Type
REMARK                         _______ _______ _______ _____ _____    ______ ____
ROOT
ATOM      1  N   UNL     1      -0.098   5.207   0.117  0.00  0.00    -0.249 N 
ATOM      2  C   UNL     1      -1.223   5.932  -0.037  0.00  0.00    +0.287 C 
ATOM      3  O   UNL     1      -1.160   7.146  -0.107  0.00  0.00    -0.266 OA
ENDROOT
BRANCH   1   4
ATOM      4  C   UNL     1      -0.156   3.810   0.078  0.00  0.00    +0.038 A 
ATOM      5  C   UNL     1      -0.587   3.100   1.192  0.00  0.00    +0.023 A 
ATOM      6  C   UNL     1      -0.642   1.721   1.150  0.00  0.00    +0.002 A 
ATOM      7  C   UNL     1      -0.270   1.046   0.002  0.00  0.00    +0.012 A 
ATOM      8  C   UNL     1       0.165   1.750  -1.107  0.00  0.00    +0.057 A 
ATOM      9  C   UNL     1       0.218   3.130  -1.073  0.00  0.00    +0.036 A 
BRANCH   8  10
ATOM     10  C   UNL     1       0.576   1.010  -2.354  0.00  0.00    +0.417 C 
ATOM     11  F   UNL     1       0.431  -0.366  -2.149  0.00  0.00    -0.166 F 
ATOM     12  F   UNL     1      -0.235   1.410  -3.421  0.00  0.00    -0.166 F 
ATOM     13  F   UNL     1       1.912   1.301  -2.649  0.00  0.00    -0.166 F 
ENDBRANCH   8  10
ENDBRANCH   1   4
BRANCH   2  14
ATOM     14  C   UNL     1      -2.523   5.260  -0.120  0.00  0.00    +0.190 A 
ATOM     15  C   UNL     1      -3.737   5.873  -0.240  0.00  0.00    +0.054 A 
ATOM     16  C   UNL     1      -4.702   4.854  -0.284  0.00  0.00    +0.042 A 
ATOM     17  C   UNL     1      -4.042   3.678  -0.188  0.00  0.00    +0.196 A 
ATOM     18  O   UNL     1      -2.729   3.927  -0.096  0.00  0.00    -0.458 OA
ENDBRANCH   2  14
BRANCH   1  19
ATOM     19  C   UNL     1       1.186   5.881   0.325  0.00  0.00    +0.200 C 
BRANCH  19  24
ATOM     20  C   UNL     1       0.909   9.061   2.341  0.00  0.00    +0.001 A 
ATOM     21  C   UNL     1       0.865   8.569   3.632  0.00  0.00    +0.003 A 
ATOM     22  C   UNL     1       0.924   7.206   3.854  0.00  0.00    +0.039 A 
ATOM     23  C   UNL     1       1.028   6.334   2.784  0.00  0.00    +0.129 A 
ATOM     24  C   UNL     1       1.073   6.829   1.491  0.00  0.00    +0.017 A 
ATOM     25  C   UNL     1       1.019   8.192   1.271  0.00  0.00    +0.009 A 
ATOM     26  F   UNL     1       1.087   5.002   3.000  0.00  0.00    -0.205 F 
ENDBRANCH  19  24
BRANCH  19  27
ATOM     27  C   UNL     1       1.555   6.653  -0.916  0.00  0.00    +0.239 C 
ATOM     28  O   UNL     1       0.818   6.641  -1.879  0.00  0.00    -0.273 OA
ATOM     29  N   UNL     1       2.704   7.357  -0.955  0.00  0.00    -0.311 N 
ATOM     30  H   UNL     1       3.293   7.366  -0.185  0.00  0.00    +0.149 HD
BRANCH  29  31
ATOM     31  C   UNL     1       3.062   8.107  -2.161  0.00  0.00    +0.073 C 
ATOM     32  C   UNL     1       3.839   7.199  -3.137  0.00  0.00    +0.022 C 
ATOM     33  C   UNL     1       4.901   8.136  -3.763  0.00  0.00    +0.002 C 
ATOM     34  C   UNL     1       5.318   9.028  -2.567  0.00  0.00    +0.002 C 
ATOM     35  C   UNL     1       4.003   9.270  -1.798  0.00  0.00    +0.022 C 
ENDBRANCH  29  31
ENDBRANCH  19  27
ENDBRANCH   1  19
TORSDOF 7
