REMARK  Name = ZINC35489934
REMARK  1 active torsions:
REMARK  status: ('A' for Active; 'I' for Inactive)
REMARK    1  A    between atoms: C_5  and  C_7
REMARK                            x       y       z     vdW  Elec       q    Type
REMARK                         _______ _______ _______ _____ _____    ______ ____
ROOT
ATOM      1  C   UNL     1       1.228  -2.186  -0.022  0.00  0.00    +0.154 C 
ATOM      2  C   UNL     1       1.345  -2.708   1.373  0.00  0.00    +0.073 A 
ATOM      3  C   UNL     1       2.393  -2.538   2.383  0.00  0.00    +0.199 A 
ATOM      4  O   UNL     1       3.313  -1.748   2.264  0.00  0.00    -0.287 OA
ATOM      5  C   UNL     1       2.227  -3.420   3.566  0.00  0.00    +0.065 A 
ATOM      6  C   UNL     1       3.241  -3.522   4.518  0.00  0.00    +0.030 A 
ATOM      7  C   UNL     1       3.072  -4.349   5.607  0.00  0.00    +0.019 A 
ATOM      8  C   UNL     1       1.898  -5.077   5.752  0.00  0.00    +0.019 A 
ATOM      9  C   UNL     1       0.890  -4.983   4.819  0.00  0.00    +0.048 A 
ATOM     10  C   UNL     1       1.036  -4.150   3.710  0.00  0.00    +0.140 A 
ATOM     11  O   UNL     1       0.025  -4.068   2.814  0.00  0.00    -0.450 OA
ATOM     12  C   UNL     1       0.232  -3.458   1.631  0.00  0.00    +0.199 A 
ATOM     13  C   UNL     1      -0.620  -3.449   0.430  0.00  0.00    +0.289 C 
ATOM     14  O   UNL     1      -1.685  -4.025   0.328  0.00  0.00    -0.266 OA
ATOM     15  N   UNL     1      -0.046  -2.708  -0.542  0.00  0.00    -0.230 N 
ATOM     16  C   UNL     1      -0.566  -2.478  -1.809  0.00  0.00    +0.191 A 
ATOM     17  N   UNL     1      -0.072  -1.774  -2.819  0.00  0.00    -0.126 NA
ATOM     18  N   UNL     1      -0.683  -1.668  -3.917  0.00  0.00    -0.148 NA
ATOM     19  C   UNL     1      -1.849  -2.247  -4.131  0.00  0.00    +0.183 A 
ATOM     20  S   UNL     1      -2.091  -3.053  -2.551  0.00  0.00    -0.038 S 
ATOM     21 BR   UNL     1       4.440  -4.495   6.904  0.00  0.00    -0.050 Br
ENDROOT
BRANCH   1  26
ATOM     22  C   UNL     1      -0.017   1.378   0.010  0.00  0.00    +0.001 A 
ATOM     23  C   UNL     1       1.171   2.087   0.002  0.00  0.00    +0.003 A 
ATOM     24  C   UNL     1       2.377   1.414  -0.013  0.00  0.00    +0.039 A 
ATOM     25  C   UNL     1       2.397   0.029  -0.021  0.00  0.00    +0.129 A 
ATOM     26  C   UNL     1       1.208  -0.679  -0.013  0.00  0.00    +0.013 A 
ATOM     27  C   UNL     1       0.002  -0.004   0.002  0.00  0.00    +0.008 A 
ATOM     28  F   UNL     1       3.577  -0.630  -0.036  0.00  0.00    -0.205 F 
ENDBRANCH   1  26
TORSDOF 1
