REMARK  Name = ZINC13039923
REMARK  8 active torsions:
REMARK  status: ('A' for Active; 'I' for Inactive)
REMARK    1  A    between atoms: C_1  and  C_2
REMARK    2  A    between atoms: C_2  and  C_4
REMARK    3  A    between atoms: C_2  and  N_11
REMARK    4  A    between atoms: N_11  and  C_12
REMARK    5  A    between atoms: C_12  and  C_13
REMARK    6  A    between atoms: N_15  and  C_16
REMARK    7  A    between atoms: C_19  and  S_22
REMARK    8  A    between atoms: S_22  and  N_25
REMARK                            x       y       z     vdW  Elec       q    Type
REMARK                         _______ _______ _______ _____ _____    ______ ____
ROOT
ATOM      1  C   UNL     1       0.563  -1.720  -5.813  0.00  0.00    +0.034 A 
ATOM      2  C   UNL     1       1.888  -2.104  -5.650  0.00  0.00    +0.025 A 
ATOM      3  C   UNL     1       2.586  -2.638  -6.715  0.00  0.00    +0.031 A 
ATOM      4  C   UNL     1       1.968  -2.790  -7.943  0.00  0.00    +0.113 A 
ATOM      5  C   UNL     1       0.649  -2.409  -8.108  0.00  0.00    +0.031 A 
ATOM      6  C   UNL     1      -0.057  -1.880  -7.045  0.00  0.00    +0.025 A 
ENDROOT
BRANCH   1   9
ATOM      7  C   UNL     1      -1.460  -1.447  -4.591  0.00  0.00    +0.231 C 
ATOM      8  O   UNL     1      -2.045  -2.087  -5.439  0.00  0.00    -0.274 OA
ATOM      9  N   UNL     1      -0.147  -1.179  -4.736  0.00  0.00    -0.284 N 
ATOM     10  H   UNL     1       0.305  -0.610  -4.093  0.00  0.00    +0.155 HD
BRANCH   7  11
ATOM     11  C   UNL     1      -2.201  -0.951  -3.377  0.00  0.00    +0.178 C 
BRANCH  11  12
ATOM     12  N   UNL     1      -3.607  -1.371  -3.455  0.00  0.00    -0.302 NA
ATOM     13  H   UNL     1      -3.680  -2.372  -3.557  0.00  0.00    +0.123 HD
BRANCH  12  15
ATOM     14  C   UNL     1      -4.196  -1.903  -1.138  0.00  0.00    +0.029 C 
ATOM     15  C   UNL     1      -4.362  -0.904  -2.285  0.00  0.00    +0.083 C 
BRANCH  15  16
ATOM     16  C   UNL     1      -5.822  -0.788  -2.642  0.00  0.00    -0.012 A 
ATOM     17  C   UNL     1      -6.346  -1.555  -3.666  0.00  0.00    +0.006 A 
ATOM     18  C   UNL     1      -7.684  -1.448  -3.994  0.00  0.00    +0.000 A 
ATOM     19  C   UNL     1      -8.500  -0.575  -3.299  0.00  0.00    +0.001 A 
ATOM     20  C   UNL     1      -7.977   0.192  -2.275  0.00  0.00    +0.020 A 
ATOM     21  C   UNL     1      -6.638   0.082  -1.942  0.00  0.00    +0.046 A 
ATOM     22 CL   UNL     1      -5.983   1.040  -0.652  0.00  0.00    -0.083 Cl
ENDBRANCH  15  16
ENDBRANCH  12  15
ENDBRANCH  11  12
ENDBRANCH   7  11
ENDBRANCH   1   9
BRANCH   4  23
ATOM     23  S   UNL     1       2.862  -3.472  -9.299  0.00  0.00    +0.100 S 
ATOM     24  O   UNL     1       2.226  -3.005 -10.481  0.00  0.00    -0.146 OA
ATOM     25  O   UNL     1       4.239  -3.243  -9.034  0.00  0.00    -0.146 OA
BRANCH  23  26
ATOM     26  N   UNL     1       2.639  -5.112  -9.258  0.00  0.00    -0.118 NA
ATOM     27  C   UNL     1       3.194  -5.863 -10.153  0.00  0.00    +0.117 C 
ATOM     28  C   UNL     1       4.060  -5.239 -11.245  0.00  0.00    +0.073 C 
ATOM     29  C   UNL     1       5.491  -5.650 -10.973  0.00  0.00    +0.008 C 
ATOM     30  C   UNL     1       5.877  -6.980 -11.623  0.00  0.00    +0.002 C 
ATOM     31  C   UNL     1       4.795  -8.052 -11.484  0.00  0.00    +0.019 C 
ATOM     32  C   UNL     1       4.170  -8.094 -10.106  0.00  0.00    +0.102 C 
ATOM     33  N   UNL     1       3.017  -7.169 -10.122  0.00  0.00    -0.331 N 
ATOM     34  H   UNL     1       2.117  -7.531 -10.111  0.00  0.00    +0.147 HD
ENDBRANCH  23  26
ENDBRANCH   4  23
TORSDOF 7
