REMARK  Name = ZINC39730827
REMARK  13 active torsions:
REMARK  status: ('A' for Active; 'I' for Inactive)
REMARK    1  A    between atoms: C_1  and  C_2
REMARK    2  A    between atoms: C_4  and  C_12
REMARK    3  A    between atoms: C_12  and  C_14
REMARK    4  A    between atoms: C_14  and  C_16
REMARK    5  A    between atoms: C_14  and  S_17
REMARK    6  A    between atoms: S_17  and  C_18
REMARK    7  A    between atoms: C_21  and  C_28
REMARK    8  A    between atoms: N_23  and  C_24
REMARK    9  A    between atoms: C_24  and  C_25
REMARK   10  A    between atoms: C_25  and  C_26
REMARK   11  A    between atoms: C_25  and  C_27
REMARK   12  A    between atoms: C_28  and  C_29
REMARK   13  A    between atoms: C_29  and  C_30
REMARK                            x       y       z     vdW  Elec       q    Type
REMARK                         _______ _______ _______ _____ _____    ______ ____
ROOT
ATOM      1  C   UNL     1      -6.506  -1.020  -1.369  0.00  0.00    +0.176 C 
ATOM      2  N   UNL     1      -6.581  -2.027  -0.566  0.00  0.00    -0.163 NA
ATOM      3  N   UNL     1      -7.894  -2.500  -0.458  0.00  0.00    -0.246 N 
ATOM      4  C   UNL     1      -8.713  -1.641  -1.329  0.00  0.00    +0.177 C 
ATOM      5  N   UNL     1      -7.745  -0.685  -1.895  0.00  0.00    -0.289 N 
ATOM      6  H   UNL     1      -8.202  -3.245   0.082  0.00  0.00    +0.170 HD
ENDROOT
BRANCH   1   7
ATOM      7  S   UNL     1      -5.011  -0.167  -1.747  0.00  0.00    -0.078 S 
BRANCH   7   8
ATOM      8  C   UNL     1      -3.750  -1.043  -0.781  0.00  0.00    +0.122 C 
ATOM      9  C   UNL     1      -3.615  -2.477  -1.298  0.00  0.00    +0.028 C 
BRANCH   8  10
ATOM     10  C   UNL     1      -2.428  -0.333  -0.919  0.00  0.00    +0.175 C 
ATOM     11  O   UNL     1      -2.205   0.350  -1.898  0.00  0.00    -0.291 OA
BRANCH  10  14
ATOM     12  C   UNL     1      -0.363   1.777   0.267  0.00  0.00    +0.035 C 
ATOM     13  C   UNL     1      -0.127   0.268   0.180  0.00  0.00    +0.111 C 
ATOM     14  C   UNL     1      -1.450  -0.461   0.090  0.00  0.00    +0.027 C 
ATOM     15  C   UNL     1      -1.499  -1.280   1.204  0.00  0.00    +0.006 A 
ATOM     16  C   UNL     1      -2.464  -2.197   1.682  0.00  0.00    +0.010 A 
ATOM     17  C   UNL     1      -2.246  -2.879   2.829  0.00  0.00    +0.001 A 
ATOM     18  C   UNL     1      -1.078  -2.719   3.591  0.00  0.00    +0.002 A 
ATOM     19  C   UNL     1      -0.095  -1.869   3.222  0.00  0.00    +0.026 A 
ATOM     20  C   UNL     1      -0.252  -1.087   1.985  0.00  0.00    +0.043 A 
ATOM     21  N   UNL     1       0.521  -0.213   1.404  0.00  0.00    -0.377 N 
ATOM     22  H   UNL     1       1.388   0.075   1.730  0.00  0.00    +0.160 HD
ENDBRANCH  10  14
ENDBRANCH   8  10
ENDBRANCH   7   8
ENDBRANCH   1   7
BRANCH   5  23
ATOM     23  C   UNL     1      -8.034   0.403  -2.832  0.00  0.00    +0.112 C 
BRANCH  23  24
ATOM     24  C   UNL     1      -7.906  -0.112  -4.267  0.00  0.00    +0.000 C 
ATOM     25  C   UNL     1      -8.328   0.988  -5.243  0.00  0.00    +0.009 C 
ATOM     26  C   UNL     1      -6.453  -0.506  -4.540  0.00  0.00    +0.009 C 
ENDBRANCH  23  24
ENDBRANCH   5  23
BRANCH   4  27
ATOM     27  C   UNL     1      -9.371  -2.469  -2.435  0.00  0.00    +0.053 C 
BRANCH  27  28
ATOM     28  C   UNL     1     -10.389  -3.429  -1.816  0.00  0.00    +0.099 C 
BRANCH  28  29
ATOM     29  C   UNL     1     -11.037  -4.244  -2.905  0.00  0.00    +0.211 C 
ATOM     30  O   UNL     1     -10.716  -4.074  -4.062  0.00  0.00    -0.276 OA
ATOM     31  N   UNL     1     -11.972  -5.163  -2.593  0.00  0.00    -0.329 N 
ATOM     32  H   UNL     1     -12.229  -5.299  -1.668  0.00  0.00    +0.145 HD
ATOM     33  H   UNL     1     -12.389  -5.688  -3.294  0.00  0.00    +0.145 HD
ENDBRANCH  28  29
ENDBRANCH  27  28
ENDBRANCH   4  27
TORSDOF 9
