REMARK  Name = ZINC29686636
REMARK  9 active torsions:
REMARK  status: ('A' for Active; 'I' for Inactive)
REMARK    1  A    between atoms: C_1  and  C_2
REMARK    2  A    between atoms: C_2  and  C_4
REMARK    3  A    between atoms: C_2  and  N_11
REMARK    4  A    between atoms: N_14  and  C_17
REMARK    5  A    between atoms: C_17  and  C_19
REMARK    6  A    between atoms: C_17  and  C_20
REMARK    7  A    between atoms: N_22  and  C_23
REMARK    8  A    between atoms: C_23  and  C_24
REMARK    9  A    between atoms: N_26  and  C_27
REMARK                            x       y       z     vdW  Elec       q    Type
REMARK                         _______ _______ _______ _____ _____    ______ ____
ROOT
ATOM      1  C   UNL     1       5.787   7.977  -0.509  0.00  0.00    +0.016 C 
ATOM      2  C   UNL     1       6.780   7.336  -1.480  0.00  0.00    -0.004 C 
ENDROOT
BRANCH   1   6
ATOM      3  N   UNL     1       7.035  11.906  -1.431  0.00  0.00    -0.299 NA
ATOM      4  C   UNL     1       7.590  11.272  -0.227  0.00  0.00    +0.066 C 
ATOM      5  C   UNL     1       7.422   9.754  -0.330  0.00  0.00    -0.062 C 
ATOM      6  N   UNL     1       5.997   9.431  -0.483  0.00  0.00    +0.389 N 
ATOM      7  C   UNL     1       5.441  10.065  -1.686  0.00  0.00    -0.062 C 
ATOM      8  C   UNL     1       5.609  11.583  -1.583  0.00  0.00    +0.066 C 
ATOM      9  H   UNL     1       5.462   9.832   0.391  0.00  0.00    -0.081 HD
BRANCH   3  11
ATOM     10  C   UNL     1       6.510  14.003  -2.582  0.00  0.00    +0.029 C 
ATOM     11  C   UNL     1       7.245  13.360  -1.404  0.00  0.00    +0.085 C 
BRANCH  11  12
ATOM     12  C   UNL     1       8.719  13.656  -1.508  0.00  0.00    -0.012 A 
ATOM     13  C   UNL     1       9.563  12.753  -2.126  0.00  0.00    +0.006 A 
ATOM     14  C   UNL     1      10.915  13.027  -2.226  0.00  0.00    +0.000 A 
ATOM     15  C   UNL     1      11.424  14.200  -1.700  0.00  0.00    +0.001 A 
ATOM     16  C   UNL     1      10.581  15.101  -1.077  0.00  0.00    +0.020 A 
ATOM     17  C   UNL     1       9.227  14.830  -0.981  0.00  0.00    +0.046 A 
ATOM     18 CL   UNL     1       8.168  15.961  -0.199  0.00  0.00    -0.083 Cl
ENDBRANCH  11  12
ENDBRANCH   3  11
ENDBRANCH   1   6
BRANCH   1  19
ATOM     19  C   UNL     1       5.999   7.413   0.872  0.00  0.00    +0.200 C 
ATOM     20  O   UNL     1       6.533   8.088   1.727  0.00  0.00    -0.278 OA
ATOM     21  N   UNL     1       5.595   6.159   1.157  0.00  0.00    -0.308 N 
ATOM     22  H   UNL     1       5.111   5.548   0.382  0.00  0.00    +0.149 HD
BRANCH  21  23
ATOM     23  C   UNL     1       5.801   5.611   2.500  0.00  0.00    +0.200 C 
BRANCH  23  24
ATOM     24  C   UNL     1       5.265   4.204   2.557  0.00  0.00    +0.234 C 
ATOM     25  O   UNL     1       4.760   3.708   1.572  0.00  0.00    -0.274 OA
ATOM     26  N   UNL     1       5.346   3.497   3.701  0.00  0.00    -0.282 N 
ATOM     27  H   UNL     1       5.719   3.977   4.618  0.00  0.00    +0.155 HD
BRANCH  26  28
ATOM     28  C   UNL     1       4.956   2.151   3.723  0.00  0.00    +0.072 A 
ATOM     29  C   UNL     1       4.891   1.427   2.540  0.00  0.00    +0.029 A 
ATOM     30  C   UNL     1       4.506   0.101   2.562  0.00  0.00    +0.043 A 
ATOM     31  C   UNL     1       4.183  -0.509   3.762  0.00  0.00    +0.161 A 
ATOM     32  C   UNL     1       4.245   0.210   4.946  0.00  0.00    +0.195 A 
ATOM     33  C   UNL     1       4.631   1.540   4.928  0.00  0.00    +0.182 A 
ATOM     34  F   UNL     1       4.687   2.244   6.080  0.00  0.00    -0.200 F 
ATOM     35  F   UNL     1       3.929  -0.386   6.116  0.00  0.00    -0.199 F 
ATOM     36  F   UNL     1       3.806  -1.806   3.780  0.00  0.00    -0.202 F 
ENDBRANCH  26  28
ENDBRANCH  23  24
ENDBRANCH  21  23
ENDBRANCH   1  19
TORSDOF 7
