REMARK  Name = ZINC57358744
REMARK  9 active torsions:
REMARK  status: ('A' for Active; 'I' for Inactive)
REMARK    1  A    between atoms: C_1  and  C_2
REMARK    2  A    between atoms: C_5  and  C_7
REMARK    3  A    between atoms: C_10  and  C_12
REMARK    4  A    between atoms: C_12  and  C_13
REMARK    5  A    between atoms: C_13  and  C_14
REMARK    6  A    between atoms: N_16  and  C_17
REMARK    7  A    between atoms: C_21  and  C_23
REMARK    8  A    between atoms: C_23  and  N_24
REMARK    9  A    between atoms: C_28  and  C_30
REMARK                            x       y       z     vdW  Elec       q    Type
REMARK                         _______ _______ _______ _____ _____    ______ ____
ROOT
ATOM      1  C   UNL     1       0.459 -10.069   0.674  0.00  0.00    +0.034 A 
ATOM      2  C   UNL     1       0.597 -10.374  -0.674  0.00  0.00    +0.023 A 
ATOM      3  C   UNL     1       0.309 -11.647  -1.126  0.00  0.00    +0.002 A 
ATOM      4  C   UNL     1      -0.117 -12.618  -0.237  0.00  0.00    +0.002 A 
ATOM      5  C   UNL     1      -0.255 -12.318   1.105  0.00  0.00    -0.062 A 
ATOM      6  C   UNL     1       0.038 -11.048   1.564  0.00  0.00    +0.025 A 
ENDROOT
BRANCH   1   9
ATOM      7  C   UNL     1       0.473  -7.711   0.363  0.00  0.00    +0.218 C 
ATOM      8  O   UNL     1       0.050  -7.868  -0.763  0.00  0.00    -0.275 OA
ATOM      9  N   UNL     1       0.750  -8.781   1.134  0.00  0.00    -0.285 N 
ATOM     10  H   UNL     1       1.152  -8.657   2.009  0.00  0.00    +0.155 HD
BRANCH   7  11
ATOM     11  C   UNL     1       0.689  -6.319   0.899  0.00  0.00    +0.104 C 
BRANCH  11  12
ATOM     12  C   UNL     1       0.299  -5.295  -0.169  0.00  0.00    +0.083 C 
BRANCH  12  16
ATOM     13  C   UNL     1       0.145  -1.980   1.354  0.00  0.00    +0.109 A 
ATOM     14  C   UNL     1       1.411  -1.948   0.900  0.00  0.00    +0.045 A 
ATOM     15  C   UNL     1       1.650  -3.188   0.264  0.00  0.00    +0.045 A 
ATOM     16  C   UNL     1       0.515  -3.903   0.367  0.00  0.00    +0.106 A 
ATOM     17  O   UNL     1      -0.391  -3.169   1.033  0.00  0.00    -0.464 OA
BRANCH  13  21
ATOM     18  C   UNL     1      -2.075   1.210   1.665  0.00  0.00    +0.008 C 
ATOM     19  C   UNL     1      -1.820  -0.287   1.475  0.00  0.00    -0.003 C 
ATOM     20  C   UNL     1      -1.921  -1.183   2.711  0.00  0.00    +0.015 C 
ATOM     21  C   UNL     1      -0.552  -0.872   2.101  0.00  0.00    +0.058 C 
ENDBRANCH  13  21
ENDBRANCH  12  16
ENDBRANCH  11  12
ENDBRANCH   7  11
ENDBRANCH   1   9
BRANCH   5  22
ATOM     22  C   UNL     1      -0.719 -13.378   2.070  0.00  0.00    -0.042 C 
BRANCH  22  23
ATOM     23  N   UNL     1       0.445 -14.098   2.603  0.00  0.00    +0.390 N 
ATOM     24  C   UNL     1       1.240 -13.206   3.485  0.00  0.00    -0.077 C 
ATOM     25  C   UNL     1       2.034 -14.198   4.371  0.00  0.00    -0.020 C 
ATOM     26  C   UNL     1       1.017 -15.337   4.612  0.00  0.00    -0.008 C 
ATOM     27  C   UNL     1       0.002 -15.221   3.459  0.00  0.00    +0.019 C 
ATOM     28  H   UNL     1       1.018 -14.442   1.847  0.00  0.00    -0.080 HD
BRANCH  27  29
ATOM     29  C   UNL     1      -0.017 -16.499   2.661  0.00  0.00    +0.197 C 
ATOM     30  O   UNL     1       0.305 -16.488   1.491  0.00  0.00    -0.278 OA
ATOM     31  N   UNL     1      -0.392 -17.653   3.246  0.00  0.00    -0.331 N 
ATOM     32  H   UNL     1      -0.649 -17.662   4.181  0.00  0.00    +0.145 HD
ATOM     33  H   UNL     1      -0.404 -18.476   2.732  0.00  0.00    +0.145 HD
ENDBRANCH  27  29
ENDBRANCH  22  23
ENDBRANCH   5  22
TORSDOF 8
