REMARK  Name = ZINC42399346
REMARK  7 active torsions:
REMARK  status: ('A' for Active; 'I' for Inactive)
REMARK    1  A    between atoms: C_1  and  N_2
REMARK    2  A    between atoms: N_2  and  C_3
REMARK    3  A    between atoms: N_2  and  C_13
REMARK    4  A    between atoms: C_3  and  C_4
REMARK    5  A    between atoms: C_8  and  C_10
REMARK    6  A    between atoms: C_10  and  N_12
REMARK    7  A    between atoms: C_13  and  C_14
REMARK                            x       y       z     vdW  Elec       q    Type
REMARK                         _______ _______ _______ _____ _____    ______ ____
ROOT
ATOM      1  C   UNL     1       0.713  -0.491   1.192  0.00  0.00    -0.043 C 
ENDROOT
BRANCH   1   2
ATOM      2  C   UNL     1      -0.059  -0.109   2.429  0.00  0.00    -0.063 A 
ATOM      3  C   UNL     1       0.190   1.101   3.052  0.00  0.00    +0.002 A 
ATOM      4  C   UNL     1      -0.514   1.459   4.188  0.00  0.00    +0.001 A 
ATOM      5  C   UNL     1      -1.470   0.611   4.707  0.00  0.00    +0.010 A 
ATOM      6  C   UNL     1      -1.726  -0.612   4.084  0.00  0.00    +0.003 A 
ATOM      7  C   UNL     1      -1.016  -0.965   2.934  0.00  0.00    +0.012 A 
BRANCH   6   8
ATOM      8  C   UNL     1      -2.748  -1.525   4.634  0.00  0.00    +0.077 C 
ATOM      9  S   UNL     1      -3.703  -2.477   3.579  0.00  0.00    -0.035 S 
BRANCH   8  10
ATOM     10  N   UNL     1      -2.928  -1.610   5.967  0.00  0.00    -0.352 N 
ATOM     11  H   UNL     1      -2.387  -1.071   6.564  0.00  0.00    +0.143 HD
ATOM     12  H   UNL     1      -3.599  -2.210   6.328  0.00  0.00    +0.143 HD
ENDBRANCH   8  10
ENDBRANCH   6   8
ENDBRANCH   1   2
BRANCH   1  14
ATOM     13  C   UNL     1      -0.018   1.465   0.010  0.00  0.00    -0.095 C 
ATOM     14  N   UNL     1       0.002  -0.004   0.002  0.00  0.00    +0.384 N 
ATOM     15  H   UNL     1      -0.945  -0.353   0.009  0.00  0.00    -0.081 HD
BRANCH  14  16
ATOM     16  C   UNL     1       0.690  -0.478  -1.207  0.00  0.00    -0.036 C 
BRANCH  16  17
ATOM     17  C   UNL     1      -0.106  -0.083  -2.424  0.00  0.00    -0.026 A 
ATOM     18  C   UNL     1      -0.021   1.045  -3.170  0.00  0.00    +0.024 A 
ATOM     19  C   UNL     1      -0.862   1.195  -4.258  0.00  0.00    +0.025 A 
ATOM     20  C   UNL     1      -1.746   0.208  -4.545  0.00  0.00    +0.060 A 
ATOM     21  S   UNL     1      -1.399  -0.984  -3.263  0.00  0.00    -0.102 S 
ATOM     22 BR   UNL     1      -0.780   2.752  -5.327  0.00  0.00    -0.050 Br
ENDBRANCH  16  17
ENDBRANCH  14  16
ENDBRANCH   1  14
TORSDOF 6
