REMARK  Name = ZINC38782576
REMARK  7 active torsions:
REMARK  status: ('A' for Active; 'I' for Inactive)
REMARK    1  A    between atoms: C_1  and  C_2
REMARK    2  A    between atoms: C_2  and  C_25
REMARK    3  A    between atoms: N_10  and  C_13
REMARK    4  A    between atoms: C_13  and  C_14
REMARK    5  A    between atoms: N_16  and  C_17
REMARK    6  A    between atoms: C_17  and  C_18
REMARK    7  A    between atoms: C_18  and  N_19
REMARK                            x       y       z     vdW  Elec       q    Type
REMARK                         _______ _______ _______ _____ _____    ______ ____
ROOT
ATOM      1  C   UNL     1      -0.019   1.526   0.010  0.00  0.00    +0.041 C 
ATOM      2  C   UNL     1       0.002  -0.004   0.002  0.00  0.00    +0.068 C 
ATOM      3  C   UNL     1      -1.442  -0.532  -0.013  0.00  0.00    +0.067 C 
ATOM      4  C   UNL     1      -1.342  -2.038   0.221  0.00  0.00    -0.037 C 
ATOM      5  C   UNL     1      -1.897  -2.973  -0.542  0.00  0.00    +0.067 C 
ATOM      6  C   UNL     1      -1.508  -4.393  -0.306  0.00  0.00    +0.104 C 
ATOM      7  N   UNL     1      -1.957  -5.381  -1.037  0.00  0.00    -0.155 NA
ATOM      8  C   UNL     1      -2.807  -5.089  -2.036  0.00  0.00    +0.334 C 
ATOM      9  O   UNL     1      -3.224  -6.013  -2.711  0.00  0.00    -0.250 OA
ATOM     10  N   UNL     1      -3.230  -3.858  -2.341  0.00  0.00    -0.211 N 
ATOM     11  C   UNL     1      -2.844  -2.740  -1.682  0.00  0.00    +0.257 C 
ATOM     12  O   UNL     1      -3.236  -1.631  -1.990  0.00  0.00    -0.269 OA
ATOM     13  S   UNL     1      -0.415  -4.335   1.081  0.00  0.00    -0.097 S 
ATOM     14  C   UNL     1      -0.509  -2.534   1.407  0.00  0.00    +0.105 C 
ATOM     15  C   UNL     1       0.872  -1.890   1.254  0.00  0.00    +0.179 C 
ATOM     16  O   UNL     1       0.692  -0.472   1.158  0.00  0.00    -0.372 OA
ATOM     17  C   UNL     1       0.728  -0.493  -1.253  0.00  0.00    +0.041 C 
ENDROOT
BRANCH  10  18
ATOM     18  C   UNL     1      -4.168  -3.710  -3.457  0.00  0.00    +0.214 C 
BRANCH  18  19
ATOM     19  C   UNL     1      -5.581  -3.811  -2.942  0.00  0.00    +0.231 C 
ATOM     20  O   UNL     1      -5.784  -3.990  -1.759  0.00  0.00    -0.274 OA
ATOM     21  N   UNL     1      -6.619  -3.704  -3.795  0.00  0.00    -0.316 N 
ATOM     22  H   UNL     1      -6.456  -3.561  -4.741  0.00  0.00    +0.149 HD
BRANCH  21  23
ATOM     23  C   UNL     1      -7.992  -3.802  -3.295  0.00  0.00    +0.085 C 
BRANCH  23  24
ATOM     24  C   UNL     1      -8.972  -3.647  -4.460  0.00  0.00    -0.067 C 
BRANCH  24  25
ATOM     25  N   UNL     1     -10.349  -3.747  -3.958  0.00  0.00    +0.379 N 
ATOM     26  H   UNL     1     -10.484  -4.646  -3.522  0.00  0.00    -0.090 HD
ATOM     27  H   UNL     1     -10.513  -3.017  -3.281  0.00  0.00    -0.090 HD
ATOM     28  H   UNL     1     -10.995  -3.644  -4.726  0.00  0.00    -0.090 HD
ENDBRANCH  24  25
ENDBRANCH  23  24
ENDBRANCH  21  23
ENDBRANCH  18  19
ENDBRANCH  10  18
TORSDOF 5
