REMARK  Name = ZINC05457967
REMARK  5 active torsions:
REMARK  status: ('A' for Active; 'I' for Inactive)
REMARK    1  A    between atoms: C_3  and  N_10
REMARK    2  A    between atoms: C_6  and  C_7
REMARK    3  A    between atoms: C_11  and  C_13
REMARK    4  A    between atoms: C_13  and  O_14
REMARK    5  A    between atoms: O_14  and  N_15
REMARK                            x       y       z     vdW  Elec       q    Type
REMARK                         _______ _______ _______ _____ _____    ______ ____
ROOT
ATOM      1  N   UNL     1       7.300   5.052  -0.040  0.00  0.00    -0.283 N 
ATOM      2  C   UNL     1       6.006   4.721   0.141  0.00  0.00    +0.258 C 
ATOM      3  O   UNL     1       5.177   5.589   0.312  0.00  0.00    -0.272 OA
ATOM      4  H   UNL     1       7.975   4.357  -0.100  0.00  0.00    +0.155 HD
ENDROOT
BRANCH   1   7
ATOM      5  C   UNL     1       9.268   8.136   0.252  0.00  0.00    +0.015 A 
ATOM      6  C   UNL     1       8.900   6.813   0.351  0.00  0.00    +0.024 A 
ATOM      7  C   UNL     1       7.669   6.393  -0.142  0.00  0.00    +0.034 A 
ATOM      8  C   UNL     1       6.808   7.306  -0.742  0.00  0.00    +0.024 A 
ATOM      9  C   UNL     1       7.167   8.631  -0.840  0.00  0.00    +0.015 A 
ATOM     10  C   UNL     1       8.402   9.057  -0.345  0.00  0.00    +0.037 A 
BRANCH  10  11
ATOM     11  C   UNL     1       8.793  10.477  -0.453  0.00  0.00    +0.242 C 
ATOM     12  O   UNL     1       9.868  10.846  -0.022  0.00  0.00    -0.270 OA
ATOM     13  N   UNL     1       7.957  11.364  -1.029  0.00  0.00    -0.325 N 
ATOM     14  H   UNL     1       7.100  11.069  -1.373  0.00  0.00    +0.145 HD
ATOM     15  H   UNL     1       8.214  12.296  -1.100  0.00  0.00    +0.145 HD
ENDBRANCH  10  11
ENDBRANCH   1   7
BRANCH   2  16
ATOM     16  C   UNL     1       5.591   3.272   0.132  0.00  0.00    +0.358 C 
BRANCH  16  17
ATOM     17  O   UNL     1       4.181   3.180   0.344  0.00  0.00    -0.383 OA
BRANCH  17  18
ATOM     18  N   UNL     1       3.686   1.853   0.353  0.00  0.00    -0.076 N 
ATOM     19  C   UNL     1       2.379   1.464   0.533  0.00  0.00    +0.132 A 
ATOM     20  C   UNL     1       1.189   2.149   0.750  0.00  0.00    +0.053 A 
ATOM     21  C   UNL     1       0.013   1.446   0.895  0.00  0.00    +0.043 A 
ATOM     22  C   UNL     1       0.011   0.057   0.825  0.00  0.00    +0.022 A 
ATOM     23  C   UNL     1       1.169  -0.632   0.614  0.00  0.00    +0.033 A 
ATOM     24  C   UNL     1       2.378   0.060   0.463  0.00  0.00    +0.116 A 
ATOM     25  N   UNL     1       3.647  -0.340   0.249  0.00  0.00    -0.127 NA
ATOM     26  N   UNL     1       4.431   0.678   0.180  0.00  0.00    -0.029 NA
ATOM     27 CL   UNL     1      -1.476   2.299   1.158  0.00  0.00    -0.083 Cl
ENDBRANCH  17  18
ENDBRANCH  16  17
ENDBRANCH   2  16
TORSDOF 5
