REMARK  Name = ZINC58467378
REMARK  10 active torsions:
REMARK  status: ('A' for Active; 'I' for Inactive)
REMARK    1  A    between atoms: C_1  and  N_2
REMARK    2  A    between atoms: N_2  and  S_3
REMARK    3  A    between atoms: S_3  and  C_6
REMARK    4  A    between atoms: C_6  and  C_7
REMARK    5  A    between atoms: C_10  and  C_13
REMARK    6  A    between atoms: C_13  and  N_14
REMARK    7  A    between atoms: N_17  and  C_18
REMARK    8  A    between atoms: C_18  and  C_19
REMARK    9  A    between atoms: C_19  and  C_21
REMARK   10  A    between atoms: C_19  and  N_26
REMARK                            x       y       z     vdW  Elec       q    Type
REMARK                         _______ _______ _______ _____ _____    ______ ____
ROOT
ATOM      1  N   UNL     1      -7.417  -4.034  -0.699  0.00  0.00    -0.295 N 
ATOM      2  C   UNL     1      -8.495  -4.839  -0.627  0.00  0.00    +0.300 C 
ATOM      3  O   UNL     1      -9.230  -4.959  -1.589  0.00  0.00    -0.253 OA
ATOM      4  N   UNL     1      -8.759  -5.511   0.511  0.00  0.00    -0.301 N 
ATOM      5  H   UNL     1      -6.831  -3.938   0.068  0.00  0.00    +0.151 HD
ATOM      6  H   UNL     1      -8.174  -5.415   1.278  0.00  0.00    +0.150 HD
ENDROOT
BRANCH   1   7
ATOM      7  C   UNL     1      -7.130  -3.303  -1.936  0.00  0.00    +0.141 C 
BRANCH   7  11
ATOM      8  C   UNL     1      -3.586  -0.973  -1.426  0.00  0.00    -0.025 A 
ATOM      9  C   UNL     1      -3.499  -2.270  -1.897  0.00  0.00    +0.005 A 
ATOM     10  C   UNL     1      -4.646  -3.024  -2.062  0.00  0.00    +0.005 A 
ATOM     11  C   UNL     1      -5.880  -2.481  -1.755  0.00  0.00    -0.030 A 
ATOM     12  C   UNL     1      -5.967  -1.185  -1.283  0.00  0.00    +0.005 A 
ATOM     13  C   UNL     1      -4.819  -0.432  -1.114  0.00  0.00    +0.005 A 
BRANCH   8  14
ATOM     14  C   UNL     1      -2.336  -0.151  -1.246  0.00  0.00    +0.220 C 
BRANCH  14  15
ATOM     15  S   UNL     1      -1.683  -0.401   0.428  0.00  0.00    +0.033 S 
ATOM     16  O   UNL     1      -1.207  -1.731   0.574  0.00  0.00    -0.158 OA
ATOM     17  O   UNL     1      -2.569   0.161   1.387  0.00  0.00    -0.158 OA
BRANCH  15  19
ATOM     18  C   UNL     1      -0.442   2.002   0.406  0.00  0.00    +0.127 C 
ATOM     19  N   UNL     1      -0.326   0.545   0.501  0.00  0.00    -0.197 NA
ATOM     20  H   UNL     1       0.546   0.133   0.607  0.00  0.00    +0.147 HD
ENDBRANCH  15  19
ENDBRANCH  14  15
ENDBRANCH   8  14
ENDBRANCH   7  11
ENDBRANCH   1   7
BRANCH   4  21
ATOM     21  C   UNL     1      -9.932  -6.386   0.589  0.00  0.00    +0.095 C 
BRANCH  21  22
ATOM     22  C   UNL     1      -9.941  -7.106   1.939  0.00  0.00    -0.013 C 
BRANCH  22  23
ATOM     23  N   UNL     1     -11.041  -8.080   1.967  0.00  0.00    +0.386 N 
ATOM     24  C   UNL     1     -10.832  -9.118   0.925  0.00  0.00    -0.078 C 
ATOM     25  C   UNL     1     -11.686 -10.306   1.432  0.00  0.00    -0.020 C 
ATOM     26  C   UNL     1     -11.484 -10.249   2.963  0.00  0.00    -0.020 C 
ATOM     27  C   UNL     1     -11.050  -8.802   3.258  0.00  0.00    -0.078 C 
ATOM     28  H   UNL     1     -11.924  -7.614   1.823  0.00  0.00    -0.081 HD
ENDBRANCH  22  23
BRANCH  22  29
ATOM     29  C   UNL     1     -10.135  -6.099   3.044  0.00  0.00    -0.022 A 
ATOM     30  C   UNL     1      -9.209  -5.539   3.861  0.00  0.00    +0.009 A 
ATOM     31  C   UNL     1      -9.620  -4.627   4.814  0.00  0.00    +0.008 A 
ATOM     32  C   UNL     1     -10.937  -4.318   4.904  0.00  0.00    +0.045 A 
ATOM     33  S   UNL     1     -11.642  -5.327   3.610  0.00  0.00    -0.103 S 
ENDBRANCH  22  29
ENDBRANCH  21  22
ENDBRANCH   4  21
TORSDOF 9
