REMARK  Name = ZINC34750114
REMARK  7 active torsions:
REMARK  status: ('A' for Active; 'I' for Inactive)
REMARK    1  A    between atoms: C_1  and  C_2
REMARK    2  A    between atoms: C_2  and  C_31
REMARK    3  A    between atoms: C_9  and  N_22
REMARK    4  A    between atoms: C_11  and  S_13
REMARK    5  A    between atoms: S_13  and  C_14
REMARK    6  A    between atoms: C_14  and  C_15
REMARK    7  A    between atoms: N_25  and  C_28
REMARK                            x       y       z     vdW  Elec       q    Type
REMARK                         _______ _______ _______ _____ _____    ______ ____
ROOT
ATOM      1  C   UNL     1       0.001   1.487   0.024  0.00  0.00    +0.041 C 
ATOM      2  C   UNL     1       0.008  -0.043   0.012  0.00  0.00    +0.068 C 
ATOM      3  C   UNL     1      -1.434  -0.558   0.003  0.00  0.00    +0.071 C 
ATOM      4  C   UNL     1      -2.057  -0.251   1.363  0.00  0.00    -0.020 A 
ATOM      5  C   UNL     1      -1.251   0.035   2.413  0.00  0.00    +0.021 A 
ATOM      6  S   UNL     1      -2.347   0.325   3.777  0.00  0.00    -0.071 S 
ATOM      7  C   UNL     1      -3.880   0.065   2.943  0.00  0.00    +0.115 A 
ATOM      8  C   UNL     1      -3.487  -0.243   1.615  0.00  0.00    +0.051 A 
ATOM      9  C   UNL     1      -4.528  -0.508   0.679  0.00  0.00    +0.134 A 
ATOM     10  N   UNL     1      -5.770  -0.439   1.153  0.00  0.00    -0.206 NA
ATOM     11  C   UNL     1      -6.065  -0.145   2.410  0.00  0.00    +0.191 A 
ATOM     12  N   UNL     1      -5.137   0.114   3.334  0.00  0.00    -0.215 NA
ATOM     13  C   UNL     1       0.244   0.085   2.394  0.00  0.00    +0.203 C 
ATOM     14  O   UNL     1       0.693  -0.523   1.172  0.00  0.00    -0.368 OA
ATOM     15  C   UNL     1       0.728  -0.538  -1.243  0.00  0.00    +0.041 C 
ENDROOT
BRANCH   9  16
ATOM     16  N   UNL     1      -4.264  -0.820  -0.642  0.00  0.00    -0.318 N 
ATOM     17  C   UNL     1      -3.961  -2.201  -1.048  0.00  0.00    +0.088 C 
ATOM     18  C   UNL     1      -4.860  -2.567  -2.234  0.00  0.00    -0.060 C 
ATOM     19  N   UNL     1      -4.692  -1.571  -3.300  0.00  0.00    +0.380 N 
ATOM     20  C   UNL     1      -5.163  -0.259  -2.837  0.00  0.00    -0.060 C 
ATOM     21  C   UNL     1      -4.284   0.220  -1.683  0.00  0.00    +0.088 C 
ATOM     22  C   UNL     1      -5.469  -1.981  -4.477  0.00  0.00    -0.096 C 
ATOM     23  H   UNL     1      -3.716  -1.508  -3.549  0.00  0.00    -0.082 HD
ENDBRANCH   9  16
BRANCH  11  24
ATOM     24  S   UNL     1      -7.762  -0.092   2.884  0.00  0.00    -0.081 S 
BRANCH  24  25
ATOM     25  C   UNL     1      -7.712   0.338   4.646  0.00  0.00    +0.112 C 
BRANCH  25  26
ATOM     26  C   UNL     1      -9.117   0.416   5.184  0.00  0.00    -0.037 A 
ATOM     27  C   UNL     1      -9.807   1.614   5.143  0.00  0.00    +0.005 A 
ATOM     28  C   UNL     1     -11.096   1.687   5.636  0.00  0.00    +0.015 A 
ATOM     29  C   UNL     1     -11.696   0.561   6.170  0.00  0.00    +0.018 A 
ATOM     30  C   UNL     1     -11.006  -0.637   6.211  0.00  0.00    +0.015 A 
ATOM     31  C   UNL     1      -9.719  -0.710   5.713  0.00  0.00    +0.005 A 
ATOM     32 BR   UNL     1     -13.460   0.660   6.845  0.00  0.00    -0.050 Br
ENDBRANCH  25  26
ENDBRANCH  24  25
ENDBRANCH  11  24
TORSDOF 4
