REMARK  Name = ZINC32777704
REMARK  6 active torsions:
REMARK  status: ('A' for Active; 'I' for Inactive)
REMARK    1  A    between atoms: C_1  and  C_2
REMARK    2  A    between atoms: C_2  and  C_4
REMARK    3  A    between atoms: C_2  and  N_11
REMARK    4  A    between atoms: N_9  and  C_10
REMARK    5  A    between atoms: N_14  and  S_17
REMARK    6  A    between atoms: S_17  and  N_20
REMARK                            x       y       z     vdW  Elec       q    Type
REMARK                         _______ _______ _______ _____ _____    ______ ____
ROOT
ATOM      1  N   UNL     1      -0.643   2.737  -1.532  0.00  0.00    +0.389 N 
ATOM      2  C   UNL     1      -0.489   1.407  -2.135  0.00  0.00    -0.060 C 
ATOM      3  C   UNL     1       0.523   0.594  -1.321  0.00  0.00    +0.092 C 
ATOM      4  N   UNL     1       0.101   0.592   0.088  0.00  0.00    -0.170 NA
ATOM      5  C   UNL     1      -0.209   1.883   0.722  0.00  0.00    +0.092 C 
ATOM      6  C   UNL     1      -1.193   2.645  -0.172  0.00  0.00    -0.060 C 
ATOM      7  H   UNL     1       0.357   3.189  -1.458  0.00  0.00    -0.081 HD
ENDROOT
BRANCH   4   8
ATOM      8  S   UNL     1      -0.026  -0.825   0.936  0.00  0.00    +0.099 S 
ATOM      9  O   UNL     1      -0.942  -0.584   1.995  0.00  0.00    -0.141 OA
ATOM     10  O   UNL     1      -0.224  -1.855  -0.023  0.00  0.00    -0.141 OA
BRANCH   8  11
ATOM     11  N   UNL     1       1.446  -1.109   1.638  0.00  0.00    -0.166 NA
ATOM     12  C   UNL     1       2.550  -1.871   1.037  0.00  0.00    +0.110 C 
ATOM     13  C   UNL     1       3.704  -1.893   2.061  0.00  0.00    +0.018 C 
ATOM     14  C   UNL     1       2.976  -1.634   3.407  0.00  0.00    +0.018 C 
ATOM     15  C   UNL     1       1.865  -0.645   2.974  0.00  0.00    +0.110 C 
ENDBRANCH   8  11
ENDBRANCH   4   8
BRANCH   1  17
ATOM     16  C   UNL     1      -1.767   4.910  -1.633  0.00  0.00    -0.004 C 
ATOM     17  C   UNL     1      -1.472   3.606  -2.377  0.00  0.00    +0.017 C 
BRANCH  17  18
ATOM     18  C   UNL     1      -2.768   2.907  -2.698  0.00  0.00    +0.207 C 
ATOM     19  O   UNL     1      -3.231   2.101  -1.920  0.00  0.00    -0.277 OA
ATOM     20  N   UNL     1      -3.412   3.178  -3.851  0.00  0.00    -0.242 N 
ATOM     21  C   UNL     1      -4.571   2.552  -4.138  0.00  0.00    +0.306 C 
ATOM     22  O   UNL     1      -5.035   1.744  -3.357  0.00  0.00    -0.252 OA
ATOM     23  N   UNL     1      -5.215   2.823  -5.290  0.00  0.00    -0.302 N 
ATOM     24  C   UNL     1      -6.475   2.143  -5.602  0.00  0.00    +0.129 C 
ATOM     25  H   UNL     1      -2.992   3.909  -4.557  0.00  0.00    +0.159 HD
ATOM     26  H   UNL     1      -4.795   3.554  -5.996  0.00  0.00    +0.150 HD
ENDBRANCH  17  18
ENDBRANCH   1  17
TORSDOF 4
