REMARK  Name = ZINC20804803
REMARK  10 active torsions:
REMARK  status: ('A' for Active; 'I' for Inactive)
REMARK    1  A    between atoms: C_1  and  C_2
REMARK    2  A    between atoms: C_2  and  C_4
REMARK    3  A    between atoms: C_2  and  N_17
REMARK    4  A    between atoms: C_4  and  C_6
REMARK    5  A    between atoms: C_7  and  N_16
REMARK    6  A    between atoms: N_8  and  C_15
REMARK    7  A    between atoms: N_11  and  C_14
REMARK    8  A    between atoms: N_20  and  C_23
REMARK    9  A    between atoms: C_23  and  C_24
REMARK   10  A    between atoms: N_26  and  C_27
REMARK                            x       y       z     vdW  Elec       q    Type
REMARK                         _______ _______ _______ _____ _____    ______ ____
ROOT
ATOM      1  N   UNL     1       7.075   1.516   0.706  0.00  0.00    -0.296 NA
ATOM      2  C   UNL     1       7.256   2.772  -0.035  0.00  0.00    +0.066 C 
ATOM      3  C   UNL     1       6.231   3.800   0.450  0.00  0.00    -0.063 C 
ATOM      4  N   UNL     1       4.876   3.266   0.256  0.00  0.00    +0.387 N 
ATOM      5  C   UNL     1       4.695   2.010   0.997  0.00  0.00    -0.063 C 
ATOM      6  C   UNL     1       5.720   0.983   0.512  0.00  0.00    +0.066 C 
ATOM      7  H   UNL     1       4.746   3.050  -0.815  0.00  0.00    -0.081 HD
ENDROOT
BRANCH   1   9
ATOM      8  C   UNL     1       9.484   1.081   0.626  0.00  0.00    +0.032 C 
ATOM      9  C   UNL     1       8.091   0.527   0.322  0.00  0.00    +0.125 C 
BRANCH   9  10
ATOM     10  C   UNL     1       7.874  -0.745   1.101  0.00  0.00    +0.188 C 
ATOM     11  O   UNL     1       7.155  -0.742   2.080  0.00  0.00    -0.290 OA
BRANCH  10  12
ATOM     12  C   UNL     1       8.507  -1.938   0.694  0.00  0.00    +0.121 A 
ATOM     13  C   UNL     1       8.393  -3.116   1.454  0.00  0.00    +0.116 A 
ATOM     14  N   UNL     1       9.019  -4.248   1.016  0.00  0.00    -0.284 N 
ATOM     15  C   UNL     1       9.745  -4.251  -0.113  0.00  0.00    +0.333 A 
ATOM     16  O   UNL     1      10.287  -5.283  -0.457  0.00  0.00    -0.246 OA
ATOM     17  N   UNL     1       9.895  -3.156  -0.876  0.00  0.00    -0.263 N 
ATOM     18  C   UNL     1       9.312  -1.989  -0.534  0.00  0.00    +0.269 A 
ATOM     19  O   UNL     1       9.449  -0.999  -1.228  0.00  0.00    -0.267 OA
ATOM     20  C   UNL     1      10.702  -3.231  -2.096  0.00  0.00    +0.157 C 
ATOM     21  C   UNL     1       8.902  -5.481   1.798  0.00  0.00    +0.155 C 
BRANCH  13  22
ATOM     22  N   UNL     1       7.666  -3.129   2.604  0.00  0.00    -0.344 N 
ATOM     23  H   UNL     1       7.583  -4.055   3.191  0.00  0.00    +0.144 HD
ATOM     24  H   UNL     1       7.162  -2.213   2.946  0.00  0.00    +0.144 HD
ENDBRANCH  13  22
ENDBRANCH  10  12
ENDBRANCH   9  10
ENDBRANCH   1   9
BRANCH   4  25
ATOM     25  C   UNL     1       3.860   4.255   0.640  0.00  0.00    +0.019 C 
BRANCH  25  26
ATOM     26  C   UNL     1       2.500   3.776   0.202  0.00  0.00    +0.201 C 
ATOM     27  O   UNL     1       2.388   2.715  -0.374  0.00  0.00    -0.278 OA
ATOM     28  N   UNL     1       1.409   4.529   0.446  0.00  0.00    -0.286 N 
ATOM     29  H   UNL     1       1.497   5.446   1.048  0.00  0.00    +0.155 HD
BRANCH  28  30
ATOM     30  C   UNL     1       0.165   4.146  -0.068  0.00  0.00    +0.052 A 
ATOM     31  C   UNL     1       0.096   3.267  -1.141  0.00  0.00    +0.025 A 
ATOM     32  C   UNL     1      -1.133   2.886  -1.642  0.00  0.00    +0.002 A 
ATOM     33  C   UNL     1      -2.295   3.387  -1.084  0.00  0.00    +0.002 A 
ATOM     34  C   UNL     1      -2.231   4.267  -0.019  0.00  0.00    +0.022 A 
ATOM     35  C   UNL     1      -1.004   4.648   0.491  0.00  0.00    +0.062 A 
ATOM     36 CL   UNL     1      -0.923   5.753   1.827  0.00  0.00    -0.082 Cl
ENDBRANCH  28  30
ENDBRANCH  25  26
ENDBRANCH   4  25
TORSDOF 7
