REMARK  Name = ZINC42158755
REMARK  11 active torsions:
REMARK  status: ('A' for Active; 'I' for Inactive)
REMARK    1  A    between atoms: C_1  and  C_2
REMARK    2  A    between atoms: C_2  and  C_3
REMARK    3  A    between atoms: C_2  and  C_4
REMARK    4  A    between atoms: C_2  and  N_24
REMARK    5  A    between atoms: C_4  and  N_5
REMARK    6  A    between atoms: C_6  and  C_8
REMARK    7  A    between atoms: C_8  and  C_9
REMARK    8  A    between atoms: C_9  and  N_10
REMARK    9  A    between atoms: N_13  and  C_14
REMARK   10  A    between atoms: N_24  and  C_25
REMARK   11  A    between atoms: N_24  and  C_26
REMARK                            x       y       z     vdW  Elec       q    Type
REMARK                         _______ _______ _______ _____ _____    ______ ____
ROOT
ATOM      1  N   UNL     1      -4.522  -5.523  -1.241  0.00  0.00    -0.299 N 
ATOM      2  C   UNL     1      -5.735  -6.050  -1.499  0.00  0.00    +0.300 C 
ATOM      3  O   UNL     1      -6.714  -5.330  -1.540  0.00  0.00    -0.253 OA
ATOM      4  N   UNL     1      -5.863  -7.375  -1.711  0.00  0.00    -0.294 N 
ATOM      5  H   UNL     1      -3.741  -6.097  -1.208  0.00  0.00    +0.150 HD
ATOM      6  H   UNL     1      -5.082  -7.949  -1.678  0.00  0.00    +0.151 HD
ENDROOT
BRANCH   4   7
ATOM      7  C   UNL     1      -7.181  -7.948  -1.992  0.00  0.00    +0.037 C 
ATOM      8  C   UNL     1      -8.119  -7.670  -0.816  0.00  0.00    +0.029 C 
ATOM      9  C   UNL     1      -9.496  -8.268  -1.109  0.00  0.00    -0.008 C 
ATOM     10  C   UNL     1      -9.364  -9.779  -1.309  0.00  0.00    +0.007 C 
ATOM     11  C   UNL     1      -8.426 -10.057  -2.486  0.00  0.00    -0.008 C 
ATOM     12  C   UNL     1      -7.049  -9.459  -2.192  0.00  0.00    +0.029 C 
ATOM     13  C   UNL     1      -8.998  -9.422  -3.755  0.00  0.00    +0.007 C 
ATOM     14  C   UNL     1      -9.131  -7.912  -3.554  0.00  0.00    -0.008 C 
ATOM     15  C   UNL     1     -10.069  -7.634  -2.378  0.00  0.00    +0.007 C 
ATOM     16  C   UNL     1      -7.754  -7.313  -3.261  0.00  0.00    +0.029 C 
ENDBRANCH   4   7
BRANCH   1  17
ATOM     17  C   UNL     1      -4.383  -4.082  -1.010  0.00  0.00    +0.115 C 
BRANCH  17  18
ATOM     18  C   UNL     1      -2.914  -3.748  -0.742  0.00  0.00    +0.114 C 
BRANCH  18  20
ATOM     19  N   UNL     1      -1.558  -1.740  -0.246  0.00  0.00    -0.317 N 
ATOM     20  C   UNL     1      -2.771  -2.267  -0.505  0.00  0.00    +0.214 C 
ATOM     21  O   UNL     1      -3.748  -1.549  -0.546  0.00  0.00    -0.276 OA
ATOM     22  H   UNL     1      -0.777  -2.314  -0.213  0.00  0.00    +0.149 HD
BRANCH  19  23
ATOM     23  C   UNL     1      -1.419  -0.300  -0.016  0.00  0.00    +0.091 C 
BRANCH  23  25
ATOM     24  C   UNL     1       0.811  -0.220  -1.140  0.00  0.00    -0.008 C 
ATOM     25  C   UNL     1       0.060   0.047   0.166  0.00  0.00    -0.056 C 
ATOM     26  C   UNL     1       0.195   1.525   0.539  0.00  0.00    -0.008 C 
BRANCH  25  27
ATOM     27  N   UNL     1       0.629  -0.781   1.237  0.00  0.00    +0.380 N 
ATOM     28  C   UNL     1       2.044  -0.433   1.426  0.00  0.00    -0.096 C 
ATOM     29  C   UNL     1      -0.106  -0.541   2.486  0.00  0.00    -0.096 C 
ATOM     30  H   UNL     1       0.554  -1.756   0.985  0.00  0.00    -0.082 HD
ENDBRANCH  25  27
ENDBRANCH  23  25
ENDBRANCH  19  23
ENDBRANCH  18  20
ENDBRANCH  17  18
ENDBRANCH   1  17
TORSDOF 7
