REMARK  Name = ZINC15038007
REMARK  11 active torsions:
REMARK  status: ('A' for Active; 'I' for Inactive)
REMARK    1  A    between atoms: C_1  and  C_2
REMARK    2  A    between atoms: C_2  and  O_3
REMARK    3  A    between atoms: O_3  and  C_4
REMARK    4  A    between atoms: C_9  and  N_10
REMARK    5  A    between atoms: C_11  and  C_13
REMARK    6  A    between atoms: C_13  and  C_15
REMARK    7  A    between atoms: C_13  and  N_51
REMARK    8  A    between atoms: C_16  and  N_51
REMARK    9  A    between atoms: C_17  and  C_18
REMARK   10  A    between atoms: C_17  and  N_51
REMARK   11  A    between atoms: N_20  and  C_21
REMARK                            x       y       z     vdW  Elec       q    Type
REMARK                         _______ _______ _______ _____ _____    ______ ____
ROOT
ATOM      1  C   UNL     1      -0.848   0.741   3.839  0.00  0.00    -0.094 C 
ATOM      2  N   UNL     1      -1.175   1.316   2.518  0.00  0.00    +0.391 N 
ATOM      3  H   UNL     1      -0.414   1.101   1.862  0.00  0.00    -0.080 HD
ENDROOT
BRANCH   2   4
ATOM      4  C   UNL     1      -1.316   2.783   2.626  0.00  0.00    +0.017 C 
ATOM      5  C   UNL     1      -2.597   3.145   3.381  0.00  0.00    -0.004 C 
BRANCH   4   7
ATOM      6  N   UNL     1      -1.323   4.706   1.071  0.00  0.00    -0.284 N 
ATOM      7  C   UNL     1      -1.367   3.370   1.239  0.00  0.00    +0.203 C 
ATOM      8  O   UNL     1      -1.448   2.639   0.274  0.00  0.00    -0.277 OA
ATOM      9  H   UNL     1      -1.182   5.287   1.835  0.00  0.00    +0.155 HD
BRANCH   6  15
ATOM     10  C   UNL     1      -2.016   6.534  -0.358  0.00  0.00    +0.142 A 
ATOM     11  C   UNL     1      -2.170   7.074  -1.625  0.00  0.00    +0.047 A 
ATOM     12  C   UNL     1      -1.793   6.344  -2.737  0.00  0.00    +0.004 A 
ATOM     13  C   UNL     1      -1.261   5.076  -2.590  0.00  0.00    +0.002 A 
ATOM     14  C   UNL     1      -1.100   4.533  -1.329  0.00  0.00    +0.027 A 
ATOM     15  C   UNL     1      -1.481   5.257  -0.208  0.00  0.00    +0.076 A 
BRANCH  10  16
ATOM     16  O   UNL     1      -2.385   7.251   0.738  0.00  0.00    -0.490 OA
BRANCH  16  18
ATOM     17  C   UNL     1      -3.281   9.201   1.848  0.00  0.00    +0.048 C 
ATOM     18  C   UNL     1      -2.926   8.553   0.508  0.00  0.00    +0.226 C 
ENDBRANCH  16  18
ENDBRANCH  10  16
ENDBRANCH   6  15
ENDBRANCH   4   7
ENDBRANCH   2   4
BRANCH   2  19
ATOM     19  C   UNL     1      -2.430   0.725   2.006  0.00  0.00    +0.020 C 
BRANCH  19  20
ATOM     20  C   UNL     1      -2.192  -0.730   1.697  0.00  0.00    +0.201 C 
ATOM     21  O   UNL     1      -1.101  -1.222   1.898  0.00  0.00    -0.278 OA
ATOM     22  N   UNL     1      -3.190  -1.486   1.197  0.00  0.00    -0.285 N 
ATOM     23  H   UNL     1      -4.040  -1.077   0.971  0.00  0.00    +0.155 HD
BRANCH  22  24
ATOM     24  C   UNL     1      -2.999  -2.859   1.004  0.00  0.00    +0.070 A 
ATOM     25  C   UNL     1      -1.898  -3.316   0.289  0.00  0.00    +0.064 A 
ATOM     26  C   UNL     1      -1.711  -4.673   0.104  0.00  0.00    +0.022 A 
ATOM     27  C   UNL     1      -2.622  -5.575   0.621  0.00  0.00    +0.003 A 
ATOM     28  C   UNL     1      -3.721  -5.124   1.328  0.00  0.00    +0.022 A 
ATOM     29  C   UNL     1      -3.912  -3.769   1.522  0.00  0.00    +0.064 A 
ATOM     30 CL   UNL     1      -5.293  -3.204   2.410  0.00  0.00    -0.082 Cl
ATOM     31 CL   UNL     1      -0.757  -2.183  -0.366  0.00  0.00    -0.082 Cl
ENDBRANCH  22  24
ENDBRANCH  19  20
ENDBRANCH   2  19
TORSDOF 8
