REMARK  Name = ZINC37272469
REMARK  7 active torsions:
REMARK  status: ('A' for Active; 'I' for Inactive)
REMARK    1  A    between atoms: C_1  and  N_2
REMARK    2  A    between atoms: C_5  and  N_8
REMARK    3  A    between atoms: N_8  and  C_9
REMARK    4  A    between atoms: N_8  and  C_10
REMARK    5  A    between atoms: C_10  and  C_11
REMARK    6  A    between atoms: N_13  and  C_14
REMARK    7  A    between atoms: C_17  and  N_21
REMARK                            x       y       z     vdW  Elec       q    Type
REMARK                         _______ _______ _______ _____ _____    ______ ____
ROOT
ATOM      1  C   UNL     1       1.552  -6.088   1.233  0.00  0.00    +0.231 C 
ATOM      2  O   UNL     1       0.834  -6.598   0.399  0.00  0.00    -0.274 OA
ATOM      3  N   UNL     1       2.055  -6.833   2.236  0.00  0.00    -0.283 N 
ATOM      4  H   UNL     1       2.692  -6.445   2.857  0.00  0.00    +0.155 HD
ENDROOT
BRANCH   3   5
ATOM      5  C   UNL     1       1.659  -8.170   2.384  0.00  0.00    +0.048 A 
ATOM      6  C   UNL     1       0.434  -8.590   1.883  0.00  0.00    +0.026 A 
ATOM      7  C   UNL     1       0.043  -9.906   2.028  0.00  0.00    +0.024 A 
ATOM      8  C   UNL     1       0.876 -10.811   2.674  0.00  0.00    +0.026 A 
ATOM      9  C   UNL     1       2.102 -10.391   3.174  0.00  0.00    +0.039 A 
ATOM     10  C   UNL     1       2.495  -9.075   3.025  0.00  0.00    +0.041 A 
ATOM     11 BR   UNL     1       4.167  -8.505   3.699  0.00  0.00    -0.048 Br
BRANCH   8  12
ATOM     12  N   UNL     1       0.480 -12.144   2.821  0.00  0.00    -0.358 N 
ATOM     13  H   UNL     1      -0.376 -12.437   2.472  0.00  0.00    +0.142 HD
ATOM     14  H   UNL     1       1.062 -12.776   3.272  0.00  0.00    +0.142 HD
ENDBRANCH   8  12
ENDBRANCH   3   5
BRANCH   1  15
ATOM     15  C   UNL     1       1.880  -4.619   1.148  0.00  0.00    +0.180 C 
BRANCH  15  16
ATOM     16  N   UNL     1       1.215  -4.036  -0.025  0.00  0.00    -0.294 NA
ATOM     17  C   UNL     1       1.763  -4.590  -1.271  0.00  0.00    +0.105 C 
BRANCH  16  22
ATOM     18  C   UNL     1      -0.067   1.460   0.040  0.00  0.00    -0.096 C 
ATOM     19  N   UNL     1      -0.037  -0.008   0.026  0.00  0.00    +0.378 N 
ATOM     20  C   UNL     1       0.648  -0.471  -1.187  0.00  0.00    -0.078 C 
ATOM     21  C   UNL     1       0.611  -1.999  -1.247  0.00  0.00    +0.000 C 
ATOM     22  C   UNL     1       1.313  -2.571  -0.013  0.00  0.00    +0.053 C 
ATOM     23  C   UNL     1       0.637  -2.023   1.247  0.00  0.00    +0.000 C 
ATOM     24  C   UNL     1       0.673  -0.493   1.215  0.00  0.00    -0.078 C 
ATOM     25  H   UNL     1      -0.982  -0.363   0.032  0.00  0.00    -0.082 HD
ENDBRANCH  16  22
ENDBRANCH  15  16
ENDBRANCH   1  15
TORSDOF 5
