REMARK  Name = ZINC00624146
REMARK  11 active torsions:
REMARK  status: ('A' for Active; 'I' for Inactive)
REMARK    1  A    between atoms: C_1  and  C_2
REMARK    2  A    between atoms: C_2  and  O_3
REMARK    3  A    between atoms: O_3  and  C_4
REMARK    4  A    between atoms: C_6  and  C_19
REMARK    5  A    between atoms: C_9  and  O_10
REMARK    6  A    between atoms: O_10  and  C_11
REMARK    7  A    between atoms: C_11  and  C_12
REMARK    8  A    between atoms: C_19  and  N_20
REMARK    9  A    between atoms: N_20  and  C_21
REMARK   10  A    between atoms: C_24  and  S_27
REMARK   11  A    between atoms: S_27  and  N_30
REMARK                            x       y       z     vdW  Elec       q    Type
REMARK                         _______ _______ _______ _____ _____    ______ ____
ROOT
ATOM      1  C   UNL     1      -0.684   5.632   1.236  0.00  0.00    +0.163 A 
ATOM      2  C   UNL     1      -0.923   4.267   1.228  0.00  0.00    +0.054 A 
ATOM      3  C   UNL     1      -1.040   3.593   0.026  0.00  0.00    -0.026 A 
ATOM      4  C   UNL     1      -0.929   4.279  -1.169  0.00  0.00    +0.024 A 
ATOM      5  C   UNL     1      -0.695   5.642  -1.167  0.00  0.00    +0.063 A 
ATOM      6  C   UNL     1      -0.572   6.323   0.034  0.00  0.00    +0.176 A 
ATOM      7 BR   UNL     1      -0.543   6.577  -2.804  0.00  0.00    -0.046 Br
ENDROOT
BRANCH   1   8
ATOM      8  O   UNL     1      -0.564   6.295   2.417  0.00  0.00    -0.489 OA
BRANCH   8  10
ATOM      9  C   UNL     1      -0.527   6.433   4.830  0.00  0.00    +0.048 C 
ATOM     10  C   UNL     1      -0.690   5.521   3.612  0.00  0.00    +0.226 C 
ENDBRANCH   8  10
ENDBRANCH   1   8
BRANCH   6  11
ATOM     11  O   UNL     1      -0.342   7.664   0.037  0.00  0.00    -0.483 OA
BRANCH  11  12
ATOM     12  C   UNL     1      -1.488   8.518   0.046  0.00  0.00    +0.264 C 
BRANCH  12  13
ATOM     13  C   UNL     1      -1.041   9.957   0.049  0.00  0.00    -0.010 A 
ATOM     14  C   UNL     1      -0.836  10.615   1.247  0.00  0.00    +0.007 A 
ATOM     15  C   UNL     1      -0.421  11.934   1.249  0.00  0.00    +0.000 A 
ATOM     16  C   UNL     1      -0.222  12.598   0.053  0.00  0.00    +0.000 A 
ATOM     17  C   UNL     1      -0.433  11.942  -1.145  0.00  0.00    +0.000 A 
ATOM     18  C   UNL     1      -0.843  10.621  -1.147  0.00  0.00    +0.007 A 
ENDBRANCH  12  13
ENDBRANCH  11  12
ENDBRANCH   6  11
BRANCH   3  19
ATOM     19  C   UNL     1      -1.295   2.108   0.020  0.00  0.00    +0.137 C 
BRANCH  19  20
ATOM     20  N   UNL     1      -0.017   1.393   0.010  0.00  0.00    -0.340 N 
ATOM     21  H   UNL     1       0.817   1.889   0.004  0.00  0.00    +0.146 HD
BRANCH  20  22
ATOM     22  C   UNL     1       0.002  -0.004   0.002  0.00  0.00    +0.027 A 
ATOM     23  C   UNL     1      -1.190  -0.717   0.015  0.00  0.00    +0.025 A 
ATOM     24  C   UNL     1      -1.168  -2.097   0.003  0.00  0.00    +0.030 A 
ATOM     25  C   UNL     1       0.040  -2.771  -0.012  0.00  0.00    +0.105 A 
ATOM     26  C   UNL     1       1.229  -2.065  -0.020  0.00  0.00    +0.030 A 
ATOM     27  C   UNL     1       1.214  -0.684  -0.013  0.00  0.00    +0.025 A 
BRANCH  25  28
ATOM     28  S   UNL     1       0.064  -4.533  -0.022  0.00  0.00    +0.056 S 
ATOM     29  O   UNL     1      -1.182  -4.953  -0.563  0.00  0.00    -0.153 OA
ATOM     30  O   UNL     1       1.309  -4.919  -0.587  0.00  0.00    -0.153 OA
BRANCH  28  31
ATOM     31  N   UNL     1       0.086  -5.031   1.557  0.00  0.00    -0.204 NA
ATOM     32  H   UNL     1      -0.320  -5.876   1.805  0.00  0.00    +0.144 HD
ATOM     33  H   UNL     1       0.505  -4.477   2.235  0.00  0.00    +0.144 HD
ENDBRANCH  28  31
ENDBRANCH  25  28
ENDBRANCH  20  22
ENDBRANCH  19  20
ENDBRANCH   3  19
TORSDOF 10
