REMARK  Name = ZINC44879392
REMARK  6 active torsions:
REMARK  status: ('A' for Active; 'I' for Inactive)
REMARK    1  A    between atoms: C_1  and  C_2
REMARK    2  A    between atoms: C_2  and  C_3
REMARK    3  A    between atoms: C_2  and  C_4
REMARK    4  A    between atoms: C_4  and  C_6
REMARK    5  A    between atoms: C_4  and  C_10
REMARK    6  A    between atoms: N_7  and  O_8
REMARK                            x       y       z     vdW  Elec       q    Type
REMARK                         _______ _______ _______ _____ _____    ______ ____
ROOT
ATOM      1  C   UNL     1      -1.329  -0.515   0.087  0.00  0.00    +0.144 C 
ENDROOT
BRANCH   1   2
ATOM      2  C   UNL     1      -2.150   0.045  -1.046  0.00  0.00    +0.227 C 
ATOM      3  O   UNL     1      -2.795  -0.699  -1.754  0.00  0.00    -0.275 OA
ATOM      4  N   UNL     1      -2.168   1.374  -1.273  0.00  0.00    -0.293 N 
ATOM      5  C   UNL     1      -1.486   2.292  -0.349  0.00  0.00    +0.136 C 
ATOM      6  C   UNL     1      -0.602   3.223  -1.191  0.00  0.00    +0.179 C 
ATOM      7  O   UNL     1      -1.419   3.856  -2.175  0.00  0.00    -0.373 OA
ATOM      8  C   UNL     1      -2.005   2.982  -3.141  0.00  0.00    +0.139 C 
ATOM      9  C   UNL     1      -2.860   1.911  -2.440  0.00  0.00    +0.105 C 
ATOM     10  C   UNL     1      -4.144   2.648  -2.028  0.00  0.00    +0.025 C 
ATOM     11  C   UNL     1      -4.272   3.857  -2.973  0.00  0.00    +0.004 C 
ATOM     12  C   UNL     1      -3.069   3.802  -3.921  0.00  0.00    +0.033 C 
ENDBRANCH   1   2
BRANCH   1  13
ATOM     13  C   UNL     1      -2.198  -0.669   1.308  0.00  0.00    +0.144 C 
ATOM     14  N   UNL     1      -2.759  -1.805   1.562  0.00  0.00    -0.076 NA
ATOM     15  N   UNL     1      -2.394   0.400   2.154  0.00  0.00    -0.343 N 
ATOM     16  H   UNL     1      -1.973   1.252   1.963  0.00  0.00    +0.144 HD
ATOM     17  H   UNL     1      -2.954   0.300   2.940  0.00  0.00    +0.144 HD
BRANCH  14  18
ATOM     18  O   UNL     1      -3.576  -1.951   2.710  0.00  0.00    -0.408 OA
ATOM     19  H   UNL     1      -3.951  -2.836   2.816  0.00  0.00    +0.328 HD
ENDBRANCH  14  18
ENDBRANCH   1  13
BRANCH   1  21
ATOM     20  C   UNL     1       0.197  -1.708  -1.491  0.00  0.00    +0.008 C 
ATOM     21  C   UNL     1      -0.768  -1.880  -0.316  0.00  0.00    +0.002 C 
ATOM     22  C   UNL     1      -0.023  -2.495   0.870  0.00  0.00    +0.008 C 
ENDBRANCH   1  21
TORSDOF 4
