REMARK  Name = ZINC63541299
REMARK  9 active torsions:
REMARK  status: ('A' for Active; 'I' for Inactive)
REMARK    1  A    between atoms: C_1  and  C_2
REMARK    2  A    between atoms: C_5  and  N_9
REMARK    3  A    between atoms: C_7  and  C_8
REMARK    4  A    between atoms: C_10  and  C_12
REMARK    5  A    between atoms: C_12  and  S_13
REMARK    6  A    between atoms: S_13  and  C_14
REMARK    7  A    between atoms: N_25  and  C_26
REMARK    8  A    between atoms: C_26  and  C_27
REMARK    9  A    between atoms: C_27  and  C_28
REMARK                            x       y       z     vdW  Elec       q    Type
REMARK                         _______ _______ _______ _____ _____    ______ ____
ROOT
ATOM      1  C   UNL     1      -0.359  -8.743  -2.723  0.00  0.00    +0.223 C 
ATOM      2  N   UNL     1       0.850  -9.238  -2.055  0.00  0.00    -0.300 N 
ATOM      3  C   UNL     1       0.973  -9.071  -0.686  0.00  0.00    +0.151 A 
ATOM      4  C   UNL     1      -0.200  -9.044   0.090  0.00  0.00    +0.165 A 
ATOM      5  N   UNL     1      -0.118  -8.912   1.407  0.00  0.00    -0.246 NA
ATOM      6  C   UNL     1       1.066  -8.793   1.978  0.00  0.00    +0.131 A 
ATOM      7  C   UNL     1       2.222  -8.805   1.211  0.00  0.00    +0.132 A 
ATOM      8  N   UNL     1       2.154  -8.944  -0.103  0.00  0.00    -0.237 NA
ATOM      9  C   UNL     1      -1.503  -9.149  -0.597  0.00  0.00    +0.270 C 
ATOM     10  O   UNL     1      -2.526  -9.290   0.045  0.00  0.00    -0.268 OA
ATOM     11  N   UNL     1      -1.546  -9.088  -1.939  0.00  0.00    -0.268 N 
ATOM     12  H   UNL     1       1.551  -9.674  -2.564  0.00  0.00    +0.150 HD
ENDROOT
BRANCH   1  13
ATOM     13  S   UNL     1      -0.255  -6.941  -2.895  0.00  0.00    -0.110 S 
BRANCH  13  14
ATOM     14  C   UNL     1      -0.134  -6.343  -1.187  0.00  0.00    +0.168 C 
BRANCH  14  16
ATOM     15  N   UNL     1       0.059  -4.170  -0.021  0.00  0.00    -0.285 N 
ATOM     16  C   UNL     1      -0.040  -4.839  -1.187  0.00  0.00    +0.227 C 
ATOM     17  O   UNL     1      -0.054  -4.230  -2.236  0.00  0.00    -0.275 OA
ATOM     18  H   UNL     1       0.147  -4.658   0.812  0.00  0.00    +0.155 HD
BRANCH  15  23
ATOM     19  C   UNL     1      -0.041   1.502   0.014  0.00  0.00    +0.044 C 
ATOM     20  C   UNL     1      -0.015  -0.004   0.004  0.00  0.00    -0.047 A 
ATOM     21  C   UNL     1      -0.752  -0.702  -0.935  0.00  0.00    +0.005 A 
ATOM     22  C   UNL     1      -0.730  -2.082  -0.946  0.00  0.00    +0.023 A 
ATOM     23  C   UNL     1       0.034  -2.771  -0.013  0.00  0.00    +0.034 A 
ATOM     24  C   UNL     1       0.773  -2.068   0.929  0.00  0.00    +0.027 A 
ATOM     25  C   UNL     1       0.751  -0.686   0.932  0.00  0.00    -0.046 A 
ATOM     26  C   UNL     1       1.557   0.078   1.950  0.00  0.00    +0.044 C 
ENDBRANCH  15  23
ENDBRANCH  14  16
ENDBRANCH  13  14
ENDBRANCH   1  13
BRANCH  11  27
ATOM     27  C   UNL     1      -2.807  -9.369  -2.628  0.00  0.00    +0.115 C 
BRANCH  27  28
ATOM     28  C   UNL     1      -2.893 -10.864  -2.945  0.00  0.00    +0.052 C 
BRANCH  28  29
ATOM     29  C   UNL     1      -4.191 -11.153  -3.654  0.00  0.00    -0.040 C 
ATOM     30  C   UNL     1      -4.387 -11.233  -4.990  0.00  0.00    -0.001 A 
ATOM     31  C   UNL     1      -3.487 -11.077  -6.138  0.00  0.00    +0.010 A 
ATOM     32  C   UNL     1      -3.987 -11.216  -7.387  0.00  0.00    +0.001 A 
ATOM     33  C   UNL     1      -5.340 -11.504  -7.612  0.00  0.00    +0.002 A 
ATOM     34  C   UNL     1      -6.229 -11.661  -6.607  0.00  0.00    +0.026 A 
ATOM     35  C   UNL     1      -5.812 -11.537  -5.253  0.00  0.00    +0.043 A 
ATOM     36  N   UNL     1      -6.470 -11.641  -4.124  0.00  0.00    -0.380 N 
ATOM     37  C   UNL     1      -5.535 -11.421  -3.015  0.00  0.00    +0.144 C 
ATOM     38  H   UNL     1      -7.417 -11.836  -4.037  0.00  0.00    +0.160 HD
ENDBRANCH  28  29
ENDBRANCH  27  28
ENDBRANCH  11  27
TORSDOF 7
