REMARK  Name = ZINC45295919
REMARK  9 active torsions:
REMARK  status: ('A' for Active; 'I' for Inactive)
REMARK    1  A    between atoms: C_1  and  C_2
REMARK    2  A    between atoms: C_2  and  C_15
REMARK    3  A    between atoms: N_3  and  N_4
REMARK    4  A    between atoms: N_4  and  C_5
REMARK    5  A    between atoms: C_5  and  N_7
REMARK    6  A    between atoms: N_7  and  C_8
REMARK    7  A    between atoms: C_8  and  C_9
REMARK    8  A    between atoms: C_18  and  S_21
REMARK    9  A    between atoms: S_21  and  N_24
REMARK                            x       y       z     vdW  Elec       q    Type
REMARK                         _______ _______ _______ _____ _____    ______ ____
ROOT
ATOM      1  C   UNL     1      -0.018   1.503   0.010  0.00  0.00    +0.068 C 
ATOM      2  C   UNL     1       0.002  -0.004   0.002  0.00  0.00    +0.063 C 
ATOM      3  N   UNL     1       0.022  -0.659   1.122  0.00  0.00    -0.185 NA
ENDROOT
BRANCH   2   4
ATOM      4  C   UNL     1      -0.000  -0.735  -1.279  0.00  0.00    -0.002 A 
ATOM      5  C   UNL     1      -0.015  -0.033  -2.487  0.00  0.00    +0.011 A 
ATOM      6  C   UNL     1      -0.017  -0.723  -3.682  0.00  0.00    +0.029 A 
ATOM      7  C   UNL     1      -0.004  -2.106  -3.685  0.00  0.00    +0.105 A 
ATOM      8  C   UNL     1       0.011  -2.808  -2.493  0.00  0.00    +0.029 A 
ATOM      9  C   UNL     1       0.019  -2.131  -1.291  0.00  0.00    +0.011 A 
BRANCH   7  10
ATOM     10  S   UNL     1      -0.008  -2.979  -5.216  0.00  0.00    +0.056 S 
ATOM     11  O   UNL     1      -0.544  -4.267  -4.948  0.00  0.00    -0.153 OA
ATOM     12  O   UNL     1      -0.574  -2.103  -6.181  0.00  0.00    -0.153 OA
BRANCH  10  13
ATOM     13  N   UNL     1       1.573  -3.207  -5.653  0.00  0.00    -0.204 NA
ATOM     14  H   UNL     1       2.286  -2.873  -5.086  0.00  0.00    +0.144 HD
ATOM     15  H   UNL     1       1.786  -3.673  -6.476  0.00  0.00    +0.144 HD
ENDBRANCH  10  13
ENDBRANCH   7  10
ENDBRANCH   2   4
BRANCH   3  16
ATOM     16  N   UNL     1       0.024   0.035   2.339  0.00  0.00    -0.218 N 
ATOM     17  H   UNL     1       0.011   1.005   2.345  0.00  0.00    +0.176 HD
BRANCH  16  18
ATOM     18  C   UNL     1       0.044  -0.645   3.503  0.00  0.00    +0.150 C 
ATOM     19  S   UNL     1       0.046   0.203   4.990  0.00  0.00    -0.017 S 
BRANCH  18  20
ATOM     20  N   UNL     1       0.062  -1.993   3.495  0.00  0.00    -0.321 N 
ATOM     21  H   UNL     1       0.061  -2.473   2.653  0.00  0.00    +0.148 HD
BRANCH  20  22
ATOM     22  C   UNL     1       0.084  -2.732   4.760  0.00  0.00    +0.138 C 
BRANCH  22  23
ATOM     23  C   UNL     1       0.102  -4.212   4.476  0.00  0.00    -0.030 A 
ATOM     24  C   UNL     1      -1.087  -4.906   4.352  0.00  0.00    +0.005 A 
ATOM     25  C   UNL     1      -1.071  -6.263   4.092  0.00  0.00    +0.000 A 
ATOM     26  C   UNL     1       0.134  -6.927   3.956  0.00  0.00    +0.000 A 
ATOM     27  C   UNL     1       1.323  -6.233   4.079  0.00  0.00    +0.000 A 
ATOM     28  C   UNL     1       1.307  -4.874   4.335  0.00  0.00    +0.005 A 
ENDBRANCH  22  23
ENDBRANCH  20  22
ENDBRANCH  18  20
ENDBRANCH  16  18
ENDBRANCH   3  16
TORSDOF 8
