REMARK  Name = ZINC22787543
REMARK  10 active torsions:
REMARK  status: ('A' for Active; 'I' for Inactive)
REMARK    1  A    between atoms: C_1  and  C_2
REMARK    2  A    between atoms: C_5  and  C_8
REMARK    3  A    between atoms: C_8  and  C_10
REMARK    4  A    between atoms: C_8  and  N_17
REMARK    5  A    between atoms: C_10  and  N_11
REMARK    6  A    between atoms: N_17  and  C_18
REMARK    7  A    between atoms: C_18  and  C_19
REMARK    8  A    between atoms: C_21  and  C_27
REMARK    9  A    between atoms: C_22  and  O_26
REMARK   10  A    between atoms: C_23  and  C_25
REMARK                            x       y       z     vdW  Elec       q    Type
REMARK                         _______ _______ _______ _____ _____    ______ ____
ROOT
ATOM      1  C   UNL     1       1.026  -4.176  -1.701  0.00  0.00    -0.026 C 
ENDROOT
BRANCH   1   6
ATOM      2  C   UNL     1      -0.569  -6.383  -6.798  0.00  0.00    +0.044 C 
ATOM      3  C   UNL     1      -0.152  -5.808  -5.469  0.00  0.00    -0.050 A 
ATOM      4  C   UNL     1      -0.678  -6.321  -4.298  0.00  0.00    +0.003 A 
ATOM      5  C   UNL     1      -0.297  -5.793  -3.079  0.00  0.00    +0.002 A 
ATOM      6  C   UNL     1       0.610  -4.752  -3.030  0.00  0.00    -0.060 A 
ATOM      7  C   UNL     1       1.132  -4.234  -4.201  0.00  0.00    +0.002 A 
ATOM      8  C   UNL     1       0.755  -4.766  -5.420  0.00  0.00    +0.003 A 
ENDBRANCH   1   6
BRANCH   1   9
ATOM      9  N   UNL     1       1.126  -2.714  -1.810  0.00  0.00    +0.387 N 
ATOM     10  H   UNL     1       2.119  -2.443  -2.198  0.00  0.00    -0.085 HD
ATOM     11  H   UNL     1       0.351  -2.344  -2.497  0.00  0.00    -0.085 HD
BRANCH   9  12
ATOM     12  C   UNL     1       0.941  -2.074  -0.501  0.00  0.00    -0.046 C 
BRANCH  12  13
ATOM     13  C   UNL     1       0.962  -0.577  -0.667  0.00  0.00    -0.064 A 
ATOM     14  C   UNL     1      -0.199   0.098  -0.994  0.00  0.00    +0.008 A 
ATOM     15  C   UNL     1      -0.182   1.471  -1.146  0.00  0.00    -0.009 A 
ATOM     16  C   UNL     1       1.002   2.173  -0.970  0.00  0.00    +0.123 A 
ATOM     17  C   UNL     1       2.166   1.494  -0.641  0.00  0.00    -0.009 A 
ATOM     18  C   UNL     1       2.143   0.120  -0.491  0.00  0.00    +0.008 A 
ATOM     19  C   UNL     1       3.453   2.253  -0.449  0.00  0.00    +0.047 C 
ATOM     20  C   UNL     1      -1.447   2.206  -1.509  0.00  0.00    +0.047 C 
BRANCH  16  21
ATOM     21  O   UNL     1       1.021   3.524  -1.118  0.00  0.00    -0.506 OA
ATOM     22  H   UNL     1       1.960   4.079  -0.978  0.00  0.00    +0.292 HD
ENDBRANCH  16  21
ENDBRANCH  12  13
ENDBRANCH   9  12
ENDBRANCH   1   9
BRANCH   1  23
ATOM     23  C   UNL     1       2.385  -4.752  -1.298  0.00  0.00    +0.073 C 
BRANCH  23  24
ATOM     24  N   UNL     1       2.261  -6.201  -1.094  0.00  0.00    -0.299 NA
ATOM     25  C   UNL     1       1.517  -6.499   0.138  0.00  0.00    +0.112 C 
ATOM     26  C   UNL     1       1.361  -8.015   0.280  0.00  0.00    +0.175 C 
ATOM     27  O   UNL     1       2.654  -8.626   0.267  0.00  0.00    -0.377 OA
ATOM     28  C   UNL     1       3.405  -8.358  -0.919  0.00  0.00    +0.175 C 
ATOM     29  C   UNL     1       3.583  -6.845  -1.073  0.00  0.00    +0.112 C 
ENDBRANCH  23  24
ENDBRANCH   1  23
TORSDOF 7
