REMARK  Name = ZINC16577785
REMARK  13 active torsions:
REMARK  status: ('A' for Active; 'I' for Inactive)
REMARK    1  A    between atoms: C_1  and  C_2
REMARK    2  A    between atoms: C_2  and  N_26
REMARK    3  A    between atoms: C_4  and  N_15
REMARK    4  A    between atoms: C_10  and  O_13
REMARK    5  A    between atoms: O_13  and  C_14
REMARK    6  A    between atoms: C_16  and  C_17
REMARK    7  A    between atoms: C_21  and  O_24
REMARK    8  A    between atoms: C_22  and  O_23
REMARK    9  A    between atoms: O_24  and  C_25
REMARK   10  A    between atoms: C_27  and  C_28
REMARK   11  A    between atoms: C_32  and  O_35
REMARK   12  A    between atoms: C_33  and  O_34
REMARK   13  A    between atoms: O_35  and  C_36
REMARK                            x       y       z     vdW  Elec       q    Type
REMARK                         _______ _______ _______ _____ _____    ______ ____
ROOT
ATOM      1  C   UNL     1      -0.012   1.524   0.018  0.00  0.00    +0.083 C 
ATOM      2  C   UNL     1       0.018  -0.005   0.018  0.00  0.00    +0.201 C 
ATOM      3  C   UNL     1       0.756  -0.508  -1.229  0.00  0.00    +0.102 C 
ATOM      4  C   UNL     1       2.142   0.141  -1.261  0.00  0.00    +0.118 C 
ATOM      5  C   UNL     1       2.798   0.004   0.089  0.00  0.00    +0.020 A 
ATOM      6  C   UNL     1       4.170   0.175   0.184  0.00  0.00    +0.009 A 
ATOM      7  C   UNL     1       4.807   0.061   1.404  0.00  0.00    +0.004 A 
ATOM      8  C   UNL     1       4.075  -0.224   2.542  0.00  0.00    +0.049 A 
ATOM      9  C   UNL     1       2.705  -0.397   2.455  0.00  0.00    +0.162 A 
ATOM     10  C   UNL     1       2.061  -0.285   1.222  0.00  0.00    +0.170 A 
ATOM     11  O   UNL     1       0.716  -0.472   1.173  0.00  0.00    -0.461 OA
ENDROOT
BRANCH   4  12
ATOM     12  N   UNL     1       2.968  -0.524  -2.273  0.00  0.00    -0.383 N 
ATOM     13  C   UNL     1       3.448   0.155  -3.264  0.00  0.00    +0.090 C 
ATOM     14  H   UNL     1       3.154  -1.473  -2.199  0.00  0.00    +0.160 HD
BRANCH  13  15
ATOM     15  C   UNL     1       4.368  -0.487  -4.220  0.00  0.00    +0.036 A 
ATOM     16  C   UNL     1       4.980   0.271  -5.223  0.00  0.00    +0.013 A 
ATOM     17  C   UNL     1       5.840  -0.332  -6.114  0.00  0.00    +0.004 A 
ATOM     18  C   UNL     1       6.103  -1.689  -6.023  0.00  0.00    +0.049 A 
ATOM     19  C   UNL     1       5.505  -2.453  -5.035  0.00  0.00    +0.162 A 
ATOM     20  C   UNL     1       4.638  -1.857  -4.124  0.00  0.00    +0.167 A 
BRANCH  20  21
ATOM     21  O   UNL     1       4.054  -2.602  -3.151  0.00  0.00    -0.503 OA
ATOM     22  H   UNL     1       3.206  -2.989  -3.407  0.00  0.00    +0.292 HD
ENDBRANCH  20  21
BRANCH  19  23
ATOM     23  O   UNL     1       5.768  -3.785  -4.952  0.00  0.00    -0.491 OA
ATOM     24  C   UNL     1       6.671  -4.329  -5.917  0.00  0.00    +0.277 C 
ENDBRANCH  19  23
ENDBRANCH  13  15
ENDBRANCH   4  12
BRANCH   9  25
ATOM     25  O   UNL     1       1.984  -0.678   3.574  0.00  0.00    -0.491 OA
ATOM     26  C   UNL     1       2.707  -0.779   4.803  0.00  0.00    +0.277 C 
ENDBRANCH   9  25
BRANCH   2  27
ATOM     27  N   UNL     1      -1.352  -0.526   0.025  0.00  0.00    -0.246 NA
ATOM     28  C   UNL     1      -2.151  -0.231   1.000  0.00  0.00    +0.121 C 
BRANCH  28  29
ATOM     29  C   UNL     1      -3.529  -0.755   1.007  0.00  0.00    +0.038 A 
ATOM     30  C   UNL     1      -4.397  -0.434   2.055  0.00  0.00    +0.013 A 
ATOM     31  C   UNL     1      -5.684  -0.925   2.058  0.00  0.00    +0.004 A 
ATOM     32  C   UNL     1      -6.126  -1.737   1.026  0.00  0.00    +0.049 A 
ATOM     33  C   UNL     1      -5.278  -2.063  -0.019  0.00  0.00    +0.162 A 
ATOM     34  C   UNL     1      -3.977  -1.571  -0.039  0.00  0.00    +0.167 A 
BRANCH  34  35
ATOM     35  O   UNL     1      -3.144  -1.884  -1.065  0.00  0.00    -0.503 OA
ATOM     36  H   UNL     1      -2.629  -2.690  -0.921  0.00  0.00    +0.292 HD
ENDBRANCH  34  35
BRANCH  33  37
ATOM     37  O   UNL     1      -5.718  -2.861  -1.028  0.00  0.00    -0.491 OA
ATOM     38  C   UNL     1      -7.067  -3.326  -0.946  0.00  0.00    +0.277 C 
ENDBRANCH  33  37
ENDBRANCH  28  29
ENDBRANCH   2  27
TORSDOF 9
