REMARK  Name = ZINC22107293
REMARK  10 active torsions:
REMARK  status: ('A' for Active; 'I' for Inactive)
REMARK    1  A    between atoms: C_1  and  O_2
REMARK    2  A    between atoms: O_2  and  C_3
REMARK    3  A    between atoms: C_6  and  C_10
REMARK    4  A    between atoms: C_13  and  C_15
REMARK    5  A    between atoms: C_15  and  N_16
REMARK    6  A    between atoms: N_16  and  C_17
REMARK    7  A    between atoms: C_17  and  C_18
REMARK    8  A    between atoms: C_18  and  N_19
REMARK    9  A    between atoms: N_19  and  C_20
REMARK   10  A    between atoms: C_23  and  N_27
REMARK                            x       y       z     vdW  Elec       q    Type
REMARK                         _______ _______ _______ _____ _____    ______ ____
ROOT
ATOM      1  N   UNL     1      -4.933   1.550   0.034  0.00  0.00    +0.385 N 
ATOM      2  H   UNL     1      -4.963   0.911   0.929  0.00  0.00    -0.085 HD
ATOM      3  H   UNL     1      -4.971   0.921  -0.868  0.00  0.00    -0.085 HD
ENDROOT
BRANCH   1   4
ATOM      4  C   UNL     1      -6.086   2.461   0.044  0.00  0.00    -0.007 C 
BRANCH   4   8
ATOM      5  C   UNL     1      -9.121   0.554  -0.666  0.00  0.00    +0.135 A 
ATOM      6  C   UNL     1      -9.152   0.522   0.692  0.00  0.00    +0.050 A 
ATOM      7  C   UNL     1      -8.020   1.232   1.141  0.00  0.00    +0.043 A 
ATOM      8  C   UNL     1      -7.361   1.657   0.046  0.00  0.00    +0.089 A 
ATOM      9  O   UNL     1      -8.032   1.250  -1.044  0.00  0.00    -0.462 OA
BRANCH   5  13
ATOM     10  C   UNL     1     -11.972  -1.222  -3.270  0.00  0.00    +0.138 A 
ATOM     11  C   UNL     1     -10.887  -0.533  -3.796  0.00  0.00    +0.048 A 
ATOM     12  C   UNL     1      -9.960   0.044  -2.955  0.00  0.00    +0.015 A 
ATOM     13  C   UNL     1     -10.113  -0.064  -1.571  0.00  0.00    +0.019 A 
ATOM     14  C   UNL     1     -11.201  -0.761  -1.045  0.00  0.00    +0.035 A 
ATOM     15  C   UNL     1     -12.128  -1.331  -1.893  0.00  0.00    +0.083 A 
ATOM     16 CL   UNL     1     -13.486  -2.194  -1.241  0.00  0.00    -0.080 Cl
BRANCH  10  18
ATOM     17  C   UNL     1     -12.662  -1.639  -5.506  0.00  0.00    +0.277 C 
ATOM     18  O   UNL     1     -12.883  -1.790  -4.102  0.00  0.00    -0.494 OA
ENDBRANCH  10  18
ENDBRANCH   5  13
ENDBRANCH   4   8
ENDBRANCH   1   4
BRANCH   1  19
ATOM     19  C   UNL     1      -3.670   2.300   0.032  0.00  0.00    -0.063 C 
BRANCH  19  20
ATOM     20  C   UNL     1      -2.495   1.321   0.021  0.00  0.00    +0.082 C 
BRANCH  20  21
ATOM     21  N   UNL     1      -1.236   2.068   0.019  0.00  0.00    -0.345 N 
ATOM     22  H   UNL     1      -1.249   3.168   0.025  0.00  0.00    +0.146 HD
BRANCH  21  23
ATOM     23  C   UNL     1      -0.017   1.385   0.010  0.00  0.00    +0.046 A 
ATOM     24  C   UNL     1       0.002  -0.004   0.002  0.00  0.00    +0.026 A 
ATOM     25  C   UNL     1       1.208  -0.677  -0.013  0.00  0.00    +0.034 A 
ATOM     26  C   UNL     1       2.397   0.030  -0.021  0.00  0.00    +0.128 A 
ATOM     27  C   UNL     1       2.382   1.413  -0.014  0.00  0.00    +0.054 A 
ATOM     28  C   UNL     1       1.179   2.093   0.002  0.00  0.00    +0.064 A 
ATOM     29 CL   UNL     1       1.162   3.829   0.011  0.00  0.00    -0.082 Cl
BRANCH  26  30
ATOM     30  N   UNL     1       3.687  -0.695  -0.038  0.00  0.00    +0.056 N 
ATOM     31  O   UNL     1       3.701  -1.913  -0.045  0.00  0.00    -0.126 OA
ATOM     32  O   UNL     1       4.734  -0.074  -0.045  0.00  0.00    -0.126 OA
ENDBRANCH  26  30
ENDBRANCH  21  23
ENDBRANCH  20  21
ENDBRANCH  19  20
ENDBRANCH   1  19
TORSDOF 9
