REMARK  Name = ZINC39612395
REMARK  7 active torsions:
REMARK  status: ('A' for Active; 'I' for Inactive)
REMARK    1  A    between atoms: C_7  and  C_10
REMARK    2  A    between atoms: C_13  and  S_16
REMARK    3  A    between atoms: S_16  and  C_17
REMARK    4  A    between atoms: C_17  and  C_18
REMARK    5  A    between atoms: N_20  and  C_21
REMARK    6  A    between atoms: C_24  and  S_27
REMARK    7  A    between atoms: S_27  and  N_30
REMARK                            x       y       z     vdW  Elec       q    Type
REMARK                         _______ _______ _______ _____ _____    ______ ____
ROOT
ATOM      1  C   UNL     1      -0.092  -5.819  -4.190  0.00  0.00    +0.227 C 
ATOM      2  O   UNL     1      -0.194  -7.027  -4.205  0.00  0.00    -0.275 OA
ATOM      3  N   UNL     1      -0.011  -5.134  -5.348  0.00  0.00    -0.285 N 
ATOM      4  H   UNL     1       0.003  -4.164  -5.338  0.00  0.00    +0.155 HD
ENDROOT
BRANCH   3   5
ATOM      5  C   UNL     1       0.054  -5.823  -6.564  0.00  0.00    +0.034 A 
ATOM      6  C   UNL     1       0.822  -5.322  -7.607  0.00  0.00    +0.025 A 
ATOM      7  C   UNL     1       0.884  -6.004  -8.807  0.00  0.00    +0.030 A 
ATOM      8  C   UNL     1       0.181  -7.184  -8.970  0.00  0.00    +0.106 A 
ATOM      9  C   UNL     1      -0.585  -7.685  -7.933  0.00  0.00    +0.030 A 
ATOM     10  C   UNL     1      -0.646  -7.011  -6.729  0.00  0.00    +0.025 A 
BRANCH   8  11
ATOM     11  S   UNL     1       0.263  -8.051 -10.502  0.00  0.00    +0.061 S 
ATOM     12  O   UNL     1      -0.916  -8.840 -10.585  0.00  0.00    -0.153 OA
ATOM     13  O   UNL     1       0.610  -7.094 -11.492  0.00  0.00    -0.153 OA
BRANCH  11  14
ATOM     14  N   UNL     1       1.534  -9.108 -10.399  0.00  0.00    -0.177 NA
ATOM     15  C   UNL     1       2.884  -8.697 -10.808  0.00  0.00    +0.109 C 
ATOM     16  C   UNL     1       3.853  -8.974  -9.654  0.00  0.00    +0.017 C 
ATOM     17  C   UNL     1       3.742 -10.443  -9.240  0.00  0.00    +0.003 C 
ATOM     18  C   UNL     1       2.319 -10.731  -8.755  0.00  0.00    +0.017 C 
ATOM     19  C   UNL     1       1.333 -10.473  -9.892  0.00  0.00    +0.109 C 
ENDBRANCH  11  14
ENDBRANCH   8  11
ENDBRANCH   3   5
BRANCH   1  20
ATOM     20  C   UNL     1      -0.057  -5.082  -2.875  0.00  0.00    +0.170 C 
BRANCH  20  21
ATOM     21  S   UNL     1      -0.185  -6.272  -1.512  0.00  0.00    -0.087 S 
BRANCH  21  25
ATOM     22  C   UNL     1       0.648  -3.122  -0.020  0.00  0.00    +0.238 C 
ATOM     23  N   UNL     1      -0.654  -3.011  -0.016  0.00  0.00    -0.145 NA
ATOM     24  N   UNL     1      -1.247  -4.282  -0.017  0.00  0.00    -0.219 N 
ATOM     25  C   UNL     1      -0.128  -5.239  -0.022  0.00  0.00    +0.339 C 
ATOM     26  O   UNL     1       1.048  -4.418  -0.029  0.00  0.00    -0.443 OA
ATOM     27  H   UNL     1      -2.195  -4.487  -0.014  0.00  0.00    +0.173 HD
BRANCH  22  34
ATOM     28  C   UNL     1      -0.075   1.356   0.006  0.00  0.00    +0.001 A 
ATOM     29  C   UNL     1       1.099   2.112   0.002  0.00  0.00    +0.002 A 
ATOM     30  C   UNL     1       2.324   1.530  -0.010  0.00  0.00    +0.026 A 
ATOM     31  C   UNL     1       2.433   0.115  -0.018  0.00  0.00    +0.043 A 
ATOM     32  N   UNL     1       3.486  -0.678  -0.029  0.00  0.00    -0.380 N 
ATOM     33  C   UNL     1       3.040  -2.075  -0.033  0.00  0.00    +0.154 C 
ATOM     34  C   UNL     1       1.528  -2.031  -0.021  0.00  0.00    +0.043 C 
ATOM     35  C   UNL     1       1.192  -0.676  -0.012  0.00  0.00    +0.008 A 
ATOM     36  C   UNL     1      -0.048  -0.002  -0.000  0.00  0.00    +0.010 A 
ATOM     37  H   UNL     1       4.410  -0.384  -0.035  0.00  0.00    +0.160 HD
ENDBRANCH  22  34
ENDBRANCH  21  25
ENDBRANCH  20  21
ENDBRANCH   1  20
TORSDOF 7
