REMARK  Name = ZINC65526670
REMARK  3 active torsions:
REMARK  status: ('A' for Active; 'I' for Inactive)
REMARK    1  A    between atoms: C_1  and  C_2
REMARK    2  A    between atoms: C_11  and  C_18
REMARK    3  A    between atoms: C_22  and  N_24
REMARK                            x       y       z     vdW  Elec       q    Type
REMARK                         _______ _______ _______ _____ _____    ______ ____
ROOT
ATOM      1  C   UNL     1      -0.018   1.503   0.010  0.00  0.00    +0.045 C 
ATOM      2  C   UNL     1       0.002  -0.004   0.002  0.00  0.00    -0.034 A 
ATOM      3  C   UNL     1       0.006  -0.697  -1.220  0.00  0.00    +0.008 A 
ATOM      4  C   UNL     1       0.024  -2.057  -1.225  0.00  0.00    +0.047 A 
ATOM      5  C   UNL     1       0.038  -2.750   0.003  0.00  0.00    +0.138 A 
ATOM      6  N   UNL     1       0.053  -4.037   0.304  0.00  0.00    -0.231 NA
ATOM      7  C   UNL     1       0.056  -4.183   1.641  0.00  0.00    +0.081 A 
ATOM      8  C   UNL     1       0.056  -2.964   2.202  0.00  0.00    +0.056 A 
ATOM      9  N   UNL     1       0.036  -2.047   1.176  0.00  0.00    -0.302 N 
ATOM     10  C   UNL     1       0.022  -0.682   1.169  0.00  0.00    +0.096 A 
ATOM     11  C   UNL     1       0.088  -2.567   3.654  0.00  0.00    +0.077 C 
ATOM     12  C   UNL     1       0.395  -3.744   4.561  0.00  0.00    +0.110 C 
ATOM     13  C   UNL     1      -0.686  -4.775   4.503  0.00  0.00    +0.214 C 
ATOM     14  O   UNL     1      -1.409  -4.914   5.467  0.00  0.00    -0.276 OA
ATOM     15  N   UNL     1      -0.889  -5.546   3.440  0.00  0.00    -0.310 N 
ATOM     16  C   UNL     1       0.045  -5.527   2.318  0.00  0.00    +0.161 C 
ATOM     17  H   UNL     1      -1.666  -6.127   3.409  0.00  0.00    +0.149 HD
ENDROOT
BRANCH  11  18
ATOM     18  C   UNL     1       1.145  -1.511   3.850  0.00  0.00    -0.036 A 
ATOM     19  C   UNL     1       2.463  -1.787   3.538  0.00  0.00    +0.004 A 
ATOM     20  C   UNL     1       3.436  -0.821   3.716  0.00  0.00    +0.002 A 
ATOM     21  C   UNL     1       3.093   0.424   4.207  0.00  0.00    +0.028 A 
ATOM     22  C   UNL     1       1.770   0.704   4.522  0.00  0.00    +0.066 A 
ATOM     23  C   UNL     1       0.795  -0.267   4.337  0.00  0.00    +0.032 A 
BRANCH  22  24
ATOM     24  N   UNL     1       1.419   1.966   5.020  0.00  0.00    -0.240 N 
ATOM     25  C   UNL     1       2.245   3.029   5.149  0.00  0.00    +0.114 A 
ATOM     26  C   UNL     1       1.524   4.051   5.666  0.00  0.00    +0.041 A 
ATOM     27  C   UNL     1       0.214   3.599   5.860  0.00  0.00    +0.135 A 
ATOM     28  N   UNL     1       0.149   2.352   5.468  0.00  0.00    -0.175 NA
ENDBRANCH  22  24
ENDBRANCH  11  18
TORSDOF 2
