REMARK  Name = ZINC44714630
REMARK  7 active torsions:
REMARK  status: ('A' for Active; 'I' for Inactive)
REMARK    1  A    between atoms: C_1  and  C_2
REMARK    2  A    between atoms: C_3  and  C_14
REMARK    3  A    between atoms: C_6  and  C_12
REMARK    4  A    between atoms: C_14  and  C_15
REMARK    5  A    between atoms: C_15  and  N_16
REMARK    6  A    between atoms: C_17  and  C_19
REMARK    7  A    between atoms: C_30  and  C_32
REMARK                            x       y       z     vdW  Elec       q    Type
REMARK                         _______ _______ _______ _____ _____    ______ ____
ROOT
ATOM      1  C   UNL     1       2.563   1.089  -6.477  0.00  0.00    +0.100 C 
ATOM      2  C   UNL     1       2.030  -0.017  -7.415  0.00  0.00    +0.121 C 
ATOM      3  N   UNL     1       2.846   0.111  -8.646  0.00  0.00    -0.300 N 
ATOM      4  C   UNL     1       4.213   0.406  -8.153  0.00  0.00    +0.115 C 
ATOM      5  C   UNL     1       3.996   1.363  -6.964  0.00  0.00    -0.004 C 
ATOM      6  C   UNL     1       4.130   2.812  -7.422  0.00  0.00    -0.010 C 
ATOM      7  C   UNL     1       5.577   3.076  -7.848  0.00  0.00    -0.082 C 
ATOM      8  N   UNL     1       6.477   2.814  -6.718  0.00  0.00    +0.379 N 
ATOM      9  C   UNL     1       6.410   1.396  -6.343  0.00  0.00    -0.082 C 
ATOM     10  C   UNL     1       4.998   1.061  -5.854  0.00  0.00    -0.010 C 
ATOM     11  C   UNL     1       2.438  -0.014  -9.924  0.00  0.00    +0.219 C 
ATOM     12  O   UNL     1       3.233   0.119 -10.830  0.00  0.00    -0.275 OA
ATOM     13  H   UNL     1       7.423   3.046  -6.982  0.00  0.00    -0.086 HD
ATOM     14  H   UNL     1       6.201   3.381  -5.931  0.00  0.00    -0.086 HD
ENDROOT
BRANCH  11  15
ATOM     15  C   UNL     1       0.994  -0.319 -10.228  0.00  0.00    +0.079 C 
ATOM     16  C   UNL     1       0.796  -0.419 -11.746  0.00  0.00    +0.017 C 
ATOM     17  C   UNL     1      -0.702  -0.550 -12.031  0.00  0.00    +0.027 C 
ATOM     18  C   UNL     1      -1.300  -1.622 -11.169  0.00  0.00    -0.031 C 
ATOM     19  C   UNL     1      -0.733  -2.102 -10.109  0.00  0.00    -0.030 C 
ATOM     20  C   UNL     1       0.606  -1.657  -9.595  0.00  0.00    +0.039 C 
ENDBRANCH  11  15
BRANCH   1  22
ATOM     21  N   UNL     1       2.439   1.484  -4.038  0.00  0.00    -0.315 N 
ATOM     22  C   UNL     1       2.577   0.605  -5.050  0.00  0.00    +0.218 C 
ATOM     23  O   UNL     1       2.713  -0.577  -4.812  0.00  0.00    -0.275 OA
ATOM     24  H   UNL     1       2.330   2.429  -4.229  0.00  0.00    +0.149 HD
BRANCH  21  25
ATOM     25  C   UNL     1       2.453   1.013  -2.651  0.00  0.00    +0.109 C 
BRANCH  25  26
ATOM     26  C   UNL     1       2.278   2.204  -1.706  0.00  0.00    +0.056 C 
BRANCH  26  29
ATOM     27  C   UNL     1       4.784   1.918   0.103  0.00  0.00    +0.063 C 
ATOM     28  C   UNL     1       3.370   1.593   0.510  0.00  0.00    +0.017 A 
ATOM     29  C   UNL     1       2.293   1.719  -0.280  0.00  0.00    -0.018 A 
ATOM     30  C   UNL     1       1.133   1.297   0.510  0.00  0.00    +0.004 A 
ATOM     31  C   UNL     1      -0.233   1.205   0.250  0.00  0.00    +0.029 A 
ATOM     32  C   UNL     1      -1.090   0.752   1.248  0.00  0.00    +0.052 A 
ATOM     33  C   UNL     1      -0.578   0.393   2.503  0.00  0.00    +0.021 A 
ATOM     34  C   UNL     1       0.758   0.482   2.760  0.00  0.00    +0.027 A 
ATOM     35  C   UNL     1       1.634   0.933   1.775  0.00  0.00    +0.047 A 
ATOM     36  N   UNL     1       2.996   1.120   1.739  0.00  0.00    -0.358 N 
ATOM     37  H   UNL     1       3.602   0.944   2.476  0.00  0.00    +0.166 HD
BRANCH  32  38
ATOM     38  C   UNL     1      -2.496   0.653   0.994  0.00  0.00    +0.099 C 
ATOM     39  N   UNL     1      -3.611   0.575   0.793  0.00  0.00    -0.191 NA
ENDBRANCH  32  38
ENDBRANCH  26  29
ENDBRANCH  25  26
ENDBRANCH  21  25
ENDBRANCH   1  22
TORSDOF 6
