REMARK  Name = ZINC62831906
REMARK  5 active torsions:
REMARK  status: ('A' for Active; 'I' for Inactive)
REMARK    1  A    between atoms: C_1  and  C_2
REMARK    2  A    between atoms: C_2  and  C_20
REMARK    3  A    between atoms: N_6  and  C_10
REMARK    4  A    between atoms: C_12  and  N_19
REMARK    5  A    between atoms: C_15  and  C_16
REMARK                            x       y       z     vdW  Elec       q    Type
REMARK                         _______ _______ _______ _____ _____    ______ ____
ROOT
ATOM      1  C   UNL     1       0.952  -3.982  -0.065  0.00  0.00    +0.060 A 
ATOM      2  C   UNL     1      -0.188  -4.760  -0.175  0.00  0.00    +0.047 A 
ATOM      3  C   UNL     1      -0.081  -6.146  -0.191  0.00  0.00    +0.026 A 
ATOM      4  C   UNL     1       1.169  -6.755  -0.095  0.00  0.00    +0.023 A 
ATOM      5  C   UNL     1       2.299  -5.999   0.014  0.00  0.00    +0.019 A 
ATOM      6  C   UNL     1       2.211  -4.601   0.025  0.00  0.00    +0.085 A 
ENDROOT
BRANCH   1  12
ATOM      7  C   UNL     1      -0.021   1.599  -0.059  0.00  0.00    +0.012 C 
ATOM      8  C   UNL     1      -0.019   0.069  -0.088  0.00  0.00    -0.018 C 
ATOM      9  C   UNL     1       0.838  -0.422  -1.259  0.00  0.00    +0.103 C 
ATOM     10  C   UNL     1       0.927  -1.925  -1.211  0.00  0.00    +0.227 C 
ATOM     11  O   UNL     1       1.070  -2.545  -2.242  0.00  0.00    -0.275 OA
ATOM     12  N   UNL     1       0.852  -2.590  -0.048  0.00  0.00    -0.210 N 
ATOM     13  C   UNL     1       0.684  -1.970   1.129  0.00  0.00    +0.227 C 
ATOM     14  O   UNL     1       0.614  -2.629   2.144  0.00  0.00    -0.275 OA
ATOM     15  C   UNL     1       0.581  -0.470   1.215  0.00  0.00    +0.103 C 
ATOM     16  C   UNL     1      -1.452  -0.444  -0.245  0.00  0.00    +0.012 C 
ENDBRANCH   1  12
BRANCH   6  17
ATOM     17  C   UNL     1       3.427  -3.787   0.136  0.00  0.00    +0.388 C 
ATOM     18  O   UNL     1       4.527  -4.323   0.118  0.00  0.00    -0.241 OA
ATOM     19  O   UNL     1       3.341  -2.571   0.247  0.00  0.00    -0.241 OA
ENDBRANCH   6  17
BRANCH   3  20
ATOM     20  N   UNL     1      -1.225  -6.926  -0.301  0.00  0.00    -0.358 N 
ATOM     21  H   UNL     1      -2.096  -6.504  -0.367  0.00  0.00    +0.142 HD
ATOM     22  H   UNL     1      -1.153  -7.894  -0.312  0.00  0.00    +0.142 HD
ENDBRANCH   3  20
TORSDOF 3
