REMARK  Name = ZINC04705903
REMARK  11 active torsions:
REMARK  status: ('A' for Active; 'I' for Inactive)
REMARK    1  A    between atoms: C_1  and  C_2
REMARK    2  A    between atoms: C_5  and  N_20
REMARK    3  A    between atoms: C_7  and  N_8
REMARK    4  A    between atoms: C_9  and  O_11
REMARK    5  A    between atoms: O_11  and  C_12
REMARK    6  A    between atoms: C_12  and  C_14
REMARK    7  A    between atoms: C_12  and  N_66
REMARK    8  A    between atoms: C_21  and  O_23
REMARK    9  A    between atoms: O_23  and  C_24
REMARK   10  A    between atoms: C_24  and  C_26
REMARK   11  A    between atoms: C_24  and  N_68
REMARK                            x       y       z     vdW  Elec       q    Type
REMARK                         _______ _______ _______ _____ _____    ______ ____
ROOT
ATOM      1  C   UNL     1       4.220   0.625  -0.567  0.00  0.00    +0.045 C 
ATOM      2  C   UNL     1       2.857   1.136  -0.176  0.00  0.00    -0.029 A 
ATOM      3  C   UNL     1       1.793   0.259  -0.077  0.00  0.00    +0.007 A 
ATOM      4  C   UNL     1       0.541   0.725   0.274  0.00  0.00    +0.024 A 
ATOM      5  C   UNL     1       0.350   2.075   0.540  0.00  0.00    +0.038 A 
ATOM      6  C   UNL     1       1.416   2.958   0.442  0.00  0.00    +0.047 A 
ATOM      7  C   UNL     1       2.671   2.488   0.083  0.00  0.00    +0.041 A 
ENDROOT
BRANCH   7   8
ATOM      8  N   UNL     1       3.749   3.375  -0.017  0.00  0.00    -0.251 N 
ATOM      9  C   UNL     1       3.723   4.545   0.651  0.00  0.00    +0.403 C 
ATOM     10  O   UNL     1       2.806   4.791   1.410  0.00  0.00    -0.226 OA
ATOM     11  H   UNL     1       4.514   3.148  -0.568  0.00  0.00    +0.158 HD
BRANCH   9  12
ATOM     12  O   UNL     1       4.713   5.441   0.479  0.00  0.00    -0.466 OA
BRANCH  12  13
ATOM     13  C   UNL     1       4.678   6.630   1.311  0.00  0.00    +0.125 C 
ATOM     14  C   UNL     1       6.013   7.369   1.202  0.00  0.00    +0.030 C 
BRANCH  13  20
ATOM     15  C   UNL     1       3.710   7.797  -0.577  0.00  0.00    -0.074 C 
ATOM     16  C   UNL     1       2.489   8.595  -1.041  0.00  0.00    -0.018 C 
ATOM     17  C   UNL     1       2.406   9.901  -0.247  0.00  0.00    -0.004 C 
ATOM     18  C   UNL     1       2.334   9.577   1.248  0.00  0.00    -0.018 C 
ATOM     19  C   UNL     1       3.559   8.751   1.646  0.00  0.00    -0.074 C 
ATOM     20  N   UNL     1       3.567   7.497   0.864  0.00  0.00    +0.404 N 
ATOM     21  H   UNL     1       2.679   7.005   1.015  0.00  0.00    -0.076 HD
ENDBRANCH  13  20
ENDBRANCH  12  13
ENDBRANCH   9  12
ENDBRANCH   7   8
BRANCH   5  22
ATOM     22  N   UNL     1      -0.918   2.545   0.902  0.00  0.00    -0.251 N 
ATOM     23  C   UNL     1      -1.743   1.766   1.629  0.00  0.00    +0.403 C 
ATOM     24  O   UNL     1      -1.353   0.696   2.051  0.00  0.00    -0.226 OA
ATOM     25  H   UNL     1      -1.202   3.431   0.629  0.00  0.00    +0.158 HD
BRANCH  23  26
ATOM     26  O   UNL     1      -3.000   2.174   1.887  0.00  0.00    -0.466 OA
BRANCH  26  27
ATOM     27  C   UNL     1      -3.874   1.230   2.559  0.00  0.00    +0.125 C 
ATOM     28  C   UNL     1      -5.045   1.982   3.195  0.00  0.00    +0.030 C 
BRANCH  27  34
ATOM     29  C   UNL     1      -5.237  -0.745   2.238  0.00  0.00    -0.074 C 
ATOM     30  C   UNL     1      -5.869  -1.650   1.178  0.00  0.00    -0.018 C 
ATOM     31  C   UNL     1      -4.762  -2.336   0.373  0.00  0.00    -0.004 C 
ATOM     32  C   UNL     1      -3.864  -1.268  -0.258  0.00  0.00    -0.018 C 
ATOM     33  C   UNL     1      -3.290  -0.375   0.844  0.00  0.00    -0.074 C 
ATOM     34  N   UNL     1      -4.405   0.275   1.565  0.00  0.00    +0.404 N 
ATOM     35  H   UNL     1      -4.986   0.785   0.889  0.00  0.00    -0.076 HD
ENDBRANCH  27  34
ENDBRANCH  26  27
ENDBRANCH  23  26
ENDBRANCH   5  22
TORSDOF 8
