REMARK  Name = ZINC46289557
REMARK  9 active torsions:
REMARK  status: ('A' for Active; 'I' for Inactive)
REMARK    1  A    between atoms: C_1  and  N_2
REMARK    2  A    between atoms: N_2  and  C_3
REMARK    3  A    between atoms: C_5  and  C_10
REMARK    4  A    between atoms: C_10  and  N_11
REMARK    5  A    between atoms: N_14  and  N_15
REMARK    6  A    between atoms: C_16  and  C_18
REMARK    7  A    between atoms: C_18  and  O_19
REMARK    8  A    between atoms: O_19  and  C_20
REMARK    9  A    between atoms: C_23  and  C_26
REMARK                            x       y       z     vdW  Elec       q    Type
REMARK                         _______ _______ _______ _____ _____    ______ ____
ROOT
ATOM      1  N   UNL     1       0.572  -2.873   1.612  0.00  0.00    -0.294 N 
ATOM      2  C   UNL     1       1.726  -3.485   1.946  0.00  0.00    +0.316 C 
ATOM      3  O   UNL     1       2.408  -4.008   1.086  0.00  0.00    -0.251 OA
ATOM      4  N   UNL     1       2.123  -3.516   3.233  0.00  0.00    -0.218 N 
ATOM      5  H   UNL     1       0.028  -2.456   2.298  0.00  0.00    +0.151 HD
ATOM      6  H   UNL     1       2.954  -3.957   3.474  0.00  0.00    +0.174 HD
ENDROOT
BRANCH   4   7
ATOM      7  N   UNL     1       1.337  -2.914   4.224  0.00  0.00    -0.230 N 
ATOM      8  C   UNL     1       1.735  -2.946   5.512  0.00  0.00    +0.267 C 
ATOM      9  O   UNL     1       2.773  -3.496   5.812  0.00  0.00    -0.271 OA
ATOM     10  H   UNL     1       0.507  -2.474   3.984  0.00  0.00    +0.173 HD
BRANCH   8  11
ATOM     11  C   UNL     1       0.889  -2.297   6.578  0.00  0.00    +0.326 C 
BRANCH  11  12
ATOM     12  O   UNL     1       1.517  -2.464   7.850  0.00  0.00    -0.483 OA
BRANCH  12  13
ATOM     13  C   UNL     1       0.881  -1.934   8.926  0.00  0.00    +0.121 A 
ATOM     14  C   UNL     1      -0.329  -1.272   8.758  0.00  0.00    +0.047 A 
ATOM     15  C   UNL     1      -0.979  -0.733   9.846  0.00  0.00    +0.022 A 
ATOM     16  C   UNL     1      -0.420  -0.853  11.121  0.00  0.00    +0.052 A 
ATOM     17  C   UNL     1       0.797  -1.520  11.286  0.00  0.00    +0.022 A 
ATOM     18  C   UNL     1       1.438  -2.061  10.193  0.00  0.00    +0.047 A 
BRANCH  16  19
ATOM     19  C   UNL     1      -1.091  -0.294  12.256  0.00  0.00    +0.099 C 
ATOM     20  N   UNL     1      -1.624   0.149  13.156  0.00  0.00    -0.191 NA
ENDBRANCH  16  19
ENDBRANCH  12  13
ENDBRANCH  11  12
ENDBRANCH   8  11
ENDBRANCH   4   7
BRANCH   1  21
ATOM     21  C   UNL     1       0.140  -2.838   0.212  0.00  0.00    +0.144 C 
BRANCH  21  26
ATOM     22  C   UNL     1       0.449   0.459   1.549  0.00  0.00    +0.130 C 
ATOM     23  N   UNL     1      -0.012   0.003   0.235  0.00  0.00    -0.323 N 
ATOM     24  C   UNL     1       0.779   0.299  -0.962  0.00  0.00    +0.130 C 
ATOM     25  C   UNL     1      -1.200  -0.710   0.124  0.00  0.00    +0.103 A 
ATOM     26  C   UNL     1      -1.170  -2.101   0.109  0.00  0.00    +0.008 A 
ATOM     27  C   UNL     1      -2.360  -2.798  -0.001  0.00  0.00    +0.010 A 
ATOM     28  C   UNL     1      -3.543  -2.078  -0.094  0.00  0.00    +0.018 A 
ATOM     29  C   UNL     1      -3.499  -0.699  -0.073  0.00  0.00    +0.084 A 
ATOM     30  N   UNL     1      -2.350  -0.060   0.039  0.00  0.00    -0.349 N 
ATOM     31  H   UNL     1      -2.348   0.910   0.055  0.00  0.00    +0.167 HD
ENDBRANCH  21  26
ENDBRANCH   1  21
TORSDOF 7
