REMARK  Name = ZINC02955346
REMARK  11 active torsions:
REMARK  status: ('A' for Active; 'I' for Inactive)
REMARK    1  A    between atoms: C_1  and  C_2
REMARK    2  A    between atoms: C_2  and  O_3
REMARK    3  A    between atoms: O_3  and  C_4
REMARK    4  A    between atoms: C_9  and  N_10
REMARK    5  A    between atoms: C_11  and  C_13
REMARK    6  A    between atoms: C_16  and  C_33
REMARK    7  A    between atoms: C_19  and  C_32
REMARK    8  A    between atoms: N_23  and  C_24
REMARK    9  A    between atoms: C_28  and  O_30
REMARK   10  A    between atoms: O_30  and  C_31
REMARK   11  A    between atoms: C_33  and  O_34
REMARK                            x       y       z     vdW  Elec       q    Type
REMARK                         _______ _______ _______ _____ _____    ______ ____
ROOT
ATOM      1  C   UNL     1       4.690   4.190   0.277  0.00  0.00    +0.098 A 
ATOM      2  C   UNL     1       3.654   3.320   0.018  0.00  0.00    +0.030 A 
ATOM      3  C   UNL     1       2.296   3.868   0.041  0.00  0.00    +0.027 A 
ATOM      4  C   UNL     1       1.167   3.039   0.053  0.00  0.00    +0.007 A 
ATOM      5  C   UNL     1      -0.080   3.628   0.075  0.00  0.00    +0.117 A 
ATOM      6  N   UNL     1      -0.216   4.941   0.094  0.00  0.00    -0.256 NA
ATOM      7  C   UNL     1       0.814   5.763   0.082  0.00  0.00    +0.081 A 
ATOM      8  C   UNL     1       2.109   5.263   0.053  0.00  0.00    +0.159 A 
ATOM      9  O   UNL     1       3.184   6.085   0.035  0.00  0.00    -0.437 OA
ATOM     10  C   UNL     1       4.339   5.597   0.557  0.00  0.00    +0.212 A 
ATOM     11  N   UNL     1       5.122   6.356   1.291  0.00  0.00    -0.325 N 
ATOM     12  C   UNL     1       0.586   7.252   0.100  0.00  0.00    +0.069 C 
ATOM     13  H   UNL     1       6.093   5.971   1.637  0.00  0.00    +0.169 HD
ENDROOT
BRANCH  11  14
ATOM     14  C   UNL     1       4.730   7.623   1.625  0.00  0.00    +0.045 A 
ATOM     15  C   UNL     1       4.969   8.684   0.748  0.00  0.00    +0.026 A 
ATOM     16  C   UNL     1       4.567   9.960   1.086  0.00  0.00    +0.006 A 
ATOM     17  C   UNL     1       3.938  10.194   2.295  0.00  0.00    +0.046 A 
ATOM     18  C   UNL     1       3.701   9.147   3.175  0.00  0.00    +0.122 A 
ATOM     19  C   UNL     1       4.095   7.861   2.845  0.00  0.00    +0.071 A 
BRANCH  18  20
ATOM     20  O   UNL     1       3.083   9.384   4.362  0.00  0.00    -0.495 OA
ATOM     21  C   UNL     1       2.704  10.734   4.638  0.00  0.00    +0.277 C 
ENDBRANCH  18  20
ENDBRANCH  11  14
BRANCH   1  23
ATOM     22  N   UNL     1       7.085   4.611   0.531  0.00  0.00    -0.278 N 
ATOM     23  C   UNL     1       6.093   3.736   0.274  0.00  0.00    +0.253 C 
ATOM     24  O   UNL     1       6.354   2.571   0.041  0.00  0.00    -0.270 OA
ATOM     25  H   UNL     1       6.846   5.647   0.814  0.00  0.00    +0.155 HD
BRANCH  22  31
ATOM     26  C   UNL     1       9.393   5.089  -0.019  0.00  0.00    +0.142 A 
ATOM     27  C   UNL     1      10.714   4.679  -0.105  0.00  0.00    +0.047 A 
ATOM     28  C   UNL     1      11.063   3.390   0.253  0.00  0.00    +0.004 A 
ATOM     29  C   UNL     1      10.098   2.508   0.702  0.00  0.00    +0.002 A 
ATOM     30  C   UNL     1       8.779   2.909   0.795  0.00  0.00    +0.027 A 
ATOM     31  C   UNL     1       8.421   4.201   0.438  0.00  0.00    +0.076 A 
BRANCH  26  32
ATOM     32  O   UNL     1       9.047   6.354  -0.376  0.00  0.00    -0.490 OA
BRANCH  32  34
ATOM     33  C   UNL     1       9.520   8.581  -1.188  0.00  0.00    +0.048 C 
ATOM     34  C   UNL     1      10.097   7.209  -0.835  0.00  0.00    +0.226 C 
ENDBRANCH  32  34
ENDBRANCH  26  32
ENDBRANCH  22  31
ENDBRANCH   1  23
BRANCH   4  35
ATOM     35  C   UNL     1       1.312   1.540   0.037  0.00  0.00    +0.193 C 
BRANCH  35  36
ATOM     36  O   UNL     1       0.016   0.936   0.054  0.00  0.00    -0.390 OA
ATOM     37  H   UNL     1      -0.080  -0.159   0.046  0.00  0.00    +0.210 HD
ENDBRANCH  35  36
ENDBRANCH   4  35
TORSDOF 8
