REMARK  Name = ZINC63272545
REMARK  10 active torsions:
REMARK  status: ('A' for Active; 'I' for Inactive)
REMARK    1  A    between atoms: C_1  and  C_2
REMARK    2  A    between atoms: C_4  and  C_38
REMARK    3  A    between atoms: N_6  and  C_28
REMARK    4  A    between atoms: C_7  and  N_20
REMARK    5  A    between atoms: C_9  and  C_11
REMARK    6  A    between atoms: C_21  and  C_23
REMARK    7  A    between atoms: C_28  and  C_29
REMARK    8  A    between atoms: C_29  and  C_30
REMARK    9  A    between atoms: C_33  and  O_36
REMARK   10  A    between atoms: O_36  and  C_37
REMARK                            x       y       z     vdW  Elec       q    Type
REMARK                         _______ _______ _______ _____ _____    ______ ____
ROOT
ATOM      1  C   UNL     1      -0.019   1.526   0.010  0.00  0.00    +0.009 C 
ATOM      2  C   UNL     1       0.002  -0.004   0.002  0.00  0.00    +0.013 C 
ATOM      3  C   UNL     1      -1.432  -0.558   0.083  0.00  0.00    +0.059 C 
ATOM      4  N   UNL     1      -1.510  -1.383   1.309  0.00  0.00    -0.281 NA
ATOM      5  C   UNL     1      -0.466  -0.851   2.221  0.00  0.00    +0.151 C 
ATOM      6  C   UNL     1       0.716  -0.538   1.265  0.00  0.00    +0.071 C 
ATOM      7  C   UNL     1      -2.434   0.596   0.162  0.00  0.00    +0.024 C 
ENDROOT
BRANCH   6   8
ATOM      8  C   UNL     1       1.630   0.533   1.864  0.00  0.00    +0.180 C 
ATOM      9  N   UNL     1       2.693   0.878   0.912  0.00  0.00    -0.363 N 
ATOM     10  C   UNL     1       3.831   0.595   1.478  0.00  0.00    +0.060 A 
ATOM     11  C   UNL     1       5.226   0.717   1.032  0.00  0.00    +0.027 A 
ATOM     12  C   UNL     1       6.223   0.335   1.855  0.00  0.00    +0.002 A 
ATOM     13  C   UNL     1       5.987  -0.184   3.141  0.00  0.00    +0.002 A 
ATOM     14  C   UNL     1       4.747  -0.338   3.647  0.00  0.00    +0.027 A 
ATOM     15  C   UNL     1       3.582   0.047   2.839  0.00  0.00    +0.060 A 
ATOM     16  N   UNL     1       2.300   0.011   3.062  0.00  0.00    -0.363 N 
ATOM     17  H   UNL     1       2.570   1.248   0.024  0.00  0.00    +0.162 HD
ATOM     18  H   UNL     1       1.867  -0.302   3.871  0.00  0.00    +0.162 HD
ENDBRANCH   6   8
BRANCH   5  19
ATOM     19  N   UNL     1      -0.933   0.367   2.888  0.00  0.00    -0.293 N 
ATOM     20  C   UNL     1      -1.276   0.333   4.191  0.00  0.00    +0.281 C 
ATOM     21  O   UNL     1      -1.198  -0.710   4.814  0.00  0.00    -0.267 OA
ATOM     22  H   UNL     1      -0.996   1.198   2.392  0.00  0.00    +0.151 HD
BRANCH  20  23
ATOM     23  C   UNL     1      -1.744   1.552   4.858  0.00  0.00    +0.189 A 
ATOM     24  C   UNL     1      -2.116   1.657   6.168  0.00  0.00    +0.054 A 
ATOM     25  C   UNL     1      -2.490   2.994   6.375  0.00  0.00    +0.042 A 
ATOM     26  C   UNL     1      -2.331   3.638   5.197  0.00  0.00    +0.196 A 
ATOM     27  O   UNL     1      -1.877   2.767   4.287  0.00  0.00    -0.458 OA
ENDBRANCH  20  23
ENDBRANCH   5  19
BRANCH   4  28
ATOM     28  C   UNL     1      -2.842  -1.290   1.921  0.00  0.00    +0.091 C 
BRANCH  28  29
ATOM     29  C   UNL     1      -3.862  -2.008   1.035  0.00  0.00    +0.050 C 
BRANCH  29  30
ATOM     30  C   UNL     1      -5.229  -1.913   1.664  0.00  0.00    -0.046 A 
ATOM     31  C   UNL     1      -5.650  -2.887   2.550  0.00  0.00    +0.007 A 
ATOM     32  C   UNL     1      -6.902  -2.802   3.128  0.00  0.00    +0.046 A 
ATOM     33  C   UNL     1      -7.737  -1.738   2.818  0.00  0.00    +0.120 A 
ATOM     34  C   UNL     1      -7.311  -0.762   1.929  0.00  0.00    +0.046 A 
ATOM     35  C   UNL     1      -6.056  -0.848   1.359  0.00  0.00    +0.007 A 
BRANCH  33  36
ATOM     36  O   UNL     1      -8.969  -1.653   3.385  0.00  0.00    -0.495 OA
ATOM     37  C   UNL     1      -9.774  -0.530   3.020  0.00  0.00    +0.277 C 
ENDBRANCH  33  36
ENDBRANCH  29  30
ENDBRANCH  28  29
ENDBRANCH   4  28
TORSDOF 7
