REMARK  Name = ZINC08969916
REMARK  9 active torsions:
REMARK  status: ('A' for Active; 'I' for Inactive)
REMARK    1  A    between atoms: C_1  and  N_57
REMARK    2  A    between atoms: C_14  and  C_16
REMARK    3  A    between atoms: C_17  and  O_34
REMARK    4  A    between atoms: C_19  and  O_33
REMARK    5  A    between atoms: N_20  and  C_23
REMARK    6  A    between atoms: C_25  and  O_31
REMARK    7  A    between atoms: C_28  and  O_29
REMARK    8  A    between atoms: O_29  and  C_30
REMARK    9  A    between atoms: O_31  and  C_32
REMARK                            x       y       z     vdW  Elec       q    Type
REMARK                         _______ _______ _______ _____ _____    ______ ____
ROOT
ATOM      1  C   UNL     1      -2.971  -1.792   1.163  0.00  0.00    +0.071 A 
ATOM      2  C   UNL     1      -3.533  -2.114  -0.059  0.00  0.00    +0.224 A 
ATOM      3  N   UNL     1      -2.925  -1.738  -1.190  0.00  0.00    -0.161 NA
ATOM      4  C   UNL     1      -1.797  -1.065  -1.164  0.00  0.00    +0.306 A 
ATOM      5  N   UNL     1      -1.202  -0.723   0.010  0.00  0.00    -0.227 N 
ATOM      6  C   UNL     1      -1.766  -1.079   1.183  0.00  0.00    +0.267 A 
ATOM      7  O   UNL     1      -1.238  -0.782   2.243  0.00  0.00    -0.267 OA
ENDROOT
BRANCH   1  21
ATOM      8  C   UNL     1      -4.763  -0.072   2.686  0.00  0.00    -0.095 C 
ATOM      9  C   UNL     1      -4.294  -1.409   4.649  0.00  0.00    -0.073 C 
ATOM     10  C   UNL     1      -3.142  -2.077   5.412  0.00  0.00    +0.019 C 
ATOM     11  C   UNL     1      -2.539  -3.130   4.516  0.00  0.00    -0.022 A 
ATOM     12  C   UNL     1      -1.659  -4.226   4.853  0.00  0.00    +0.003 A 
ATOM     13  C   UNL     1      -1.094  -4.657   6.058  0.00  0.00    +0.010 A 
ATOM     14  C   UNL     1      -0.287  -5.766   6.004  0.00  0.00    +0.001 A 
ATOM     15  C   UNL     1      -0.034  -6.436   4.818  0.00  0.00    +0.002 A 
ATOM     16  C   UNL     1      -0.578  -6.032   3.611  0.00  0.00    +0.026 A 
ATOM     17  C   UNL     1      -1.402  -4.909   3.635  0.00  0.00    +0.047 A 
ATOM     18  N   UNL     1      -2.086  -4.255   2.650  0.00  0.00    -0.359 N 
ATOM     19  H   UNL     1      -2.090  -4.506   1.713  0.00  0.00    +0.166 HD
ATOM     20  C   UNL     1      -2.763  -3.192   3.183  0.00  0.00    +0.011 A 
ATOM     21  C   UNL     1      -3.640  -2.206   2.449  0.00  0.00    +0.021 C 
ATOM     22  N   UNL     1      -3.808  -1.010   3.309  0.00  0.00    +0.387 N 
ATOM     23  H   UNL     1      -2.900  -0.543   3.410  0.00  0.00    -0.081 HD
ENDBRANCH   1  21
BRANCH   5  24
ATOM     24  C   UNL     1       0.002  -0.004   0.002  0.00  0.00    +0.099 A 
ATOM     25  C   UNL     1      -0.017   1.383   0.010  0.00  0.00    +0.075 A 
ATOM     26  C   UNL     1       1.175   2.091   0.002  0.00  0.00    +0.122 A 
ATOM     27  C   UNL     1       2.385   1.413  -0.013  0.00  0.00    +0.049 A 
ATOM     28  C   UNL     1       2.407   0.031  -0.021  0.00  0.00    +0.051 A 
ATOM     29  C   UNL     1       1.219  -0.681  -0.013  0.00  0.00    +0.144 A 
BRANCH  29  30
ATOM     30  O   UNL     1       1.241  -2.041  -0.020  0.00  0.00    -0.493 OA
ATOM     31  C   UNL     1       2.524  -2.669  -0.036  0.00  0.00    +0.277 C 
ENDBRANCH  29  30
BRANCH  26  32
ATOM     32  O   UNL     1       1.157   3.450   0.009  0.00  0.00    -0.495 OA
ATOM     33  C   UNL     1       2.422   4.116   0.001  0.00  0.00    +0.277 C 
ENDBRANCH  26  32
ENDBRANCH   5  24
BRANCH   4  34
ATOM     34  O   UNL     1      -1.216  -0.706  -2.328  0.00  0.00    -0.479 OA
ATOM     35  H   UNL     1      -1.703  -0.988  -3.114  0.00  0.00    +0.295 HD
ENDBRANCH   4  34
BRANCH   2  36
ATOM     36  O   UNL     1      -4.695  -2.807  -0.112  0.00  0.00    -0.492 OA
ATOM     37  H   UNL     1      -5.008  -2.983  -1.010  0.00  0.00    +0.294 HD
ENDBRANCH   2  36
TORSDOF 6
