REMARK  Name = ZINC65814299
REMARK  2 active torsions:
REMARK  status: ('A' for Active; 'I' for Inactive)
REMARK    1  A    between atoms: C_1  and  N_2
REMARK    2  A    between atoms: C_8  and  C_13
REMARK                            x       y       z     vdW  Elec       q    Type
REMARK                         _______ _______ _______ _____ _____    ______ ____
ROOT
ATOM      1  C   UNL     1       0.091  -5.884   1.396  0.00  0.00    +0.247 C 
ATOM      2  O   UNL     1       0.203  -5.898   2.606  0.00  0.00    -0.270 OA
ATOM      3  N   UNL     1       0.002  -7.044   0.714  0.00  0.00    -0.294 N 
ATOM      4  C   UNL     1       0.004  -6.994  -0.720  0.00  0.00    +0.112 C 
ATOM      5  C   UNL     1       0.685  -8.173  -1.347  0.00  0.00    +0.007 C 
ATOM      6  C   UNL     1       2.015  -8.505  -0.689  0.00  0.00    +0.008 C 
ATOM      7  C   UNL     1       1.907  -9.441   0.498  0.00  0.00    -0.009 C 
ATOM      8  C   UNL     1       1.065 -10.672   0.152  0.00  0.00    +0.007 C 
ATOM      9  C   UNL     1      -0.322 -10.172  -0.257  0.00  0.00    -0.009 C 
ATOM     10  C   UNL     1      -0.183  -9.381  -1.558  0.00  0.00    +0.008 C 
ATOM     11  C   UNL     1      -0.956  -9.335   0.830  0.00  0.00    +0.026 C 
ATOM     12  C   UNL     1      -0.085  -8.283   1.466  0.00  0.00    +0.077 C 
ATOM     13  C   UNL     1       1.327  -8.784   1.743  0.00  0.00    +0.026 C 
ENDROOT
BRANCH   1  21
ATOM     14  C   UNL     1      -1.714  -0.620  -3.596  0.00  0.00    +0.142 C 
ATOM     15  N   UNL     1      -1.190  -1.455  -2.512  0.00  0.00    -0.237 N 
ATOM     16  C   UNL     1      -0.283  -1.046  -1.607  0.00  0.00    +0.254 C 
ATOM     17  O   UNL     1       0.224   0.056  -1.559  0.00  0.00    -0.270 OA
ATOM     18  C   UNL     1      -0.007  -2.165  -0.678  0.00  0.00    +0.049 A 
ATOM     19  C   UNL     1       0.819  -2.323   0.424  0.00  0.00    +0.014 A 
ATOM     20  C   UNL     1       0.849  -3.532   1.097  0.00  0.00    +0.014 A 
ATOM     21  C   UNL     1       0.052  -4.595   0.671  0.00  0.00    +0.038 A 
ATOM     22  C   UNL     1      -0.783  -4.444  -0.440  0.00  0.00    +0.027 A 
ATOM     23  C   UNL     1      -0.815  -3.235  -1.114  0.00  0.00    +0.050 A 
ATOM     24  C   UNL     1      -1.557  -2.729  -2.288  0.00  0.00    +0.254 C 
ATOM     25  O   UNL     1      -2.363  -3.360  -2.942  0.00  0.00    -0.270 OA
ENDBRANCH   1  21
TORSDOF 1
