REMARK  Name = ZINC45356024
REMARK  10 active torsions:
REMARK  status: ('A' for Active; 'I' for Inactive)
REMARK    1  A    between atoms: C_1  and  C_2
REMARK    2  A    between atoms: C_6  and  N_8
REMARK    3  A    between atoms: C_9  and  C_11
REMARK    4  A    between atoms: C_11  and  N_12
REMARK    5  A    between atoms: N_12  and  C_13
REMARK    6  A    between atoms: N_12  and  C_14
REMARK    7  A    between atoms: C_14  and  C_16
REMARK    8  A    between atoms: C_14  and  C_17
REMARK    9  A    between atoms: C_20  and  S_23
REMARK   10  A    between atoms: S_23  and  N_26
REMARK                            x       y       z     vdW  Elec       q    Type
REMARK                         _______ _______ _______ _____ _____    ______ ____
ROOT
ATOM      1  N   UNL     1      -0.208  -6.339   3.410  0.00  0.00    +0.388 N 
ATOM      2  C   UNL     1       1.047  -6.789   2.791  0.00  0.00    -0.095 C 
ATOM      3  H   UNL     1      -0.976  -6.519   2.781  0.00  0.00    -0.081 HD
ENDROOT
BRANCH   1   4
ATOM      4  C   UNL     1      -0.423  -7.067   4.667  0.00  0.00    -0.041 C 
ATOM      5  C   UNL     1      -1.729  -6.599   5.311  0.00  0.00    -0.008 C 
BRANCH   4   6
ATOM      6  C   UNL     1      -0.504  -8.545   4.384  0.00  0.00    -0.061 A 
ATOM      7  C   UNL     1      -1.173  -8.999   3.262  0.00  0.00    +0.004 A 
ATOM      8  C   UNL     1      -1.247 -10.354   3.003  0.00  0.00    +0.029 A 
ATOM      9  C   UNL     1      -0.652 -11.257   3.864  0.00  0.00    +0.105 A 
ATOM     10  C   UNL     1       0.017 -10.803   4.986  0.00  0.00    +0.029 A 
ATOM     11  C   UNL     1       0.096  -9.447   5.243  0.00  0.00    +0.004 A 
BRANCH   9  12
ATOM     12  S   UNL     1      -0.748 -12.985   3.534  0.00  0.00    +0.056 S 
ATOM     13  O   UNL     1      -0.579 -13.646   4.780  0.00  0.00    -0.153 OA
ATOM     14  O   UNL     1      -1.895 -13.179   2.718  0.00  0.00    -0.153 OA
BRANCH  12  15
ATOM     15  N   UNL     1       0.566 -13.380   2.607  0.00  0.00    -0.204 NA
ATOM     16  H   UNL     1       1.205 -12.695   2.354  0.00  0.00    +0.144 HD
ATOM     17  H   UNL     1       0.697 -14.296   2.316  0.00  0.00    +0.144 HD
ENDBRANCH  12  15
ENDBRANCH   9  12
ENDBRANCH   4   6
ENDBRANCH   1   4
BRANCH   1  18
ATOM     18  C   UNL     1      -0.129  -4.898   3.686  0.00  0.00    +0.019 C 
BRANCH  18  20
ATOM     19  N   UNL     1       0.052  -2.797   2.393  0.00  0.00    -0.287 N 
ATOM     20  C   UNL     1      -0.031  -4.143   2.385  0.00  0.00    +0.201 C 
ATOM     21  O   UNL     1      -0.028  -4.745   1.333  0.00  0.00    -0.278 OA
ATOM     22  H   UNL     1       0.127  -2.321   3.234  0.00  0.00    +0.155 HD
BRANCH  19  28
ATOM     23  C   UNL     1       1.524   1.061  -0.275  0.00  0.00    +0.044 C 
ATOM     24  C   UNL     1       0.735  -0.215  -0.134  0.00  0.00    -0.049 A 
ATOM     25  C   UNL     1      -0.011  -0.687  -1.199  0.00  0.00    +0.003 A 
ATOM     26  C   UNL     1      -0.736  -1.857  -1.074  0.00  0.00    +0.002 A 
ATOM     27  C   UNL     1      -0.717  -2.559   0.116  0.00  0.00    +0.023 A 
ATOM     28  C   UNL     1       0.031  -2.089   1.186  0.00  0.00    +0.034 A 
ATOM     29  C   UNL     1       0.763  -0.915   1.056  0.00  0.00    +0.026 A 
ENDBRANCH  19  28
ENDBRANCH  18  20
ENDBRANCH   1  18
TORSDOF 7
