REMARK  Name = ZINC12877564
REMARK  4 active torsions:
REMARK  status: ('A' for Active; 'I' for Inactive)
REMARK    1  A    between atoms: C_1  and  C_2
REMARK    2  A    between atoms: C_2  and  C_4
REMARK    3  A    between atoms: C_2  and  O_35
REMARK    4  A    between atoms: N_12  and  C_15
REMARK                            x       y       z     vdW  Elec       q    Type
REMARK                         _______ _______ _______ _____ _____    ______ ____
ROOT
ATOM      1  C   UNL     1       0.877   8.371   1.502  0.00  0.00    -0.028 C 
ATOM      2  C   UNL     1       0.580   7.747   0.123  0.00  0.00    +0.076 C 
ATOM      3  C   UNL     1      -0.970   7.705   0.012  0.00  0.00    +0.088 C 
ATOM      4  C   UNL     1      -1.274   6.224  -0.040  0.00  0.00    +0.229 C 
ATOM      5  O   UNL     1      -2.381   5.740  -0.141  0.00  0.00    -0.275 OA
ATOM      6  N   UNL     1      -0.132   5.532   0.046  0.00  0.00    -0.210 N 
ATOM      7  C   UNL     1       0.969   6.287   0.140  0.00  0.00    +0.228 C 
ATOM      8  O   UNL     1       2.102   5.864   0.226  0.00  0.00    -0.275 OA
ATOM      9  C   UNL     1      -1.467   8.306   1.333  0.00  0.00    +0.050 C 
ATOM     10  C   UNL     1      -1.834   9.754   1.176  0.00  0.00    -0.028 A 
ATOM     11  C   UNL     1      -1.132  10.873   0.785  0.00  0.00    +0.004 A 
ATOM     12  C   UNL     1      -1.762  12.103   0.737  0.00  0.00    +0.000 A 
ATOM     13  C   UNL     1      -3.097  12.207   1.083  0.00  0.00    +0.002 A 
ATOM     14  C   UNL     1      -3.803  11.090   1.477  0.00  0.00    +0.023 A 
ATOM     15  C   UNL     1      -3.177   9.847   1.528  0.00  0.00    +0.036 A 
ATOM     16  N   UNL     1      -3.669   8.591   1.889  0.00  0.00    -0.286 N 
ATOM     17  C   UNL     1      -2.727   7.632   1.802  0.00  0.00    +0.211 C 
ATOM     18  O   UNL     1      -2.868   6.454   2.054  0.00  0.00    -0.277 OA
ATOM     19  H   UNL     1      -4.583   8.428   2.170  0.00  0.00    +0.155 HD
ATOM     20  N   UNL     1      -0.365   8.135   2.265  0.00  0.00    +0.396 N 
ATOM     21  H   UNL     1      -0.443   8.812   3.033  0.00  0.00    -0.083 HD
ATOM     22  H   UNL     1      -0.369   7.181   2.647  0.00  0.00    -0.083 HD
ENDROOT
BRANCH   6  23
ATOM     23  C   UNL     1      -0.092   4.130   0.032  0.00  0.00    +0.048 A 
ATOM     24  C   UNL     1       0.475   3.462  -1.044  0.00  0.00    +0.028 A 
ATOM     25  C   UNL     1       0.509   2.081  -1.062  0.00  0.00    +0.051 A 
ATOM     26  C   UNL     1      -0.015   1.358   0.000  0.00  0.00    +0.162 A 
ATOM     27  C   UNL     1      -0.581   2.024   1.081  0.00  0.00    +0.164 A 
ATOM     28  C   UNL     1      -0.620   3.410   1.094  0.00  0.00    +0.073 A 
ATOM     29  O   UNL     1      -1.100   1.332   2.132  0.00  0.00    -0.485 OA
ATOM     30  C   UNL     1      -1.381  -0.055   1.914  0.00  0.00    +0.270 C 
ATOM     31  C   UNL     1      -0.171  -0.684   1.210  0.00  0.00    +0.270 C 
ATOM     32  O   UNL     1       0.029  -0.003  -0.034  0.00  0.00    -0.485 OA
ENDBRANCH   6  23
BRANCH   1  34
ATOM     33  C   UNL     1       2.371   8.332   3.505  0.00  0.00    +0.036 C 
ATOM     34  C   UNL     1       2.094   7.698   2.140  0.00  0.00    +0.098 C 
BRANCH  34  35
ATOM     35  O   UNL     1       3.233   7.873   1.294  0.00  0.00    -0.394 OA
ATOM     36  H   UNL     1       3.468   8.798   1.137  0.00  0.00    +0.210 HD
ENDBRANCH  34  35
ENDBRANCH   1  34
TORSDOF 3
