REMARK  Name = ZINC36275959
REMARK  8 active torsions:
REMARK  status: ('A' for Active; 'I' for Inactive)
REMARK    1  A    between atoms: C_1  and  N_2
REMARK    2  A    between atoms: N_2  and  C_3
REMARK    3  A    between atoms: N_2  and  C_6
REMARK    4  A    between atoms: C_3  and  C_4
REMARK    5  A    between atoms: C_4  and  O_5
REMARK    6  A    between atoms: C_6  and  C_7
REMARK    7  A    between atoms: C_8  and  C_17
REMARK    8  A    between atoms: C_13  and  N_16
REMARK                            x       y       z     vdW  Elec       q    Type
REMARK                         _______ _______ _______ _____ _____    ______ ____
ROOT
ATOM      1  C   UNL     1      -1.831  -0.032   1.422  0.00  0.00    +0.035 A 
ATOM      2  C   UNL     1      -2.129  -0.897   2.432  0.00  0.00    +0.091 A 
ATOM      3  N   UNL     1      -3.005  -0.298   3.254  0.00  0.00    -0.228 NA
ATOM      4  C   UNL     1      -3.270   0.917   2.795  0.00  0.00    +0.138 A 
ATOM      5  N   UNL     1      -2.542   1.112   1.650  0.00  0.00    -0.303 N 
ATOM      6  C   UNL     1      -2.625   2.296   0.970  0.00  0.00    +0.115 A 
ATOM      7  C   UNL     1      -3.425   3.294   1.419  0.00  0.00    +0.041 A 
ATOM      8  C   UNL     1      -4.180   3.120   2.596  0.00  0.00    +0.028 A 
ATOM      9  C   UNL     1      -4.110   1.944   3.273  0.00  0.00    +0.048 A 
ENDROOT
BRANCH   2  10
ATOM     10  C   UNL     1      -1.580  -2.266   2.595  0.00  0.00    +0.002 A 
ATOM     11  C   UNL     1      -1.168  -2.709   3.849  0.00  0.00    +0.011 A 
ATOM     12  C   UNL     1      -0.658  -3.983   3.995  0.00  0.00    +0.016 A 
ATOM     13  C   UNL     1      -0.555  -4.820   2.898  0.00  0.00    +0.018 A 
ATOM     14  C   UNL     1      -0.963  -4.384   1.649  0.00  0.00    +0.016 A 
ATOM     15  C   UNL     1      -1.480  -3.114   1.494  0.00  0.00    +0.011 A 
ATOM     16 BR   UNL     1       0.145  -6.564   3.104  0.00  0.00    -0.050 Br
ENDBRANCH   2  10
BRANCH   7  17
ATOM     17  N   UNL     1      -3.499   4.502   0.712  0.00  0.00    -0.357 N 
ATOM     18  H   UNL     1      -2.979   4.622  -0.098  0.00  0.00    +0.142 HD
ATOM     19  H   UNL     1      -4.071   5.217   1.032  0.00  0.00    +0.142 HD
ENDBRANCH   7  17
BRANCH   1  20
ATOM     20  C   UNL     1      -0.889  -0.286   0.274  0.00  0.00    -0.022 C 
BRANCH  20  22
ATOM     21  C   UNL     1       0.630   1.419   1.009  0.00  0.00    -0.096 C 
ATOM     22  N   UNL     1       0.489  -0.011   0.701  0.00  0.00    +0.383 N 
ATOM     23  H   UNL     1       0.702  -0.554   1.523  0.00  0.00    -0.082 HD
BRANCH  22  24
ATOM     24  C   UNL     1       1.418  -0.372  -0.379  0.00  0.00    -0.051 C 
BRANCH  24  25
ATOM     25  C   UNL     1       2.858  -0.203   0.110  0.00  0.00    +0.137 C 
BRANCH  25  26
ATOM     26  O   UNL     1       3.118  -1.136   1.160  0.00  0.00    -0.397 OA
ATOM     27  H   UNL     1       4.014  -1.086   1.518  0.00  0.00    +0.209 HD
ENDBRANCH  25  26
ENDBRANCH  24  25
ENDBRANCH  22  24
ENDBRANCH  20  22
ENDBRANCH   1  20
TORSDOF 7
