REMARK  Name = ZINC43287469
REMARK  9 active torsions:
REMARK  status: ('A' for Active; 'I' for Inactive)
REMARK    1  A    between atoms: C_1  and  C_2
REMARK    2  A    between atoms: C_2  and  C_4
REMARK    3  A    between atoms: C_2  and  N_21
REMARK    4  A    between atoms: C_4  and  C_6
REMARK    5  A    between atoms: C_4  and  N_12
REMARK    6  A    between atoms: N_12  and  C_13
REMARK    7  A    between atoms: N_12  and  C_16
REMARK    8  A    between atoms: C_13  and  C_14
REMARK    9  A    between atoms: C_14  and  O_15
REMARK                            x       y       z     vdW  Elec       q    Type
REMARK                         _______ _______ _______ _____ _____    ______ ____
ROOT
ATOM      1  C   UNL     1       0.748   0.131   2.089  0.00  0.00    -0.014 C 
ENDROOT
BRANCH   1   2
ATOM      2  C   UNL     1       0.878   0.461   3.553  0.00  0.00    -0.021 A 
ATOM      3  C   UNL     1       0.364  -0.192   4.624  0.00  0.00    +0.025 A 
ATOM      4  C   UNL     1       0.615   0.298   5.893  0.00  0.00    +0.025 A 
ATOM      5  C   UNL     1       1.368   1.418   6.027  0.00  0.00    +0.060 A 
ATOM      6  S   UNL     1       1.754   1.809   4.328  0.00  0.00    -0.102 S 
ATOM      7 BR   UNL     1      -0.082  -0.579   7.416  0.00  0.00    -0.050 Br
ENDBRANCH   1   2
BRANCH   1   9
ATOM      8  C   UNL     1       0.147   2.478   1.478  0.00  0.00    +0.022 C 
ATOM      9  C   UNL     1      -0.324   1.022   1.458  0.00  0.00    +0.039 C 
BRANCH   9  10
ATOM     10  N   UNL     1      -1.573   0.901   2.221  0.00  0.00    -0.329 NA
ATOM     11  H   UNL     1      -1.440   1.185   3.180  0.00  0.00    +0.118 HD
ATOM     12  H   UNL     1      -2.314   1.430   1.787  0.00  0.00    +0.118 HD
ENDBRANCH   9  10
ENDBRANCH   1   9
BRANCH   1  13
ATOM     13  N   UNL     1       2.035   0.363   1.419  0.00  0.00    +0.389 N 
ATOM     14  H   UNL     1       2.247   1.349   1.431  0.00  0.00    -0.080 HD
BRANCH  13  15
ATOM     15  C   UNL     1       1.954  -0.104   0.028  0.00  0.00    -0.068 C 
ATOM     16  C   UNL     1       3.341  -0.014  -0.641  0.00  0.00    -0.015 C 
ATOM     17  C   UNL     1       3.033   0.422  -2.095  0.00  0.00    -0.002 C 
ATOM     18  C   UNL     1       1.865   1.423  -1.913  0.00  0.00    -0.002 C 
ATOM     19  C   UNL     1       1.016   0.810  -0.780  0.00  0.00    -0.015 C 
ENDBRANCH  13  15
BRANCH  13  20
ATOM     20  C   UNL     1       3.093  -0.375   2.122  0.00  0.00    -0.049 C 
BRANCH  20  21
ATOM     21  C   UNL     1       4.403   0.410   2.038  0.00  0.00    +0.137 C 
BRANCH  21  22
ATOM     22  O   UNL     1       4.210   1.719   2.578  0.00  0.00    -0.397 OA
ATOM     23  H   UNL     1       5.002   2.273   2.557  0.00  0.00    +0.209 HD
ENDBRANCH  21  22
ENDBRANCH  20  21
ENDBRANCH  13  20
ENDBRANCH   1  13
TORSDOF 8
