REMARK  Name = ZINC09008740
REMARK  11 active torsions:
REMARK  status: ('A' for Active; 'I' for Inactive)
REMARK    1  A    between atoms: C_1  and  C_2
REMARK    2  A    between atoms: C_5  and  C_37
REMARK    3  A    between atoms: C_6  and  N_8
REMARK    4  A    between atoms: C_9  and  C_11
REMARK    5  A    between atoms: C_11  and  S_12
REMARK    6  A    between atoms: S_12  and  C_13
REMARK    7  A    between atoms: C_14  and  C_35
REMARK    8  A    between atoms: C_15  and  C_30
REMARK    9  A    between atoms: C_17  and  C_21
REMARK   10  A    between atoms: C_18  and  C_20
REMARK   11  A    between atoms: N_23  and  C_24
REMARK                            x       y       z     vdW  Elec       q    Type
REMARK                         _______ _______ _______ _____ _____    ______ ____
ROOT
ATOM      1  C   UNL     1       1.230   2.246   0.119  0.00  0.00    +0.093 C 
ATOM      2  C   UNL     1       1.610   3.551   0.140  0.00  0.00    +0.159 C 
ATOM      3  C   UNL     1       3.061   3.941   0.155  0.00  0.00    +0.086 C 
ATOM      4  C   UNL     1       3.928   2.784  -0.253  0.00  0.00    +0.045 C 
ATOM      5  C   UNL     1       3.464   1.523  -0.268  0.00  0.00    +0.048 C 
ATOM      6  N   UNL     1       2.174   1.243   0.094  0.00  0.00    -0.248 NA
ATOM      7  C   UNL     1       4.379   0.398  -0.678  0.00  0.00    +0.066 C 
ENDROOT
BRANCH   3   8
ATOM      8  C   UNL     1       3.444   4.381   1.544  0.00  0.00    -0.001 A 
ATOM      9  C   UNL     1       3.906   5.585   1.961  0.00  0.00    +0.012 A 
ATOM     10  C   UNL     1       4.193   5.766   3.301  0.00  0.00    +0.008 A 
ATOM     11  C   UNL     1       4.013   4.731   4.157  0.00  0.00    +0.045 A 
ATOM     12  S   UNL     1       3.414   3.450   3.067  0.00  0.00    -0.101 S 
ENDBRANCH   3   8
BRANCH   4  13
ATOM     13  C   UNL     1       5.268   3.030  -0.638  0.00  0.00    +0.247 C 
ATOM     14  O   UNL     1       5.984   2.104  -0.972  0.00  0.00    -0.270 OA
ATOM     15  N   UNL     1       5.750   4.288  -0.635  0.00  0.00    -0.282 N 
ATOM     16  H   UNL     1       5.202   5.017  -0.303  0.00  0.00    +0.155 HD
BRANCH  15  17
ATOM     17  C   UNL     1       7.040   4.543  -1.109  0.00  0.00    +0.034 A 
ATOM     18  C   UNL     1       8.054   3.617  -0.901  0.00  0.00    +0.023 A 
ATOM     19  C   UNL     1       9.326   3.870  -1.375  0.00  0.00    +0.002 A 
ATOM     20  C   UNL     1       9.594   5.049  -2.047  0.00  0.00    +0.000 A 
ATOM     21  C   UNL     1       8.588   5.975  -2.251  0.00  0.00    +0.002 A 
ATOM     22  C   UNL     1       7.312   5.726  -1.784  0.00  0.00    +0.023 A 
ENDBRANCH  15  17
ENDBRANCH   4  13
BRANCH   2  23
ATOM     23  C   UNL     1       0.608   4.574   0.152  0.00  0.00    +0.074 C 
ATOM     24  N   UNL     1      -0.187   5.386   0.161  0.00  0.00    -0.196 NA
ENDBRANCH   2  23
BRANCH   1  25
ATOM     25  S   UNL     1      -0.483   1.833   0.125  0.00  0.00    -0.100 S 
BRANCH  25  26
ATOM     26  C   UNL     1      -0.372   0.027   0.091  0.00  0.00    +0.171 C 
BRANCH  26  28
ATOM     27  N   UNL     1      -1.923  -1.899   0.068  0.00  0.00    -0.285 N 
ATOM     28  C   UNL     1      -1.759  -0.562   0.091  0.00  0.00    +0.227 C 
ATOM     29  O   UNL     1      -2.728   0.168   0.111  0.00  0.00    -0.275 OA
ATOM     30  H   UNL     1      -1.153  -2.481  -0.030  0.00  0.00    +0.155 HD
BRANCH  27  36
ATOM     31  C   UNL     1      -6.575  -1.500   1.607  0.00  0.00    +0.044 C 
ATOM     32  C   UNL     1      -5.479  -2.277   0.926  0.00  0.00    -0.049 A 
ATOM     33  C   UNL     1      -5.739  -3.536   0.415  0.00  0.00    +0.004 A 
ATOM     34  C   UNL     1      -4.736  -4.252  -0.211  0.00  0.00    +0.005 A 
ATOM     35  C   UNL     1      -3.469  -3.712  -0.328  0.00  0.00    -0.029 A 
ATOM     36  C   UNL     1      -3.205  -2.449   0.184  0.00  0.00    +0.037 A 
ATOM     37  C   UNL     1      -4.213  -1.735   0.819  0.00  0.00    +0.027 A 
ATOM     38  C   UNL     1      -2.377  -4.493  -1.012  0.00  0.00    +0.045 C 
ENDBRANCH  27  36
ENDBRANCH  26  28
ENDBRANCH  25  26
ENDBRANCH   1  25
TORSDOF 8
