REMARK  Name = ZINC65526163
REMARK  7 active torsions:
REMARK  status: ('A' for Active; 'I' for Inactive)
REMARK    1  A    between atoms: C_1  and  C_2
REMARK    2  A    between atoms: C_2  and  C_3
REMARK    3  A    between atoms: C_2  and  C_4
REMARK    4  A    between atoms: C_7  and  C_17
REMARK    5  A    between atoms: N_9  and  C_11
REMARK    6  A    between atoms: C_24  and  O_29
REMARK    7  A    between atoms: O_29  and  C_30
REMARK                            x       y       z     vdW  Elec       q    Type
REMARK                         _______ _______ _______ _____ _____    ______ ____
ROOT
ATOM      1  C   UNL     1      -1.301  -0.543   0.004  0.00  0.00    +0.021 C 
ATOM      2  N   UNL     1      -2.087  -0.060  -1.164  0.00  0.00    +0.406 N 
ATOM      3  C   UNL     1      -1.793  -1.083  -2.197  0.00  0.00    +0.072 C 
ATOM      4  N   UNL     1      -1.350  -2.283  -1.470  0.00  0.00    -0.278 N 
ATOM      5  N   UNL     1      -1.413  -2.019  -0.117  0.00  0.00    -0.255 NA
ATOM      6  H   UNL     1      -3.073  -0.041  -0.949  0.00  0.00    -0.080 HD
ATOM      7  H   UNL     1      -2.282  -2.349   0.276  0.00  0.00    +0.142 HD
ATOM      8  H   UNL     1      -1.766   0.850  -1.460  0.00  0.00    -0.080 HD
ENDROOT
BRANCH   3   9
ATOM      9  C   UNL     1      -3.036  -1.388  -2.994  0.00  0.00    +0.020 A 
ATOM     10  H   UNL     1      -5.453  -3.536  -3.058  0.00  0.00    +0.165 HD
ATOM     11  C   UNL     1      -3.808  -2.444  -2.660  0.00  0.00    +0.090 A 
ATOM     12  N   UNL     1      -4.934  -2.766  -3.339  0.00  0.00    -0.360 N 
ATOM     13  C   UNL     1      -5.362  -2.026  -4.421  0.00  0.00    +0.050 A 
ATOM     14  C   UNL     1      -6.522  -2.368  -5.110  0.00  0.00    +0.030 A 
ATOM     15  C   UNL     1      -6.929  -1.613  -6.187  0.00  0.00    +0.047 A 
ATOM     16  C   UNL     1      -6.191  -0.507  -6.598  0.00  0.00    +0.121 A 
ATOM     17  C   UNL     1      -5.037  -0.151  -5.927  0.00  0.00    +0.059 A 
ATOM     18  C   UNL     1      -4.616  -0.909  -4.834  0.00  0.00    +0.049 A 
ATOM     19  C   UNL     1      -3.395  -0.564  -4.085  0.00  0.00    +0.193 A 
ATOM     20  O   UNL     1      -2.713   0.398  -4.399  0.00  0.00    -0.287 OA
BRANCH  16  21
ATOM     21  O   UNL     1      -6.607   0.227  -7.665  0.00  0.00    -0.495 OA
ATOM     22  C   UNL     1      -7.808  -0.196  -8.313  0.00  0.00    +0.277 C 
ENDBRANCH  16  21
ENDBRANCH   3   9
BRANCH   4  23
ATOM     23  C   UNL     1      -0.936  -3.485  -2.049  0.00  0.00    +0.043 A 
ATOM     24  C   UNL     1      -0.779  -3.577  -3.426  0.00  0.00    +0.024 A 
ATOM     25  C   UNL     1      -0.369  -4.766  -3.995  0.00  0.00    +0.002 A 
ATOM     26  C   UNL     1      -0.115  -5.866  -3.196  0.00  0.00    +0.000 A 
ATOM     27  C   UNL     1      -0.269  -5.778  -1.824  0.00  0.00    +0.002 A 
ATOM     28  C   UNL     1      -0.674  -4.590  -1.248  0.00  0.00    +0.024 A 
ENDBRANCH   4  23
BRANCH   1  30
ATOM     29  C   UNL     1       0.231   1.429  -0.075  0.00  0.00    +0.007 C 
ATOM     30  C   UNL     1       0.160  -0.099  -0.102  0.00  0.00    -0.016 C 
ATOM     31  C   UNL     1       0.952  -0.667   1.077  0.00  0.00    +0.007 C 
ENDBRANCH   1  30
TORSDOF 4
