REMARK  Name = ZINC44714591
REMARK  9 active torsions:
REMARK  status: ('A' for Active; 'I' for Inactive)
REMARK    1  A    between atoms: C_1  and  C_2
REMARK    2  A    between atoms: C_5  and  C_9
REMARK    3  A    between atoms: C_7  and  C_8
REMARK    4  A    between atoms: C_13  and  C_22
REMARK    5  A    between atoms: N_24  and  C_25
REMARK    6  A    between atoms: C_25  and  C_26
REMARK    7  A    between atoms: C_26  and  C_27
REMARK    8  A    between atoms: C_28  and  C_39
REMARK    9  A    between atoms: C_34  and  C_37
REMARK                            x       y       z     vdW  Elec       q    Type
REMARK                         _______ _______ _______ _____ _____    ______ ____
ROOT
ATOM      1  C   UNL     1       0.063  -4.258  -0.019  0.00  0.00    +0.247 C 
ATOM      2  O   UNL     1       0.186  -4.872   1.023  0.00  0.00    -0.270 OA
ATOM      3  N   UNL     1      -0.036  -4.925  -1.186  0.00  0.00    -0.296 N 
ATOM      4  C   UNL     1      -0.063  -4.359  -2.555  0.00  0.00    +0.121 C 
ATOM      5  C   UNL     1       0.782  -5.339  -3.399  0.00  0.00    +0.100 C 
ATOM      6  C   UNL     1       0.724  -6.670  -2.630  0.00  0.00    -0.004 C 
ATOM      7  C   UNL     1      -0.137  -6.389  -1.390  0.00  0.00    +0.115 C 
ATOM      8  C   UNL     1       2.126  -7.097  -2.206  0.00  0.00    -0.010 C 
ATOM      9  C   UNL     1       2.048  -8.450  -1.493  0.00  0.00    -0.082 C 
ATOM     10  N   UNL     1       1.463  -9.448  -2.397  0.00  0.00    +0.379 N 
ATOM     11  C   UNL     1       0.082  -9.077  -2.726  0.00  0.00    -0.082 C 
ATOM     12  C   UNL     1       0.076  -7.750  -3.491  0.00  0.00    -0.010 C 
ATOM     13  H   UNL     1       2.009  -9.494  -3.244  0.00  0.00    -0.086 HD
ATOM     14  H   UNL     1       1.469 -10.351  -1.947  0.00  0.00    -0.086 HD
ENDROOT
BRANCH   1  19
ATOM     15  C   UNL     1      -0.097   1.494   0.033  0.00  0.00    +0.044 C 
ATOM     16  C   UNL     1      -0.055  -0.012   0.020  0.00  0.00    -0.047 A 
ATOM     17  C   UNL     1      -0.642  -0.708  -1.022  0.00  0.00    +0.004 A 
ATOM     18  C   UNL     1      -0.607  -2.087  -1.041  0.00  0.00    +0.013 A 
ATOM     19  C   UNL     1       0.022  -2.780  -0.005  0.00  0.00    +0.037 A 
ATOM     20  C   UNL     1       0.612  -2.072   1.042  0.00  0.00    +0.016 A 
ATOM     21  C   UNL     1       0.575  -0.693   1.046  0.00  0.00    -0.047 A 
ATOM     22  C   UNL     1       1.216   0.074   2.174  0.00  0.00    +0.044 C 
ENDBRANCH   1  19
BRANCH   5  23
ATOM     23  C   UNL     1       2.204  -4.852  -3.502  0.00  0.00    +0.218 C 
ATOM     24  O   UNL     1       2.717  -4.275  -2.566  0.00  0.00    -0.275 OA
ATOM     25  N   UNL     1       2.907  -5.057  -4.634  0.00  0.00    -0.315 N 
ATOM     26  H   UNL     1       2.497  -5.518  -5.382  0.00  0.00    +0.149 HD
BRANCH  25  27
ATOM     27  C   UNL     1       4.290  -4.583  -4.734  0.00  0.00    +0.109 C 
BRANCH  27  28
ATOM     28  C   UNL     1       4.853  -4.941  -6.111  0.00  0.00    +0.056 C 
BRANCH  28  29
ATOM     29  C   UNL     1       6.275  -4.453  -6.213  0.00  0.00    -0.018 A 
ATOM     30  C   UNL     1       6.678  -3.250  -6.651  0.00  0.00    +0.017 A 
ATOM     31  N   UNL     1       8.043  -3.167  -6.601  0.00  0.00    -0.358 N 
ATOM     32  H   UNL     1       8.564  -2.393  -6.866  0.00  0.00    +0.166 HD
ATOM     33  C   UNL     1       8.567  -4.343  -6.118  0.00  0.00    +0.047 A 
ATOM     34  C   UNL     1       7.482  -5.201  -5.848  0.00  0.00    +0.004 A 
ATOM     35  C   UNL     1       7.712  -6.476  -5.339  0.00  0.00    +0.029 A 
ATOM     36  C   UNL     1       9.019  -6.890  -5.098  0.00  0.00    +0.052 A 
ATOM     37  C   UNL     1      10.090  -6.026  -5.368  0.00  0.00    +0.021 A 
ATOM     38  C   UNL     1       9.867  -4.779  -5.873  0.00  0.00    +0.027 A 
ATOM     39  C   UNL     1       5.762  -2.152  -7.128  0.00  0.00    +0.063 C 
BRANCH  36  40
ATOM     40  C   UNL     1       9.271  -8.199  -4.574  0.00  0.00    +0.099 C 
ATOM     41  N   UNL     1       9.470  -9.237  -4.159  0.00  0.00    -0.191 NA
ENDBRANCH  36  40
ENDBRANCH  28  29
ENDBRANCH  27  28
ENDBRANCH  25  27
ENDBRANCH   5  23
TORSDOF 6
