REMARK  Name = ZINC41712598
REMARK  6 active torsions:
REMARK  status: ('A' for Active; 'I' for Inactive)
REMARK    1  A    between atoms: C_1  and  C_2
REMARK    2  A    between atoms: C_2  and  C_4
REMARK    3  A    between atoms: C_2  and  N_21
REMARK    4  A    between atoms: C_7  and  N_10
REMARK    5  A    between atoms: N_13  and  C_14
REMARK    6  A    between atoms: N_21  and  C_22
REMARK                            x       y       z     vdW  Elec       q    Type
REMARK                         _______ _______ _______ _____ _____    ______ ____
ROOT
ATOM      1  N   UNL     1      -5.265  -2.072   0.150  0.00  0.00    -0.269 N 
ATOM      2  C   UNL     1      -6.131  -1.690   1.110  0.00  0.00    +0.308 C 
ATOM      3  O   UNL     1      -5.759  -0.958   2.007  0.00  0.00    -0.252 OA
ATOM      4  N   UNL     1      -7.408  -2.119   1.076  0.00  0.00    -0.269 N 
ATOM      5  H   UNL     1      -5.579  -2.593  -0.606  0.00  0.00    +0.156 HD
ATOM      6  H   UNL     1      -7.686  -2.761   0.404  0.00  0.00    +0.156 HD
ENDROOT
BRANCH   4   7
ATOM      7  C   UNL     1      -8.333  -1.638   2.009  0.00  0.00    +0.035 A 
ATOM      8  C   UNL     1      -8.231  -0.336   2.482  0.00  0.00    +0.024 A 
ATOM      9  C   UNL     1      -9.146   0.136   3.403  0.00  0.00    +0.016 A 
ATOM     10  C   UNL     1     -10.163  -0.686   3.853  0.00  0.00    +0.013 A 
ATOM     11  C   UNL     1     -10.268  -1.983   3.383  0.00  0.00    +0.016 A 
ATOM     12  C   UNL     1      -9.359  -2.459   2.459  0.00  0.00    +0.024 A 
ATOM     13  I   UNL     1     -11.548   0.035   5.250  0.00  0.00    -0.044 I 
ENDBRANCH   4   7
BRANCH   1  17
ATOM     14  C   UNL     1      -1.245  -1.014   0.428  0.00  0.00    -0.062 A 
ATOM     15  C   UNL     1      -1.973  -1.266   1.576  0.00  0.00    +0.004 A 
ATOM     16  C   UNL     1      -3.306  -1.616   1.487  0.00  0.00    +0.023 A 
ATOM     17  C   UNL     1      -3.915  -1.716   0.243  0.00  0.00    +0.035 A 
ATOM     18  C   UNL     1      -3.181  -1.463  -0.908  0.00  0.00    +0.023 A 
ATOM     19  C   UNL     1      -1.850  -1.107  -0.812  0.00  0.00    +0.004 A 
BRANCH  14  21
ATOM     20  C   UNL     1       0.324   0.850   0.887  0.00  0.00    -0.009 C 
ATOM     21  C   UNL     1       0.209  -0.632   0.528  0.00  0.00    -0.044 C 
BRANCH  21  22
ATOM     22  N   UNL     1       0.857  -1.440   1.571  0.00  0.00    +0.382 N 
ATOM     23  C   UNL     1       2.297  -1.154   1.587  0.00  0.00    -0.100 C 
ATOM     24  H   UNL     1       0.458  -1.212   2.469  0.00  0.00    -0.085 HD
ATOM     25  H   UNL     1       0.710  -2.419   1.377  0.00  0.00    -0.085 HD
ENDBRANCH  21  22
ENDBRANCH  14  21
ENDBRANCH   1  17
TORSDOF 4
