REMARK  Name = ZINC39853630
REMARK  6 active torsions:
REMARK  status: ('A' for Active; 'I' for Inactive)
REMARK    1  A    between atoms: C_1  and  C_2
REMARK    2  A    between atoms: N_4  and  C_5
REMARK    3  A    between atoms: C_6  and  C_14
REMARK    4  A    between atoms: C_14  and  C_16
REMARK    5  A    between atoms: C_14  and  N_23
REMARK    6  A    between atoms: N_26  and  C_29
REMARK                            x       y       z     vdW  Elec       q    Type
REMARK                         _______ _______ _______ _____ _____    ______ ____
ROOT
ATOM      1  C   UNL     1      -3.652  -2.514   0.201  0.00  0.00    -0.003 C 
ENDROOT
BRANCH   1   3
ATOM      2  C   UNL     1      -1.234  -2.876  -0.240  0.00  0.00    +0.074 A 
ATOM      3  C   UNL     1      -2.403  -3.356   0.260  0.00  0.00    -0.025 A 
ATOM      4  C   UNL     1      -2.444  -4.629   0.829  0.00  0.00    -0.033 A 
ATOM      5  C   UNL     1      -1.276  -5.327   0.846  0.00  0.00    -0.005 A 
ATOM      6  S   UNL     1      -0.116  -4.234   0.070  0.00  0.00    -0.078 S 
ATOM      7  C   UNL     1      -1.043  -6.698   1.392  0.00  0.00    +0.043 C 
ATOM      8  C   UNL     1      -2.243  -7.079   2.273  0.00  0.00    +0.005 C 
ATOM      9  C   UNL     1      -3.532  -6.756   1.512  0.00  0.00    +0.005 C 
ATOM     10  C   UNL     1      -3.715  -5.241   1.411  0.00  0.00    +0.036 C 
BRANCH   2  14
ATOM     11  C   UNL     1       0.511  -0.071  -2.045  0.00  0.00    +0.109 C 
ATOM     12  C   UNL     1       0.233  -1.401  -1.392  0.00  0.00    +0.214 C 
ATOM     13  O   UNL     1       1.096  -2.252  -1.358  0.00  0.00    -0.276 OA
ATOM     14  N   UNL     1      -0.976  -1.643  -0.846  0.00  0.00    -0.280 N 
ATOM     15  H   UNL     1      -1.665  -0.962  -0.873  0.00  0.00    +0.155 HD
ENDBRANCH   2  14
ENDBRANCH   1   3
BRANCH   1  16
ATOM     16  C   UNL     1      -3.996  -2.227  -1.237  0.00  0.00    -0.038 A 
ATOM     17  C   UNL     1      -3.668  -1.006  -1.796  0.00  0.00    +0.004 A 
ATOM     18  C   UNL     1      -3.984  -0.742  -3.115  0.00  0.00    +0.000 A 
ATOM     19  C   UNL     1      -4.628  -1.698  -3.877  0.00  0.00    +0.001 A 
ATOM     20  C   UNL     1      -4.957  -2.920  -3.320  0.00  0.00    +0.020 A 
ATOM     21  C   UNL     1      -4.636  -3.187  -2.001  0.00  0.00    +0.043 A 
ATOM     22 CL   UNL     1      -5.043  -4.723  -1.302  0.00  0.00    -0.083 Cl
ENDBRANCH   1  16
BRANCH   1  23
ATOM     23  N   UNL     1      -3.424  -1.250   0.913  0.00  0.00    +0.389 N 
ATOM     24  C   UNL     1      -2.953  -1.534   2.274  0.00  0.00    -0.058 C 
ATOM     25  C   UNL     1      -2.606  -0.218   2.978  0.00  0.00    +0.086 C 
ATOM     26  N   UNL     1      -3.778   0.669   2.914  0.00  0.00    -0.333 N 
ATOM     27  C   UNL     1      -4.417   0.880   1.606  0.00  0.00    +0.086 C 
ATOM     28  C   UNL     1      -4.678  -0.487   0.966  0.00  0.00    -0.058 C 
ATOM     29  H   UNL     1      -2.725  -0.711   0.423  0.00  0.00    -0.080 HD
BRANCH  26  30
ATOM     30  C   UNL     1      -4.271   1.292   4.063  0.00  0.00    +0.030 A 
ATOM     31  C   UNL     1      -3.581   1.184   5.264  0.00  0.00    +0.023 A 
ATOM     32  C   UNL     1      -4.071   1.802   6.398  0.00  0.00    +0.002 A 
ATOM     33  C   UNL     1      -5.246   2.528   6.338  0.00  0.00    +0.000 A 
ATOM     34  C   UNL     1      -5.935   2.638   5.144  0.00  0.00    +0.002 A 
ATOM     35  C   UNL     1      -5.448   2.027   4.006  0.00  0.00    +0.023 A 
ENDBRANCH  26  30
ENDBRANCH   1  23
TORSDOF 5
