REMARK  Name = ZINC09488013
REMARK  9 active torsions:
REMARK  status: ('A' for Active; 'I' for Inactive)
REMARK    1  A    between atoms: C_1  and  C_2
REMARK    2  A    between atoms: C_2  and  C_4
REMARK    3  A    between atoms: C_2  and  O_17
REMARK    4  A    between atoms: N_6  and  C_7
REMARK    5  A    between atoms: C_9  and  C_15
REMARK    6  A    between atoms: C_9  and  C_16
REMARK    7  A    between atoms: C_11  and  C_13
REMARK    8  A    between atoms: C_11  and  C_14
REMARK    9  A    between atoms: O_17  and  C_18
REMARK                            x       y       z     vdW  Elec       q    Type
REMARK                         _______ _______ _______ _____ _____    ______ ____
ROOT
ATOM      1  C   UNL     1      -0.200   2.414   0.939  0.00  0.00    +0.062 C 
ATOM      2  C   UNL     1      -0.310   1.042   1.605  0.00  0.00    +0.256 C 
ENDROOT
BRANCH   2   3
ATOM      3  C   UNL     1      -1.721   0.529   1.470  0.00  0.00    +0.254 C 
ATOM      4  O   UNL     1      -2.407   0.373   2.458  0.00  0.00    -0.272 OA
ATOM      5  N   UNL     1      -2.221   0.245   0.251  0.00  0.00    -0.310 N 
ATOM      6  H   UNL     1      -1.673   0.371  -0.539  0.00  0.00    +0.149 HD
BRANCH   5   7
ATOM      7  C   UNL     1      -3.596  -0.254   0.119  0.00  0.00    +0.070 C 
ATOM      8  C   UNL     1      -3.595  -1.776   0.274  0.00  0.00    +0.009 C 
ATOM      9  C   UNL     1      -5.018  -2.312   0.127  0.00  0.00    -0.072 C 
ATOM     10  N   UNL     1      -5.642  -1.878  -1.114  0.00  0.00    +0.386 N 
ATOM     11  C   UNL     1      -5.529  -0.473  -1.472  0.00  0.00    -0.072 C 
ATOM     12  C   UNL     1      -4.124   0.086  -1.274  0.00  0.00    +0.009 C 
ATOM     13  C   UNL     1      -6.545   0.388  -0.716  0.00  0.00    -0.010 C 
ATOM     14  C   UNL     1      -5.864  -0.349  -2.977  0.00  0.00    -0.010 C 
ATOM     15  C   UNL     1      -5.853  -1.940   1.352  0.00  0.00    -0.010 C 
ATOM     16  C   UNL     1      -4.925  -3.855   0.088  0.00  0.00    -0.010 C 
ATOM     17  H   UNL     1      -5.257  -2.437  -1.879  0.00  0.00    -0.084 HD
ATOM     18  H   UNL     1      -6.635  -2.122  -1.077  0.00  0.00    -0.084 HD
ENDBRANCH   5   7
ENDBRANCH   2   3
BRANCH   2  19
ATOM     19  O   UNL     1       0.024   1.156   2.990  0.00  0.00    -0.478 OA
BRANCH  19  20
ATOM     20  C   UNL     1       1.341   1.101   3.312  0.00  0.00    +0.143 A 
ATOM     21  C   UNL     1       2.294   1.066   2.307  0.00  0.00    +0.094 A 
ATOM     22  C   UNL     1       3.640   1.010   2.635  0.00  0.00    +0.143 A 
ATOM     23  C   UNL     1       4.022   0.990   3.990  0.00  0.00    +0.023 A 
ATOM     24  C   UNL     1       3.047   1.025   4.993  0.00  0.00    +0.035 A 
ATOM     25  C   UNL     1       1.725   1.086   4.653  0.00  0.00    +0.083 A 
ATOM     26 CL   UNL     1       0.516   1.137   5.897  0.00  0.00    -0.080 Cl
ATOM     27  C   UNL     1       5.446   0.934   4.325  0.00  0.00    -0.027 A 
ATOM     28  C   UNL     1       6.348   0.906   3.312  0.00  0.00    +0.041 A 
ATOM     29  C   UNL     1       5.892   0.931   1.974  0.00  0.00    +0.341 A 
ATOM     30  O   UNL     1       6.708   0.911   1.070  0.00  0.00    -0.245 OA
ATOM     31  O   UNL     1       4.586   0.976   1.672  0.00  0.00    -0.422 OA
ATOM     32  C   UNL     1       7.753   0.851   3.870  0.00  0.00    +0.043 C 
ATOM     33  C   UNL     1       7.617   1.281   5.347  0.00  0.00    +0.010 C 
ATOM     34  C   UNL     1       6.154   0.899   5.660  0.00  0.00    +0.036 C 
ENDBRANCH  19  20
ENDBRANCH   2  19
TORSDOF 4
