REMARK  Name = ZINC37129728
REMARK  5 active torsions:
REMARK  status: ('A' for Active; 'I' for Inactive)
REMARK    1  A    between atoms: C_1  and  C_2
REMARK    2  A    between atoms: C_2  and  C_4
REMARK    3  A    between atoms: C_2  and  N_12
REMARK    4  A    between atoms: N_9  and  C_11
REMARK    5  A    between atoms: N_12  and  C_13
REMARK                            x       y       z     vdW  Elec       q    Type
REMARK                         _______ _______ _______ _____ _____    ______ ____
ROOT
ATOM      1  C   UNL     1      -0.020  -0.613  -2.403  0.00  0.00    +0.044 A 
ATOM      2  C   UNL     1      -1.369  -0.295  -2.451  0.00  0.00    +0.051 A 
ATOM      3  C   UNL     1      -2.068  -0.431  -3.640  0.00  0.00    +0.069 A 
ATOM      4  C   UNL     1      -1.411  -0.887  -4.785  0.00  0.00    +0.068 A 
ATOM      5  C   UNL     1      -0.062  -1.203  -4.732  0.00  0.00    +0.045 A 
ATOM      6  C   UNL     1       0.632  -1.062  -3.546  0.00  0.00    +0.041 A 
ATOM      7 BR   UNL     1       2.474  -1.486  -3.476  0.00  0.00    -0.048 Br
ATOM      8  N   UNL     1      -2.361  -0.919  -5.808  0.00  0.00    -0.306 N 
ATOM      9  H   UNL     1      -2.200  -1.194  -6.724  0.00  0.00    +0.170 HD
ATOM     10  C   UNL     1      -3.538  -0.501  -5.305  0.00  0.00    +0.325 A 
ATOM     11  O   UNL     1      -4.575  -0.409  -5.934  0.00  0.00    -0.247 OA
ATOM     12  N   UNL     1      -3.393  -0.200  -4.001  0.00  0.00    -0.306 N 
ATOM     13  H   UNL     1      -4.093   0.122  -3.412  0.00  0.00    +0.170 HD
ENDROOT
BRANCH   1  14
ATOM     14  N   UNL     1       0.688  -0.476  -1.203  0.00  0.00    -0.340 N 
ATOM     15  H   UNL     1       1.632  -0.695  -1.170  0.00  0.00    +0.146 HD
BRANCH  14  17
ATOM     16  C   UNL     1      -0.019   1.526   0.010  0.00  0.00    +0.028 C 
ATOM     17  C   UNL     1       0.002  -0.004   0.002  0.00  0.00    +0.069 C 
BRANCH  17  18
ATOM     18  C   UNL     1       0.742  -0.511   1.242  0.00  0.00    -0.008 C 
ATOM     19  C   UNL     1       2.136   0.120   1.298  0.00  0.00    +0.002 C 
ATOM     20  C   UNL     1       2.839  -0.333   2.582  0.00  0.00    -0.018 C 
ATOM     21  C   UNL     1       1.980   0.051   3.789  0.00  0.00    -0.079 C 
ATOM     22  N   UNL     1       0.670  -0.604   3.689  0.00  0.00    +0.378 N 
ATOM     23  C   UNL     1      -0.040  -0.122   2.498  0.00  0.00    -0.074 C 
ATOM     24  C   UNL     1      -0.122  -0.296   4.887  0.00  0.00    -0.096 C 
ATOM     25  H   UNL     1       0.798  -1.603   3.621  0.00  0.00    -0.082 HD
ENDBRANCH  17  18
ENDBRANCH  14  17
ENDBRANCH   1  14
TORSDOF 3
