REMARK  Name = ZINC08726314
REMARK  7 active torsions:
REMARK  status: ('A' for Active; 'I' for Inactive)
REMARK    1  A    between atoms: C_1  and  C_2
REMARK    2  A    between atoms: C_5  and  C_7
REMARK    3  A    between atoms: C_7  and  C_8
REMARK    4  A    between atoms: C_15  and  C_16
REMARK    5  A    between atoms: C_15  and  N_58
REMARK    6  A    between atoms: N_18  and  C_19
REMARK    7  A    between atoms: C_20  and  C_28
REMARK                            x       y       z     vdW  Elec       q    Type
REMARK                         _______ _______ _______ _____ _____    ______ ____
ROOT
ATOM      1  C   UNL     1     -10.889   2.122   1.869  0.00  0.00    +0.201 C 
ATOM      2  O   UNL     1     -10.384   3.155   2.254  0.00  0.00    -0.278 OA
ATOM      3  N   UNL     1     -12.124   2.136   1.329  0.00  0.00    -0.281 N 
ATOM      4  H   UNL     1     -12.528   1.310   1.021  0.00  0.00    +0.155 HD
ENDROOT
BRANCH   3   5
ATOM      5  C   UNL     1     -12.817   3.332   1.214  0.00  0.00    +0.084 A 
ATOM      6  C   UNL     1     -14.082   3.548   0.687  0.00  0.00    +0.068 A 
ATOM      7  C   UNL     1     -14.586   4.911   0.689  0.00  0.00    -0.023 A 
ATOM      8  C   UNL     1     -13.745   5.835   1.203  0.00  0.00    -0.004 A 
ATOM      9  S   UNL     1     -12.309   4.920   1.688  0.00  0.00    -0.077 S 
ATOM     10  C   UNL     1     -13.989   7.307   1.328  0.00  0.00    +0.043 C 
ATOM     11  C   UNL     1     -15.188   7.676   0.444  0.00  0.00    +0.005 C 
ATOM     12  C   UNL     1     -16.323   6.684   0.713  0.00  0.00    +0.005 C 
ATOM     13  C   UNL     1     -15.956   5.309   0.152  0.00  0.00    +0.037 C 
BRANCH   6  14
ATOM     14  C   UNL     1     -14.883   2.442   0.153  0.00  0.00    +0.244 C 
ATOM     15  O   UNL     1     -15.639   1.829   0.884  0.00  0.00    -0.270 OA
ATOM     16  N   UNL     1     -14.781   2.104  -1.148  0.00  0.00    -0.325 N 
ATOM     17  H   UNL     1     -14.179   2.592  -1.730  0.00  0.00    +0.145 HD
ATOM     18  H   UNL     1     -15.311   1.372  -1.501  0.00  0.00    +0.145 HD
ENDBRANCH   6  14
ENDBRANCH   3   5
BRANCH   1  19
ATOM     19  C   UNL     1     -10.136   0.822   1.993  0.00  0.00    +0.019 C 
BRANCH  19  27
ATOM     20  C   UNL     1      -6.166   3.409   4.637  0.00  0.00    +0.222 C 
ATOM     21  O   UNL     1      -5.353   4.021   3.977  0.00  0.00    -0.275 OA
ATOM     22  N   UNL     1      -6.851   2.388   4.083  0.00  0.00    -0.305 N 
ATOM     23  C   UNL     1      -7.837   1.629   4.867  0.00  0.00    +0.089 C 
ATOM     24  C   UNL     1      -9.151   1.580   4.071  0.00  0.00    -0.059 C 
ATOM     25  C   UNL     1      -7.986   1.934   1.974  0.00  0.00    -0.059 C 
ATOM     26  C   UNL     1      -6.629   2.001   2.682  0.00  0.00    +0.089 C 
ATOM     27  N   UNL     1      -8.871   1.022   2.730  0.00  0.00    +0.387 N 
ATOM     28  H   UNL     1      -8.402   0.116   2.838  0.00  0.00    -0.081 HD
BRANCH  20  29
ATOM     29  C   UNL     1      -6.410   3.788   6.074  0.00  0.00    +0.158 C 
BRANCH  29  34
ATOM     30  C   UNL     1      -5.176   8.607   6.607  0.00  0.00    +0.066 C 
ATOM     31  C   UNL     1      -4.880   7.134   6.721  0.00  0.00    +0.046 A 
ATOM     32  C   UNL     1      -3.689   6.700   7.207  0.00  0.00    +0.070 A 
ATOM     33  S   UNL     1      -3.918   4.930   7.104  0.00  0.00    -0.080 S 
ATOM     34  C   UNL     1      -5.524   4.950   6.444  0.00  0.00    +0.087 A 
ATOM     35  N   UNL     1      -5.771   6.237   6.356  0.00  0.00    -0.249 NA
ENDBRANCH  29  34
ENDBRANCH  20  29
ENDBRANCH  19  27
ENDBRANCH   1  19
TORSDOF 6
