REMARK  Name = ZINC25677458
REMARK  9 active torsions:
REMARK  status: ('A' for Active; 'I' for Inactive)
REMARK    1  A    between atoms: C_1  and  C_2
REMARK    2  A    between atoms: C_5  and  S_9
REMARK    3  A    between atoms: C_6  and  C_8
REMARK    4  A    between atoms: S_9  and  N_12
REMARK    5  A    between atoms: N_15  and  C_18
REMARK    6  A    between atoms: C_18  and  C_20
REMARK    7  A    between atoms: C_18  and  C_21
REMARK    8  A    between atoms: N_23  and  C_24
REMARK    9  A    between atoms: C_25  and  C_29
REMARK                            x       y       z     vdW  Elec       q    Type
REMARK                         _______ _______ _______ _____ _____    ______ ____
ROOT
ATOM      1  N   UNL     1      -5.278   2.989   0.860  0.00  0.00    -0.180 NA
ATOM      2  C   UNL     1      -5.645   1.905  -0.064  0.00  0.00    +0.091 C 
ATOM      3  C   UNL     1      -4.818   0.664   0.289  0.00  0.00    -0.060 C 
ATOM      4  N   UNL     1      -3.392   1.016   0.298  0.00  0.00    +0.389 N 
ATOM      5  C   UNL     1      -3.095   2.013   1.336  0.00  0.00    -0.060 C 
ATOM      6  C   UNL     1      -3.852   3.309   1.026  0.00  0.00    +0.091 C 
ATOM      7  H   UNL     1      -3.153   1.467  -0.677  0.00  0.00    -0.081 HD
ENDROOT
BRANCH   1   8
ATOM      8  S   UNL     1      -6.440   3.828   1.690  0.00  0.00    +0.061 S 
ATOM      9  O   UNL     1      -5.915   5.128   1.920  0.00  0.00    -0.153 OA
ATOM     10  O   UNL     1      -7.665   3.611   1.005  0.00  0.00    -0.153 OA
BRANCH   8  15
ATOM     11  C   UNL     1      -7.005   1.216   7.100  0.00  0.00    +0.044 C 
ATOM     12  C   UNL     1      -6.863   1.868   5.748  0.00  0.00    -0.050 A 
ATOM     13  C   UNL     1      -6.335   3.142   5.648  0.00  0.00    +0.005 A 
ATOM     14  C   UNL     1      -6.206   3.741   4.408  0.00  0.00    +0.029 A 
ATOM     15  C   UNL     1      -6.604   3.065   3.270  0.00  0.00    +0.108 A 
ATOM     16  C   UNL     1      -7.136   1.794   3.371  0.00  0.00    -0.024 A 
ATOM     17  C   UNL     1      -7.261   1.193   4.610  0.00  0.00    +0.008 A 
ATOM     18  C   UNL     1      -7.576   1.060   2.130  0.00  0.00    +0.046 C 
ENDBRANCH   8  15
ENDBRANCH   1   8
BRANCH   4  19
ATOM     19  C   UNL     1      -2.555  -0.180   0.462  0.00  0.00    +0.017 C 
ATOM     20  C   UNL     1      -3.094  -1.025   1.618  0.00  0.00    -0.004 C 
BRANCH  19  21
ATOM     21  C   UNL     1      -2.582  -0.990  -0.808  0.00  0.00    +0.204 C 
ATOM     22  O   UNL     1      -3.458  -0.806  -1.626  0.00  0.00    -0.277 OA
ATOM     23  N   UNL     1      -1.631  -1.918  -1.035  0.00  0.00    -0.281 N 
ATOM     24  H   UNL     1      -0.834  -2.082  -0.296  0.00  0.00    +0.155 HD
BRANCH  23  25
ATOM     25  C   UNL     1      -1.659  -2.668  -2.202  0.00  0.00    +0.084 A 
ATOM     26  C   UNL     1      -0.777  -3.661  -2.611  0.00  0.00    +0.065 A 
ATOM     27  C   UNL     1      -1.049  -4.287  -3.883  0.00  0.00    +0.022 A 
ATOM     28  C   UNL     1      -2.123  -3.850  -4.566  0.00  0.00    +0.048 A 
ATOM     29  S   UNL     1      -2.797  -2.588  -3.505  0.00  0.00    -0.081 S 
BRANCH  26  30
ATOM     30  C   UNL     1       0.371  -4.056  -1.790  0.00  0.00    +0.244 C 
ATOM     31  O   UNL     1       0.571  -3.510  -0.720  0.00  0.00    -0.270 OA
ATOM     32  N   UNL     1       1.206  -5.023  -2.219  0.00  0.00    -0.325 N 
ATOM     33  H   UNL     1       2.067  -5.320  -1.602  0.00  0.00    +0.145 HD
ATOM     34  H   UNL     1       1.026  -5.516  -3.185  0.00  0.00    +0.145 HD
ENDBRANCH  26  30
ENDBRANCH  23  25
ENDBRANCH  19  21
ENDBRANCH   4  19
TORSDOF 6
