REMARK  Name = ZINC14475941
REMARK  7 active torsions:
REMARK  status: ('A' for Active; 'I' for Inactive)
REMARK    1  A    between atoms: C_4  and  C_7
REMARK    2  A    between atoms: C_7  and  C_8
REMARK    3  A    between atoms: C_8  and  N_9
REMARK    4  A    between atoms: C_10  and  C_12
REMARK    5  A    between atoms: C_19  and  C_28
REMARK    6  A    between atoms: C_30  and  N_35
REMARK    7  A    between atoms: C_33  and  O_34
REMARK                            x       y       z     vdW  Elec       q    Type
REMARK                         _______ _______ _______ _____ _____    ______ ____
ROOT
ATOM      1  C   UNL     1       5.381  -1.010  -0.272  0.00  0.00    +0.058 A 
ATOM      2  C   UNL     1       5.586  -2.140   0.521  0.00  0.00    +0.015 A 
ATOM      3  C   UNL     1       5.280  -2.094   1.864  0.00  0.00    +0.001 A 
ATOM      4  C   UNL     1       4.772  -0.935   2.424  0.00  0.00    +0.006 A 
ATOM      5  C   UNL     1       4.562   0.198   1.652  0.00  0.00    -0.019 A 
ATOM      6  C   UNL     1       4.865   0.168   0.303  0.00  0.00    +0.044 A 
ATOM      7  N   UNL     1       4.690   1.286  -0.528  0.00  0.00    -0.336 N 
ATOM      8  C   UNL     1       3.593   2.124  -0.041  0.00  0.00    +0.108 C 
ATOM      9  C   UNL     1       3.900   2.610   1.367  0.00  0.00    +0.029 C 
ATOM     10  C   UNL     1       4.005   1.417   2.339  0.00  0.00    +0.049 C 
ATOM     11  C   UNL     1       5.047   1.901   3.353  0.00  0.00    -0.023 C 
ATOM     12  C   UNL     1       5.766   2.876   2.857  0.00  0.00    -0.030 C 
ATOM     13  C   UNL     1       5.337   3.183   1.435  0.00  0.00    +0.033 C 
ATOM     14  H   UNL     1       5.244   1.576  -1.433  0.00  0.00    +0.147 HD
ENDROOT
BRANCH   8  15
ATOM     15  C   UNL     1       2.318   1.321  -0.026  0.00  0.00    +0.017 A 
ATOM     16  C   UNL     1       1.485   1.365   1.076  0.00  0.00    +0.041 A 
ATOM     17  C   UNL     1       0.316   0.629   1.090  0.00  0.00    +0.127 A 
ATOM     18  C   UNL     1      -0.025  -0.154   0.002  0.00  0.00    +0.036 A 
ATOM     19  C   UNL     1       0.804  -0.202  -1.102  0.00  0.00    +0.048 A 
ATOM     20  C   UNL     1       1.978   0.537  -1.119  0.00  0.00    +0.122 A 
BRANCH  17  21
ATOM     21  N   UNL     1      -0.574   0.678   2.272  0.00  0.00    +0.056 N 
ATOM     22  O   UNL     1      -1.605   0.029   2.285  0.00  0.00    -0.126 OA
ATOM     23  O   UNL     1      -0.275   1.367   3.230  0.00  0.00    -0.126 OA
ENDBRANCH  17  21
BRANCH  20  24
ATOM     24  O   UNL     1       2.796   0.491  -2.204  0.00  0.00    -0.506 OA
ATOM     25  H   UNL     1       2.526  -0.131  -3.070  0.00  0.00    +0.292 HD
ENDBRANCH  20  24
ENDBRANCH   8  15
BRANCH   1  27
ATOM     26  N   UNL     1       6.073  -2.210  -2.286  0.00  0.00    -0.311 N 
ATOM     27  C   UNL     1       5.706  -1.049  -1.709  0.00  0.00    +0.246 C 
ATOM     28  O   UNL     1       5.643  -0.033  -2.374  0.00  0.00    -0.270 OA
ATOM     29  H   UNL     1       6.130  -3.129  -1.684  0.00  0.00    +0.149 HD
BRANCH  26  30
ATOM     30  C   UNL     1       6.395  -2.249  -3.715  0.00  0.00    +0.109 C 
BRANCH  30  31
ATOM     31  C   UNL     1       6.777  -3.676  -4.113  0.00  0.00    +0.054 C 
BRANCH  31  35
ATOM     32  C   UNL     1       7.718  -3.789  -8.278  0.00  0.00    +0.000 A 
ATOM     33  C   UNL     1       8.712  -3.534  -7.352  0.00  0.00    +0.000 A 
ATOM     34  C   UNL     1       8.408  -3.498  -6.004  0.00  0.00    +0.004 A 
ATOM     35  C   UNL     1       7.109  -3.716  -5.582  0.00  0.00    -0.046 A 
ATOM     36  C   UNL     1       6.116  -3.976  -6.508  0.00  0.00    +0.004 A 
ATOM     37  C   UNL     1       6.420  -4.007  -7.857  0.00  0.00    +0.000 A 
ENDBRANCH  31  35
ENDBRANCH  30  31
ENDBRANCH  26  30
ENDBRANCH   1  27
TORSDOF 7
