REMARK  Name = ZINC14543860
REMARK  12 active torsions:
REMARK  status: ('A' for Active; 'I' for Inactive)
REMARK    1  A    between atoms: C_1  and  C_2
REMARK    2  A    between atoms: C_2  and  N_67
REMARK    3  A    between atoms: C_3  and  C_4
REMARK    4  A    between atoms: C_3  and  N_67
REMARK    5  A    between atoms: C_5  and  C_6
REMARK    6  A    between atoms: C_5  and  N_67
REMARK    7  A    between atoms: C_6  and  N_7
REMARK    8  A    between atoms: C_8  and  C_10
REMARK    9  A    between atoms: C_23  and  C_26
REMARK   10  A    between atoms: C_29  and  O_32
REMARK   11  A    between atoms: O_32  and  C_33
REMARK   12  A    between atoms: C_33  and  C_34
REMARK                            x       y       z     vdW  Elec       q    Type
REMARK                         _______ _______ _______ _____ _____    ______ ____
ROOT
ATOM      1  C   UNL     1       3.304   1.956  -1.236  0.00  0.00    +0.037 A 
ATOM      2  C   UNL     1       3.923   2.727  -0.247  0.00  0.00    +0.015 A 
ATOM      3  C   UNL     1       3.151   3.408   0.665  0.00  0.00    +0.024 A 
ATOM      4  C   UNL     1       1.762   3.330   0.604  0.00  0.00    +0.031 A 
ATOM      5  C   UNL     1       1.136   2.564  -0.373  0.00  0.00    -0.019 A 
ATOM      6  C   UNL     1       1.913   1.881  -1.291  0.00  0.00    +0.019 A 
ATOM      7  C   UNL     1      -0.352   2.452  -0.470  0.00  0.00    +0.049 C 
ATOM      8  C   UNL     1      -0.892   3.267  -1.622  0.00  0.00    -0.023 C 
ATOM      9  C   UNL     1      -2.028   3.810  -1.319  0.00  0.00    -0.030 C 
ATOM     10  C   UNL     1      -2.430   3.431   0.093  0.00  0.00    +0.033 C 
ATOM     11  C   UNL     1      -1.080   3.033   0.758  0.00  0.00    +0.029 C 
ATOM     12  C   UNL     1      -0.404   4.314   1.220  0.00  0.00    +0.105 C 
ATOM     13  N   UNL     1       1.000   4.033   1.536  0.00  0.00    -0.336 N 
ATOM     14  H   UNL     1       1.390   4.329   2.373  0.00  0.00    +0.147 HD
ENDROOT
BRANCH  12  15
ATOM     15  C   UNL     1      -0.478   5.337   0.117  0.00  0.00    -0.027 A 
ATOM     16  C   UNL     1       0.527   5.405  -0.830  0.00  0.00    +0.009 A 
ATOM     17  C   UNL     1       0.458   6.339  -1.846  0.00  0.00    +0.046 A 
ATOM     18  C   UNL     1      -0.615   7.217  -1.908  0.00  0.00    +0.121 A 
ATOM     19  C   UNL     1      -1.619   7.150  -0.953  0.00  0.00    +0.046 A 
ATOM     20  C   UNL     1      -1.548   6.210   0.057  0.00  0.00    +0.009 A 
BRANCH  18  21
ATOM     21  O   UNL     1      -0.681   8.141  -2.903  0.00  0.00    -0.492 OA
BRANCH  21  22
ATOM     22  C   UNL     1       0.388   8.152  -3.851  0.00  0.00    +0.225 C 
ATOM     23  C   UNL     1       0.140   9.250  -4.886  0.00  0.00    +0.048 C 
ENDBRANCH  21  22
ENDBRANCH  18  21
ENDBRANCH  12  15
BRANCH   1  25
ATOM     24  N   UNL     1       5.468   1.296  -2.166  0.00  0.00    -0.313 N 
ATOM     25  C   UNL     1       4.123   1.222  -2.220  0.00  0.00    +0.244 C 
ATOM     26  O   UNL     1       3.584   0.551  -3.079  0.00  0.00    -0.270 OA
ATOM     27  H   UNL     1       5.897   1.831  -1.480  0.00  0.00    +0.149 HD
BRANCH  24  28
ATOM     28  C   UNL     1       6.280   0.567  -3.143  0.00  0.00    +0.086 C 
BRANCH  28  29
ATOM     29  C   UNL     1       7.763   0.818  -2.861  0.00  0.00    -0.060 C 
BRANCH  29  30
ATOM     30  N   UNL     1       8.569   0.060  -3.841  0.00  0.00    +0.380 N 
ATOM     31  H   UNL     1       8.258  -0.919  -3.842  0.00  0.00    -0.082 HD
BRANCH  30  33
ATOM     32  C   UNL     1       8.796   2.098  -5.221  0.00  0.00    -0.017 C 
ATOM     33  C   UNL     1       8.383   0.625  -5.194  0.00  0.00    -0.082 C 
ENDBRANCH  30  33
BRANCH  30  34
ATOM     34  C   UNL     1       9.998   0.109  -3.465  0.00  0.00    -0.082 C 
ATOM     35  C   UNL     1      10.778  -0.853  -4.363  0.00  0.00    -0.017 C 
ENDBRANCH  30  34
ENDBRANCH  29  30
ENDBRANCH  28  29
ENDBRANCH  24  28
ENDBRANCH   1  25
TORSDOF 9
