REMARK  Name = ZINC13035739
REMARK  9 active torsions:
REMARK  status: ('A' for Active; 'I' for Inactive)
REMARK    1  A    between atoms: C_1  and  N_2
REMARK    2  A    between atoms: N_2  and  C_3
REMARK    3  A    between atoms: C_3  and  C_4
REMARK    4  A    between atoms: C_15  and  C_17
REMARK    5  A    between atoms: C_17  and  O_18
REMARK    6  A    between atoms: O_18  and  C_19
REMARK    7  A    between atoms: C_22  and  S_27
REMARK    8  A    between atoms: C_24  and  C_25
REMARK    9  A    between atoms: S_27  and  N_30
REMARK                            x       y       z     vdW  Elec       q    Type
REMARK                         _______ _______ _______ _____ _____    ______ ____
ROOT
ATOM      1  O   UNL     1      -3.076   3.005   4.793  0.00  0.00    -0.482 OA
ENDROOT
BRANCH   1   2
ATOM      2  C   UNL     1      -2.371   2.643   3.692  0.00  0.00    +0.135 A 
ATOM      3  C   UNL     1      -2.566   1.395   3.118  0.00  0.00    +0.048 A 
ATOM      4  C   UNL     1      -1.847   1.028   1.999  0.00  0.00    +0.032 A 
ATOM      5  C   UNL     1      -0.927   1.900   1.439  0.00  0.00    +0.106 A 
ATOM      6  C   UNL     1      -0.715   3.141   1.999  0.00  0.00    +0.047 A 
ATOM      7  C   UNL     1      -1.440   3.528   3.130  0.00  0.00    +0.107 A 
BRANCH   7   8
ATOM      8  C   UNL     1      -1.223   4.856   3.732  0.00  0.00    +0.390 C 
ATOM      9  O   UNL     1      -1.851   5.186   4.718  0.00  0.00    -0.240 OA
ATOM     10  O   UNL     1      -0.327   5.703   3.188  0.00  0.00    -0.240 OA
ENDBRANCH   7   8
BRANCH   5  11
ATOM     11  S   UNL     1      -0.017   1.417   0.010  0.00  0.00    +0.061 S 
ATOM     12  O   UNL     1       0.002  -0.004   0.002  0.00  0.00    -0.153 OA
ATOM     13  O   UNL     1       1.172   2.195   0.003  0.00  0.00    -0.153 OA
BRANCH  11  14
ATOM     14  N   UNL     1      -0.897   1.885  -1.312  0.00  0.00    -0.177 NA
ATOM     15  C   UNL     1      -1.909   1.071  -2.000  0.00  0.00    +0.109 C 
ATOM     16  C   UNL     1      -2.444   1.906  -3.183  0.00  0.00    +0.018 C 
ATOM     17  C   UNL     1      -1.295   2.918  -3.438  0.00  0.00    +0.018 C 
ATOM     18  C   UNL     1      -0.792   3.186  -1.998  0.00  0.00    +0.109 C 
ENDBRANCH  11  14
ENDBRANCH   5  11
ENDBRANCH   1   2
BRANCH   1  19
ATOM     19  C   UNL     1      -4.006   2.050   5.310  0.00  0.00    +0.324 C 
BRANCH  19  22
ATOM     20  C   UNL     1      -5.954   0.549   6.718  0.00  0.00    +0.132 C 
ATOM     21  N   UNL     1      -5.615   1.897   7.183  0.00  0.00    -0.298 N 
ATOM     22  C   UNL     1      -4.691   2.624   6.524  0.00  0.00    +0.253 C 
ATOM     23  O   UNL     1      -4.410   3.739   6.909  0.00  0.00    -0.272 OA
BRANCH  21  24
ATOM     24  C   UNL     1      -6.281   2.454   8.363  0.00  0.00    +0.155 C 
BRANCH  24  25
ATOM     25  C   UNL     1      -7.546   3.198   7.931  0.00  0.00    +0.228 C 
ATOM     26  C   UNL     1      -8.232   3.809   9.160  0.00  0.00    +0.275 C 
ATOM     27  O   UNL     1      -9.402   4.508   8.719  0.00  0.00    -0.485 OA
ATOM     28  C   UNL     1      -9.257   5.321   7.637  0.00  0.00    +0.162 A 
ATOM     29  C   UNL     1     -10.221   6.283   7.374  0.00  0.00    +0.049 A 
ATOM     30  C   UNL     1     -10.091   7.112   6.276  0.00  0.00    +0.004 A 
ATOM     31  C   UNL     1      -9.000   6.984   5.436  0.00  0.00    +0.004 A 
ATOM     32  C   UNL     1      -8.035   6.029   5.693  0.00  0.00    +0.049 A 
ATOM     33  C   UNL     1      -8.159   5.195   6.794  0.00  0.00    +0.163 A 
ATOM     34  O   UNL     1      -7.199   4.260   7.035  0.00  0.00    -0.480 OA
ENDBRANCH  24  25
ENDBRANCH  21  24
ENDBRANCH  19  22
ENDBRANCH   1  19
TORSDOF 8
