REMARK  Name = ZINC43262819
REMARK  9 active torsions:
REMARK  status: ('A' for Active; 'I' for Inactive)
REMARK    1  A    between atoms: C_1  and  C_2
REMARK    2  A    between atoms: C_2  and  C_4
REMARK    3  A    between atoms: C_2  and  N_22
REMARK    4  A    between atoms: C_4  and  C_6
REMARK    5  A    between atoms: C_4  and  N_12
REMARK    6  A    between atoms: N_12  and  C_13
REMARK    7  A    between atoms: N_12  and  C_16
REMARK    8  A    between atoms: C_13  and  C_14
REMARK    9  A    between atoms: C_14  and  O_15
REMARK                            x       y       z     vdW  Elec       q    Type
REMARK                         _______ _______ _______ _____ _____    ______ ____
ROOT
ATOM      1  C   UNL     1       0.976  -0.729   1.434  0.00  0.00    -0.014 C 
ENDROOT
BRANCH   1   2
ATOM      2  C   UNL     1      -0.024  -0.558   2.548  0.00  0.00    -0.021 A 
ATOM      3  C   UNL     1      -0.026   0.341   3.563  0.00  0.00    +0.011 A 
ATOM      4  C   UNL     1      -1.058   0.312   4.482  0.00  0.00    +0.023 A 
ATOM      5  C   UNL     1      -2.038  -0.615   4.342  0.00  0.00    +0.055 A 
ATOM      6  S   UNL     1      -1.517  -1.482   2.870  0.00  0.00    -0.088 S 
ATOM      7 BR   UNL     1      -3.564  -0.908   5.420  0.00  0.00    -0.043 Br
ENDBRANCH   1   2
BRANCH   1   9
ATOM      8  C   UNL     1      -0.383   1.160   0.525  0.00  0.00    +0.022 C 
ATOM      9  C   UNL     1       0.433  -0.081   0.159  0.00  0.00    +0.039 C 
BRANCH   9  10
ATOM     10  N   UNL     1       1.554   0.309  -0.708  0.00  0.00    -0.329 NA
ATOM     11  H   UNL     1       2.250   0.824  -0.189  0.00  0.00    +0.118 HD
ATOM     12  H   UNL     1       1.962  -0.498  -1.156  0.00  0.00    +0.118 HD
ENDBRANCH   9  10
ENDBRANCH   1   9
BRANCH   1  13
ATOM     13  N   UNL     1       1.204  -2.161   1.196  0.00  0.00    +0.389 N 
ATOM     14  H   UNL     1       0.317  -2.631   1.095  0.00  0.00    -0.080 HD
BRANCH  13  15
ATOM     15  C   UNL     1       1.936  -2.735   2.333  0.00  0.00    -0.068 C 
ATOM     16  C   UNL     1       1.033  -2.743   3.569  0.00  0.00    -0.015 C 
ATOM     17  C   UNL     1       1.795  -3.341   4.753  0.00  0.00    -0.002 C 
ATOM     18  C   UNL     1       3.040  -2.498   5.037  0.00  0.00    -0.000 C 
ATOM     19  C   UNL     1       3.943  -2.490   3.801  0.00  0.00    -0.002 C 
ATOM     20  C   UNL     1       3.181  -1.892   2.617  0.00  0.00    -0.015 C 
ENDBRANCH  13  15
BRANCH  13  21
ATOM     21  C   UNL     1       1.993  -2.333  -0.031  0.00  0.00    -0.049 C 
BRANCH  21  22
ATOM     22  C   UNL     1       2.233  -3.824  -0.277  0.00  0.00    +0.137 C 
BRANCH  22  23
ATOM     23  O   UNL     1       0.982  -4.476  -0.511  0.00  0.00    -0.397 OA
ATOM     24  H   UNL     1       1.058  -5.426  -0.675  0.00  0.00    +0.209 HD
ENDBRANCH  22  23
ENDBRANCH  21  22
ENDBRANCH  13  21
ENDBRANCH   1  13
TORSDOF 8
