REMARK  Name = ZINC08781922
REMARK  10 active torsions:
REMARK  status: ('A' for Active; 'I' for Inactive)
REMARK    1  A    between atoms: C_1  and  N_2
REMARK    2  A    between atoms: N_2  and  C_3
REMARK    3  A    between atoms: C_3  and  N_5
REMARK    4  A    between atoms: N_5  and  C_6
REMARK    5  A    between atoms: N_5  and  C_19
REMARK    6  A    between atoms: C_6  and  C_7
REMARK    7  A    between atoms: C_7  and  N_8
REMARK    8  A    between atoms: N_8  and  C_9
REMARK    9  A    between atoms: C_12  and  C_14
REMARK   10  A    between atoms: C_19  and  C_20
REMARK                            x       y       z     vdW  Elec       q    Type
REMARK                         _______ _______ _______ _____ _____    ______ ____
ROOT
ATOM      1  C   UNL     1      -1.794   0.768  -1.771  0.00  0.00    +0.126 C 
ENDROOT
BRANCH   1   2
ATOM      2  N   UNL     1      -0.721   1.571  -1.179  0.00  0.00    -0.307 N 
BRANCH   2   3
ATOM      3  C   UNL     1      -0.386   2.756  -1.726  0.00  0.00    +0.133 C 
ATOM      4  S   UNL     1      -1.214   3.324  -3.113  0.00  0.00    -0.019 S 
BRANCH   3   6
ATOM      5  C   UNL     1       0.965   4.784  -1.776  0.00  0.00    +0.127 C 
ATOM      6  N   UNL     1       0.601   3.495  -1.181  0.00  0.00    -0.329 N 
ATOM      7  H   UNL     1       1.070   3.174  -0.395  0.00  0.00    +0.147 HD
ENDBRANCH   3   6
ENDBRANCH   2   3
BRANCH   2   8
ATOM      8  C   UNL     1      -0.013   1.086   0.008  0.00  0.00    +0.142 C 
BRANCH   8   9
ATOM      9  C   UNL     1      -0.718   1.572   1.248  0.00  0.00    -0.030 A 
ATOM     10  C   UNL     1      -0.360   2.779   1.818  0.00  0.00    +0.006 A 
ATOM     11  C   UNL     1      -1.010   3.228   2.952  0.00  0.00    +0.020 A 
ATOM     12  C   UNL     1      -2.012   2.464   3.523  0.00  0.00    +0.041 A 
ATOM     13  C   UNL     1      -2.367   1.253   2.955  0.00  0.00    +0.020 A 
ATOM     14  C   UNL     1      -1.719   0.808   1.817  0.00  0.00    +0.006 A 
ATOM     15 CL   UNL     1      -2.825   3.024   4.951  0.00  0.00    -0.084 Cl
ENDBRANCH   8   9
ENDBRANCH   2   8
ENDBRANCH   1   2
BRANCH   1  16
ATOM     16  C   UNL     1      -3.130   1.151  -1.132  0.00  0.00    +0.122 C 
BRANCH  16  17
ATOM     17  N   UNL     1      -4.203   0.348  -1.724  0.00  0.00    -0.328 N 
ATOM     18  H   UNL     1      -3.997  -0.304  -2.412  0.00  0.00    +0.147 HD
BRANCH  17  19
ATOM     19  C   UNL     1      -5.516   0.519  -1.299  0.00  0.00    +0.115 A 
ATOM     20  C   UNL     1      -6.531  -0.243  -1.870  0.00  0.00    +0.079 A 
ATOM     21  C   UNL     1      -7.832  -0.065  -1.433  0.00  0.00    +0.037 A 
ATOM     22  C   UNL     1      -8.076   0.880  -0.445  0.00  0.00    +0.072 A 
ATOM     23  C   UNL     1      -7.022   1.605   0.073  0.00  0.00    +0.096 A 
ATOM     24 CL   UNL     1      -6.170  -1.405  -3.108  0.00  0.00    -0.080 Cl
ATOM     25  N   UNL     1      -5.731   1.453  -0.328  0.00  0.00    -0.348 N 
ATOM     26  H   UNL     1      -4.966   2.007   0.076  0.00  0.00    +0.167 HD
BRANCH  22  27
ATOM     27  C   UNL     1      -9.478   1.111   0.057  0.00  0.00    +0.419 C 
ATOM     28  F   UNL     1      -9.462   2.104   1.043  0.00  0.00    -0.166 F 
ATOM     29  F   UNL     1     -10.292   1.521  -1.004  0.00  0.00    -0.166 F 
ATOM     30  F   UNL     1      -9.981  -0.076   0.599  0.00  0.00    -0.166 F 
ENDBRANCH  22  27
ENDBRANCH  17  19
ENDBRANCH  16  17
ENDBRANCH   1  16
TORSDOF 9
