REMARK  Name = ZINC22495835
REMARK  13 active torsions:
REMARK  status: ('A' for Active; 'I' for Inactive)
REMARK    1  A    between atoms: C_1  and  C_2
REMARK    2  A    between atoms: C_2  and  C_3
REMARK    3  A    between atoms: C_2  and  C_4
REMARK    4  A    between atoms: C_7  and  C_10
REMARK    5  A    between atoms: C_10  and  C_33
REMARK    6  A    between atoms: N_13  and  C_17
REMARK    7  A    between atoms: C_17  and  C_18
REMARK    8  A    between atoms: C_18  and  C_20
REMARK    9  A    between atoms: C_23  and  N_26
REMARK   10  A    between atoms: C_27  and  C_29
REMARK   11  A    between atoms: C_29  and  C_30
REMARK   12  A    between atoms: C_29  and  C_31
REMARK   13  A    between atoms: C_29  and  C_32
REMARK                            x       y       z     vdW  Elec       q    Type
REMARK                         _______ _______ _______ _____ _____    ______ ____
ROOT
ATOM      1  C   UNL     1      -5.564  -2.014   0.146  0.00  0.00    +0.135 C 
ATOM      2  C   UNL     1      -5.702  -3.400  -0.452  0.00  0.00    +0.251 C 
ATOM      3  O   UNL     1      -5.582  -3.710  -1.617  0.00  0.00    -0.272 OA
ATOM      4  N   UNL     1      -5.986  -4.216   0.583  0.00  0.00    -0.216 N 
ATOM      5  C   UNL     1      -6.046  -3.545   1.738  0.00  0.00    +0.310 C 
ATOM      6  O   UNL     1      -6.288  -4.066   2.810  0.00  0.00    -0.252 OA
ATOM      7  N   UNL     1      -5.809  -2.230   1.582  0.00  0.00    -0.281 N 
ATOM      8  C   UNL     1      -6.610  -1.064  -0.442  0.00  0.00    +0.047 C 
ATOM      9  H   UNL     1      -5.801  -1.556   2.280  0.00  0.00    +0.152 HD
ENDROOT
BRANCH   1  13
ATOM     10  C   UNL     1      -1.625  -0.490  -0.492  0.00  0.00    -0.045 A 
ATOM     11  C   UNL     1      -2.308  -0.175   0.668  0.00  0.00    +0.004 A 
ATOM     12  C   UNL     1      -3.583  -0.668   0.874  0.00  0.00    +0.006 A 
ATOM     13  C   UNL     1      -4.175  -1.476  -0.080  0.00  0.00    -0.015 A 
ATOM     14  C   UNL     1      -3.492  -1.789  -1.240  0.00  0.00    +0.006 A 
ATOM     15  C   UNL     1      -2.219  -1.293  -1.448  0.00  0.00    +0.004 A 
BRANCH  10  17
ATOM     16  C   UNL     1      -0.272   1.578  -0.707  0.00  0.00    +0.012 C 
ATOM     17  C   UNL     1      -0.235   0.048  -0.717  0.00  0.00    +0.013 C 
ATOM     18  C   UNL     1       0.690  -0.447   0.396  0.00  0.00    +0.012 C 
ENDBRANCH  10  17
ENDBRANCH   1  13
BRANCH   4  19
ATOM     19  C   UNL     1      -6.204  -5.660   0.457  0.00  0.00    +0.197 C 
BRANCH  19  20
ATOM     20  C   UNL     1      -4.890  -6.381   0.616  0.00  0.00    +0.181 C 
ATOM     21  O   UNL     1      -3.873  -5.752   0.815  0.00  0.00    -0.290 OA
BRANCH  20  22
ATOM     22  C   UNL     1      -4.842  -7.846   0.530  0.00  0.00    +0.019 A 
ATOM     23  C   UNL     1      -6.015  -8.575   0.294  0.00  0.00    +0.013 A 
ATOM     24  C   UNL     1      -5.965  -9.943   0.214  0.00  0.00    +0.024 A 
ATOM     25  C   UNL     1      -4.751 -10.607   0.367  0.00  0.00    +0.033 A 
ATOM     26  C   UNL     1      -3.583  -9.887   0.601  0.00  0.00    +0.024 A 
ATOM     27  C   UNL     1      -3.623  -8.519   0.677  0.00  0.00    +0.013 A 
BRANCH  25  28
ATOM     28  N   UNL     1      -4.706 -11.997   0.284  0.00  0.00    -0.285 N 
ATOM     29  C   UNL     1      -5.541 -12.651  -0.547  0.00  0.00    +0.223 C 
ATOM     30  O   UNL     1      -6.264 -12.027  -1.294  0.00  0.00    -0.275 OA
ATOM     31  H   UNL     1      -4.073 -12.495   0.826  0.00  0.00    +0.155 HD
BRANCH  29  32
ATOM     32  C   UNL     1      -5.575 -14.158  -0.550  0.00  0.00    +0.039 C 
ATOM     33  C   UNL     1      -6.599 -14.643  -1.577  0.00  0.00    +0.020 C 
ATOM     34  C   UNL     1      -4.191 -14.698  -0.915  0.00  0.00    +0.020 C 
ATOM     35  C   UNL     1      -5.969 -14.661   0.840  0.00  0.00    +0.020 C 
ENDBRANCH  29  32
ENDBRANCH  25  28
ENDBRANCH  20  22
ENDBRANCH  19  20
ENDBRANCH   4  19
TORSDOF 7
