REMARK  Name = ZINC67627422
REMARK  12 active torsions:
REMARK  status: ('A' for Active; 'I' for Inactive)
REMARK    1  A    between atoms: C_1  and  C_2
REMARK    2  A    between atoms: C_6  and  C_27
REMARK    3  A    between atoms: C_7  and  O_8
REMARK    4  A    between atoms: O_8  and  C_9
REMARK    5  A    between atoms: C_9  and  C_10
REMARK    6  A    between atoms: C_10  and  N_11
REMARK    7  A    between atoms: N_14  and  C_15
REMARK    8  A    between atoms: C_15  and  C_16
REMARK    9  A    between atoms: C_16  and  C_18
REMARK   10  A    between atoms: C_16  and  O_26
REMARK   11  A    between atoms: C_18  and  N_19
REMARK   12  A    between atoms: C_22  and  C_25
REMARK                            x       y       z     vdW  Elec       q    Type
REMARK                         _______ _______ _______ _____ _____    ______ ____
ROOT
ATOM      1  N   UNL     1      -0.420   2.321   4.004  0.00  0.00    -0.296 N 
ATOM      2  C   UNL     1      -0.144   3.160   5.021  0.00  0.00    +0.300 C 
ATOM      3  O   UNL     1      -0.413   2.841   6.163  0.00  0.00    -0.253 OA
ATOM      4  N   UNL     1       0.429   4.355   4.773  0.00  0.00    -0.297 N 
ATOM      5  H   UNL     1      -0.206   2.575   3.093  0.00  0.00    +0.150 HD
ATOM      6  H   UNL     1       0.643   4.610   3.862  0.00  0.00    +0.150 HD
ENDROOT
BRANCH   1   7
ATOM      7  C   UNL     1      -1.043   1.022   4.274  0.00  0.00    +0.146 C 
BRANCH   7   8
ATOM      8  C   UNL     1      -1.246   0.270   2.957  0.00  0.00    +0.248 C 
BRANCH   8   9
ATOM      9  O   UNL     1       0.025  -0.033   2.381  0.00  0.00    -0.490 OA
BRANCH   9  16
ATOM     10  C   UNL     1      -0.018   1.503   0.010  0.00  0.00    +0.047 C 
ATOM     11  C   UNL     1       0.002  -0.004   0.002  0.00  0.00    -0.009 A 
ATOM     12  C   UNL     1       0.006  -0.689  -1.198  0.00  0.00    +0.007 A 
ATOM     13  C   UNL     1       0.024  -2.071  -1.206  0.00  0.00    +0.001 A 
ATOM     14  C   UNL     1       0.040  -2.772  -0.014  0.00  0.00    +0.007 A 
ATOM     15  C   UNL     1       0.036  -2.092   1.188  0.00  0.00    -0.009 A 
ATOM     16  C   UNL     1       0.023  -0.705   1.199  0.00  0.00    +0.126 A 
ATOM     17  C   UNL     1       0.052  -2.856   2.487  0.00  0.00    +0.047 C 
ENDBRANCH   9  16
ENDBRANCH   8   9
ENDBRANCH   7   8
ENDBRANCH   1   7
BRANCH   4  18
ATOM     18  C   UNL     1       0.728   5.268   5.879  0.00  0.00    +0.135 C 
BRANCH  18  19
ATOM     19  C   UNL     1       1.370   6.543   5.328  0.00  0.00    +0.115 C 
BRANCH  19  20
ATOM     20  O   UNL     1       0.426   7.236   4.510  0.00  0.00    -0.392 OA
ATOM     21  H   UNL     1      -0.379   7.501   4.976  0.00  0.00    +0.210 HD
ENDBRANCH  19  20
BRANCH  19  22
ATOM     22  C   UNL     1       1.797   7.442   6.490  0.00  0.00    -0.046 C 
BRANCH  22  23
ATOM     23  N   UNL     1       2.413   8.666   5.961  0.00  0.00    +0.381 N 
ATOM     24  C   UNL     1       3.651   8.321   5.251  0.00  0.00    -0.078 C 
ATOM     25  C   UNL     1       4.255   9.582   4.629  0.00  0.00    -0.016 C 
ATOM     26  C   UNL     1       4.564  10.593   5.737  0.00  0.00    -0.018 C 
ATOM     27  C   UNL     1       3.281  10.889   6.518  0.00  0.00    -0.016 C 
ATOM     28  C   UNL     1       2.713   9.580   7.070  0.00  0.00    -0.078 C 
ATOM     29  C   UNL     1       5.095  11.887   5.115  0.00  0.00    +0.007 C 
ATOM     30  H   UNL     1       1.775   9.114   5.321  0.00  0.00    -0.082 HD
ENDBRANCH  22  23
ENDBRANCH  19  22
ENDBRANCH  18  19
ENDBRANCH   4  18
TORSDOF 9
