REMARK  Name = ZINC13124118
REMARK  8 active torsions:
REMARK  status: ('A' for Active; 'I' for Inactive)
REMARK    1  A    between atoms: C_1  and  C_2
REMARK    2  A    between atoms: C_5  and  C_8
REMARK    3  A    between atoms: C_11  and  C_36
REMARK    4  A    between atoms: C_16  and  C_18
REMARK    5  A    between atoms: N_20  and  C_21
REMARK    6  A    between atoms: C_22  and  C_34
REMARK    7  A    between atoms: N_23  and  C_33
REMARK    8  A    between atoms: N_24  and  C_27
REMARK                            x       y       z     vdW  Elec       q    Type
REMARK                         _______ _______ _______ _____ _____    ______ ____
ROOT
ATOM      1  C   UNL     1      -0.199  -5.159   0.005  0.00  0.00    +0.104 C 
ATOM      2  C   UNL     1       1.306  -5.331   0.237  0.00  0.00    +0.063 C 
ATOM      3  C   UNL     1       1.734  -4.552   1.486  0.00  0.00    +0.215 C 
ATOM      4  N   UNL     1       0.834  -4.895   2.591  0.00  0.00    -0.238 N 
ATOM      5  C   UNL     1      -0.401  -5.453   2.417  0.00  0.00    +0.119 A 
ATOM      6  C   UNL     1      -0.952  -5.640   3.632  0.00  0.00    +0.078 A 
ATOM      7  C   UNL     1      -0.026  -5.179   4.596  0.00  0.00    +0.149 A 
ATOM      8  N   UNL     1       1.043  -4.734   3.960  0.00  0.00    -0.164 NA
ATOM      9  N   UNL     1      -0.925  -5.744   1.150  0.00  0.00    -0.322 N 
ATOM     10  H   UNL     1      -1.713  -6.296   1.030  0.00  0.00    +0.148 HD
ENDROOT
BRANCH   1  15
ATOM     11  C   UNL     1      -1.470   0.462  -0.427  0.00  0.00    +0.044 C 
ATOM     12  C   UNL     1      -1.138  -1.004  -0.315  0.00  0.00    -0.050 A 
ATOM     13  C   UNL     1      -1.020  -1.775  -1.456  0.00  0.00    +0.004 A 
ATOM     14  C   UNL     1      -0.716  -3.120  -1.352  0.00  0.00    +0.006 A 
ATOM     15  C   UNL     1      -0.530  -3.693  -0.108  0.00  0.00    -0.027 A 
ATOM     16  C   UNL     1      -0.648  -2.921   1.033  0.00  0.00    +0.006 A 
ATOM     17  C   UNL     1      -0.948  -1.576   0.929  0.00  0.00    +0.004 A 
ENDBRANCH   1  15
BRANCH   7  18
ATOM     18  C   UNL     1      -0.220  -5.193   6.060  0.00  0.00    +0.269 C 
ATOM     19  O   UNL     1      -1.252  -5.630   6.533  0.00  0.00    -0.268 OA
ATOM     20  N   UNL     1       0.746  -4.722   6.873  0.00  0.00    -0.274 N 
ATOM     21  H   UNL     1       1.598  -4.441   6.502  0.00  0.00    +0.155 HD
BRANCH  20  22
ATOM     22  C   UNL     1       0.520  -4.636   8.260  0.00  0.00    +0.122 A 
ATOM     23  C   UNL     1       1.253  -5.227   9.231  0.00  0.00    +0.059 A 
ATOM     24  N   UNL     1       0.713  -4.902  10.447  0.00  0.00    -0.282 N 
ATOM     25  N   UNL     1      -0.401  -4.077  10.248  0.00  0.00    -0.216 N 
ATOM     26  C   UNL     1      -0.548  -3.885   8.921  0.00  0.00    +0.293 A 
ATOM     27  O   UNL     1      -1.409  -3.217   8.377  0.00  0.00    -0.264 OA
ATOM     28  C   UNL     1       1.219  -5.347  11.747  0.00  0.00    +0.171 C 
ATOM     29  C   UNL     1       2.462  -6.099   9.011  0.00  0.00    +0.067 C 
BRANCH  25  30
ATOM     30  C   UNL     1      -1.214  -3.541  11.251  0.00  0.00    +0.067 A 
ATOM     31  C   UNL     1      -2.595  -3.663  11.167  0.00  0.00    +0.028 A 
ATOM     32  C   UNL     1      -3.396  -3.132  12.159  0.00  0.00    +0.002 A 
ATOM     33  C   UNL     1      -2.824  -2.479  13.236  0.00  0.00    +0.000 A 
ATOM     34  C   UNL     1      -1.450  -2.355  13.322  0.00  0.00    +0.002 A 
ATOM     35  C   UNL     1      -0.643  -2.889  12.337  0.00  0.00    +0.028 A 
ENDBRANCH  25  30
ENDBRANCH  20  22
ENDBRANCH   7  18
BRANCH   3  36
ATOM     36  C   UNL     1       3.170  -4.926   1.857  0.00  0.00    +0.412 C 
ATOM     37  F   UNL     1       4.024  -4.608   0.795  0.00  0.00    -0.168 F 
ATOM     38  F   UNL     1       3.559  -4.214   2.996  0.00  0.00    -0.168 F 
ATOM     39  F   UNL     1       3.242  -6.299   2.117  0.00  0.00    -0.168 F 
ENDBRANCH   3  36
TORSDOF 5
