REMARK  Name = ZINC12330281
REMARK  6 active torsions:
REMARK  status: ('A' for Active; 'I' for Inactive)
REMARK    1  A    between atoms: C_1  and  C_2
REMARK    2  A    between atoms: C_8  and  O_31
REMARK    3  A    between atoms: C_17  and  C_18
REMARK    4  A    between atoms: C_17  and  N_63
REMARK    5  A    between atoms: C_18  and  C_20
REMARK    6  A    between atoms: C_18  and  O_30
REMARK                            x       y       z     vdW  Elec       q    Type
REMARK                         _______ _______ _______ _____ _____    ______ ____
ROOT
ATOM      1  C   UNL     1     -11.932  -3.693  -4.187  0.00  0.00    +0.044 C 
ATOM      2  C   UNL     1     -10.835  -3.556  -3.162  0.00  0.00    -0.050 A 
ATOM      3  C   UNL     1     -10.106  -2.383  -3.083  0.00  0.00    +0.007 A 
ATOM      4  C   UNL     1      -9.105  -2.257  -2.142  0.00  0.00    +0.046 A 
ATOM      5  C   UNL     1      -8.825  -3.307  -1.272  0.00  0.00    +0.127 A 
ATOM      6  C   UNL     1      -9.552  -4.481  -1.359  0.00  0.00    +0.023 A 
ATOM      7  C   UNL     1     -10.559  -4.600  -2.303  0.00  0.00    +0.013 A 
ATOM      8  C   UNL     1      -9.268  -5.651  -0.450  0.00  0.00    +0.152 C 
ATOM      9  C   UNL     1      -8.461  -5.179   0.762  0.00  0.00    +0.084 C 
ATOM     10  C   UNL     1      -7.300  -4.312   0.263  0.00  0.00    +0.110 C 
ATOM     11  O   UNL     1      -7.836  -3.143  -0.355  0.00  0.00    -0.485 OA
ATOM     12  C   UNL     1      -6.471  -5.101  -0.752  0.00  0.00    +0.029 C 
ATOM     13  C   UNL     1      -5.278  -4.253  -1.198  0.00  0.00    -0.075 C 
ATOM     14  C   UNL     1      -5.222  -3.103   0.934  0.00  0.00    -0.075 C 
ATOM     15  C   UNL     1      -6.415  -3.915   1.445  0.00  0.00    +0.029 C 
ATOM     16  N   UNL     1      -4.450  -3.932  -0.017  0.00  0.00    +0.382 N 
ATOM     17  H   UNL     1      -4.179  -4.806   0.448  0.00  0.00    -0.082 HD
ENDROOT
BRANCH   8  18
ATOM     18  O   UNL     1     -10.502  -6.218  -0.007  0.00  0.00    -0.387 OA
ATOM     19  H   UNL     1     -11.066  -6.543  -0.722  0.00  0.00    +0.210 HD
ENDBRANCH   8  18
BRANCH  16  20
ATOM     20  C   UNL     1      -3.229  -3.213  -0.436  0.00  0.00    -0.042 C 
BRANCH  20  21
ATOM     21  C   UNL     1      -2.450  -2.784   0.809  0.00  0.00    +0.128 C 
BRANCH  21  22
ATOM     22  C   UNL     1      -1.174  -2.099   0.392  0.00  0.00    -0.021 A 
ATOM     23  C   UNL     1      -0.078  -2.849   0.009  0.00  0.00    +0.006 A 
ATOM     24  C   UNL     1       1.088  -2.215  -0.368  0.00  0.00    +0.004 A 
ATOM     25  C   UNL     1       1.169  -0.828  -0.366  0.00  0.00    -0.044 A 
ATOM     26  C   UNL     1       0.076  -0.081   0.011  0.00  0.00    -0.044 A 
ATOM     27  C   UNL     1      -1.096  -0.722   0.392  0.00  0.00    +0.010 A 
ATOM     28  C   UNL     1       0.090   1.425   0.028  0.00  0.00    +0.035 C 
ATOM     29  C   UNL     1       1.524   1.949   0.016  0.00  0.00    +0.005 C 
ATOM     30  C   UNL     1       2.278   1.270  -1.134  0.00  0.00    +0.005 C 
ATOM     31  C   UNL     1       2.476  -0.202  -0.777  0.00  0.00    +0.035 C 
ENDBRANCH  21  22
BRANCH  21  32
ATOM     32  O   UNL     1      -2.138  -3.935   1.596  0.00  0.00    -0.389 OA
ATOM     33  H   UNL     1      -1.599  -4.592   1.135  0.00  0.00    +0.210 HD
ENDBRANCH  21  32
ENDBRANCH  20  21
ENDBRANCH  16  20
TORSDOF 5
