REMARK  Name = ZINC38687871
REMARK  10 active torsions:
REMARK  status: ('A' for Active; 'I' for Inactive)
REMARK    1  A    between atoms: C_1  and  C_2
REMARK    2  A    between atoms: C_2  and  C_3
REMARK    3  A    between atoms: C_3  and  C_4
REMARK    4  A    between atoms: C_4  and  C_5
REMARK    5  A    between atoms: C_8  and  C_11
REMARK    6  A    between atoms: C_11  and  O_13
REMARK    7  A    between atoms: O_13  and  C_14
REMARK    8  A    between atoms: C_21  and  N_34
REMARK    9  A    between atoms: C_22  and  C_32
REMARK   10  A    between atoms: C_23  and  C_25
REMARK                            x       y       z     vdW  Elec       q    Type
REMARK                         _______ _______ _______ _____ _____    ______ ____
ROOT
ATOM      1  C   UNL     1       4.681  -6.642  -1.378  0.00  0.00    +0.135 A 
ATOM      2  C   UNL     1       6.047  -6.628  -1.624  0.00  0.00    +0.047 A 
ATOM      3  C   UNL     1       6.538  -7.117  -2.819  0.00  0.00    +0.012 A 
ATOM      4  C   UNL     1       5.673  -7.622  -3.773  0.00  0.00    +0.008 A 
ATOM      5  C   UNL     1       4.308  -7.638  -3.533  0.00  0.00    +0.138 A 
ATOM      6  C   UNL     1       3.813  -7.152  -2.329  0.00  0.00    +0.093 A 
ATOM      7  O   UNL     1       3.445  -8.129  -4.456  0.00  0.00    -0.441 OA
ATOM      8  C   UNL     1       3.893  -8.942  -5.427  0.00  0.00    +0.199 C 
ATOM      9  C   UNL     1       5.202  -8.999  -5.766  0.00  0.00    +0.098 C 
ATOM     10  C   UNL     1       6.228  -8.150  -5.070  0.00  0.00    +0.098 C 
ENDROOT
BRANCH  10  11
ATOM     11  C   UNL     1       6.605  -6.993  -5.959  0.00  0.00    -0.034 A 
ATOM     12  C   UNL     1       5.645  -6.077  -6.347  0.00  0.00    +0.004 A 
ATOM     13  C   UNL     1       5.991  -5.016  -7.163  0.00  0.00    +0.001 A 
ATOM     14  C   UNL     1       7.297  -4.870  -7.590  0.00  0.00    +0.015 A 
ATOM     15  C   UNL     1       8.258  -5.786  -7.202  0.00  0.00    +0.018 A 
ATOM     16  C   UNL     1       7.913  -6.845  -6.381  0.00  0.00    +0.020 A 
ATOM     17 BR   UNL     1      10.045  -5.587  -7.787  0.00  0.00    -0.050 Br
ENDBRANCH  10  11
BRANCH   8  18
ATOM     18  N   UNL     1       2.996  -9.739  -6.095  0.00  0.00    -0.328 N 
ATOM     19  H   UNL     1       2.055  -9.710  -5.863  0.00  0.00    +0.145 HD
ATOM     20  H   UNL     1       3.304 -10.331  -6.799  0.00  0.00    +0.145 HD
ENDBRANCH   8  18
BRANCH   9  21
ATOM     21  C   UNL     1       5.618  -9.887  -6.810  0.00  0.00    +0.101 C 
ATOM     22  N   UNL     1       5.949 -10.592  -7.638  0.00  0.00    -0.191 NA
ENDBRANCH   9  21
BRANCH   1  23
ATOM     23  O   UNL     1       4.196  -6.161  -0.203  0.00  0.00    -0.426 OA
BRANCH  23  24
ATOM     24  C   UNL     1       4.120  -4.829  -0.051  0.00  0.00    +0.315 C 
ATOM     25  O   UNL     1       4.559  -4.097  -0.906  0.00  0.00    -0.250 OA
BRANCH  24  29
ATOM     26  C   UNL     1       1.433  -2.595   2.465  0.00  0.00    -0.011 C 
ATOM     27  C   UNL     1       2.887  -2.128   2.368  0.00  0.00    +0.004 C 
ATOM     28  C   UNL     1       3.529  -2.719   1.111  0.00  0.00    +0.015 C 
ATOM     29  C   UNL     1       3.488  -4.247   1.187  0.00  0.00    +0.098 C 
ATOM     30  C   UNL     1       2.034  -4.713   1.285  0.00  0.00    +0.015 C 
ATOM     31  C   UNL     1       1.392  -4.123   2.541  0.00  0.00    +0.004 C 
BRANCH  26  32
ATOM     32  C   UNL     1       0.663  -2.125   1.230  0.00  0.00    +0.003 C 
BRANCH  32  33
ATOM     33  C   UNL     1       0.597  -0.597   1.220  0.00  0.00    +0.000 C 
BRANCH  33  35
ATOM     34  C   UNL     1      -0.239   1.402  -0.025  0.00  0.00    +0.004 C 
ATOM     35  C   UNL     1      -0.173  -0.127  -0.015  0.00  0.00    -0.003 C 
ENDBRANCH  33  35
ENDBRANCH  32  33
ENDBRANCH  26  32
ENDBRANCH  24  29
ENDBRANCH  23  24
ENDBRANCH   1  23
TORSDOF 9
