REMARK  Name = ZINC63253365
REMARK  9 active torsions:
REMARK  status: ('A' for Active; 'I' for Inactive)
REMARK    1  A    between atoms: C_1  and  C_2
REMARK    2  A    between atoms: C_6  and  N_8
REMARK    3  A    between atoms: C_9  and  C_27
REMARK    4  A    between atoms: C_12  and  S_13
REMARK    5  A    between atoms: S_13  and  C_14
REMARK    6  A    between atoms: C_14  and  C_15
REMARK    7  A    between atoms: N_17  and  C_18
REMARK    8  A    between atoms: C_23  and  O_24
REMARK    9  A    between atoms: O_24  and  C_25
REMARK                            x       y       z     vdW  Elec       q    Type
REMARK                         _______ _______ _______ _____ _____    ______ ____
ROOT
ATOM      1  N   UNL     1       0.031  -2.757   2.415  0.00  0.00    -0.270 N 
ATOM      2  C   UNL     1      -0.958  -3.594   2.907  0.00  0.00    +0.168 A 
ATOM      3  N   UNL     1      -0.531  -4.052   4.075  0.00  0.00    -0.128 NA
ATOM      4  N   UNL     1       0.630  -3.566   4.334  0.00  0.00    -0.122 NA
ATOM      5  C   UNL     1       1.024  -2.772   3.349  0.00  0.00    +0.197 A 
ENDROOT
BRANCH   2   6
ATOM      6  C   UNL     1      -2.180  -3.898   2.286  0.00  0.00    +0.025 C 
ATOM      7  C   UNL     1      -3.187  -4.733   2.771  0.00  0.00    +0.006 A 
ATOM      8  C   UNL     1      -3.308  -5.494   3.953  0.00  0.00    +0.010 A 
ATOM      9  C   UNL     1      -4.427  -6.232   4.168  0.00  0.00    +0.001 A 
ATOM     10  C   UNL     1      -5.473  -6.260   3.242  0.00  0.00    +0.002 A 
ATOM     11  C   UNL     1      -5.424  -5.555   2.086  0.00  0.00    +0.026 A 
ATOM     12  C   UNL     1      -4.286  -4.759   1.792  0.00  0.00    +0.043 A 
ATOM     13  N   UNL     1      -4.000  -3.994   0.757  0.00  0.00    -0.380 N 
ATOM     14  C   UNL     1      -2.683  -3.383   0.956  0.00  0.00    +0.152 C 
ATOM     15  H   UNL     1      -4.573  -3.855  -0.014  0.00  0.00    +0.160 HD
ENDBRANCH   2   6
BRANCH   1  21
ATOM     16  C   UNL     1      -0.016   1.544   0.032  0.00  0.00    +0.044 C 
ATOM     17  C   UNL     1      -0.007   0.037   0.023  0.00  0.00    -0.048 A 
ATOM     18  C   UNL     1      -0.013  -0.647  -1.179  0.00  0.00    +0.003 A 
ATOM     19  C   UNL     1      -0.004  -2.030  -1.190  0.00  0.00    +0.002 A 
ATOM     20  C   UNL     1       0.010  -2.732  -0.001  0.00  0.00    +0.026 A 
ATOM     21  C   UNL     1       0.016  -2.048   1.207  0.00  0.00    +0.051 A 
ATOM     22  C   UNL     1       0.013  -0.659   1.216  0.00  0.00    +0.029 A 
ENDBRANCH   1  21
BRANCH   5  23
ATOM     23  S   UNL     1       2.549  -1.894   3.264  0.00  0.00    -0.076 S 
BRANCH  23  24
ATOM     24  C   UNL     1       3.401  -2.344   4.801  0.00  0.00    +0.173 C 
BRANCH  24  25
ATOM     25  C   UNL     1       4.738  -1.650   4.856  0.00  0.00    +0.228 C 
ATOM     26  O   UNL     1       5.082  -0.924   3.948  0.00  0.00    -0.275 OA
ATOM     27  N   UNL     1       5.551  -1.837   5.915  0.00  0.00    -0.282 N 
ATOM     28  H   UNL     1       5.250  -2.365   6.670  0.00  0.00    +0.155 HD
BRANCH  27  29
ATOM     29  C   UNL     1       6.831  -1.268   5.923  0.00  0.00    +0.077 A 
ATOM     30  C   UNL     1       7.048  -0.034   5.329  0.00  0.00    +0.047 A 
ATOM     31  C   UNL     1       8.312   0.526   5.339  0.00  0.00    +0.043 A 
ATOM     32  C   UNL     1       9.363  -0.143   5.941  0.00  0.00    +0.024 A 
ATOM     33  C   UNL     1       9.154  -1.374   6.535  0.00  0.00    +0.049 A 
ATOM     34  C   UNL     1       7.889  -1.938   6.534  0.00  0.00    +0.141 A 
ATOM     35 CL   UNL     1       8.582   2.071   4.595  0.00  0.00    -0.083 Cl
BRANCH  34  36
ATOM     36  O   UNL     1       7.681  -3.146   7.124  0.00  0.00    -0.493 OA
ATOM     37  C   UNL     1       8.811  -3.775   7.731  0.00  0.00    +0.277 C 
ENDBRANCH  34  36
ENDBRANCH  27  29
ENDBRANCH  24  25
ENDBRANCH  23  24
ENDBRANCH   5  23
TORSDOF 7
