REMARK  Name = ZINC03995323
REMARK  6 active torsions:
REMARK  status: ('A' for Active; 'I' for Inactive)
REMARK    1  A    between atoms: C_4  and  C_7
REMARK    2  A    between atoms: C_7  and  N_8
REMARK    3  A    between atoms: N_22  and  C_37
REMARK    4  A    between atoms: C_25  and  O_27
REMARK    5  A    between atoms: C_32  and  O_35
REMARK    6  A    between atoms: C_37  and  C_38
REMARK                            x       y       z     vdW  Elec       q    Type
REMARK                         _______ _______ _______ _____ _____    ______ ____
ROOT
ATOM      1  N   UNL     1       3.953  -1.064   1.280  0.00  0.00    -0.336 N 
ATOM      2  C   UNL     1       4.594  -0.224   2.143  0.00  0.00    +0.050 A 
ATOM      3  C   UNL     1       5.091   1.069   1.994  0.00  0.00    +0.026 A 
ATOM      4  C   UNL     1       5.699   1.638   3.100  0.00  0.00    +0.002 A 
ATOM      5  C   UNL     1       5.818   0.967   4.306  0.00  0.00    +0.001 A 
ATOM      6  C   UNL     1       5.338  -0.308   4.481  0.00  0.00    +0.010 A 
ATOM      7  C   UNL     1       4.717  -0.906   3.381  0.00  0.00    +0.004 A 
ATOM      8  C   UNL     1       4.101  -2.202   3.184  0.00  0.00    -0.013 A 
ATOM      9  C   UNL     1       3.656  -2.245   1.911  0.00  0.00    +0.065 A 
ATOM     10  C   UNL     1       2.947  -3.427   1.301  0.00  0.00    +0.233 C 
ATOM     11  C   UNL     1       2.871  -4.589   2.284  0.00  0.00    +0.068 C 
ATOM     12  C   UNL     1       2.768  -5.928   1.559  0.00  0.00    -0.000 C 
ATOM     13  C   UNL     1       2.425  -7.017   2.581  0.00  0.00    -0.077 C 
ATOM     14  N   UNL     1       3.455  -7.055   3.624  0.00  0.00    +0.384 N 
ATOM     15  C   UNL     1       3.510  -5.779   4.341  0.00  0.00    -0.031 C 
ATOM     16  C   UNL     1       3.928  -4.660   3.378  0.00  0.00    +0.072 C 
ATOM     17  C   UNL     1       3.946  -3.330   4.170  0.00  0.00    +0.071 C 
ATOM     18  C   UNL     1       2.193  -5.502   5.046  0.00  0.00    +0.023 C 
ATOM     19  C   UNL     1       1.237  -4.693   4.232  0.00  0.00    -0.041 A 
ATOM     20  C   UNL     1       1.578  -4.289   3.000  0.00  0.00    +0.014 A 
ATOM     21  C   UNL     1       0.846  -3.415   2.211  0.00  0.00    +0.167 A 
ATOM     22  C   UNL     1      -0.419  -3.025   2.667  0.00  0.00    +0.159 A 
ATOM     23  C   UNL     1      -0.826  -3.519   3.904  0.00  0.00    +0.049 A 
ATOM     24  C   UNL     1      -0.024  -4.304   4.646  0.00  0.00    +0.007 A 
ATOM     25  O   UNL     1       1.555  -3.063   1.094  0.00  0.00    -0.478 OA
ATOM     26  H   UNL     1       4.352  -7.237   3.199  0.00  0.00    -0.081 HD
ENDROOT
BRANCH  16  27
ATOM     27  O   UNL     1       5.206  -4.952   2.809  0.00  0.00    -0.389 OA
ATOM     28  H   UNL     1       5.921  -5.011   3.457  0.00  0.00    +0.210 HD
ENDBRANCH  16  27
BRANCH  22  29
ATOM     29  O   UNL     1      -1.215  -2.200   1.935  0.00  0.00    -0.503 OA
ATOM     30  H   UNL     1      -1.805  -2.662   1.324  0.00  0.00    +0.292 HD
ENDBRANCH  22  29
BRANCH   1  31
ATOM     31  C   UNL     1       3.624  -0.748  -0.113  0.00  0.00    +0.157 C 
BRANCH  31  35
ATOM     32  C   UNL     1       6.961  -1.679  -2.612  0.00  0.00    +0.000 A 
ATOM     33  C   UNL     1       5.998  -2.638  -2.359  0.00  0.00    +0.000 A 
ATOM     34  C   UNL     1       4.918  -2.337  -1.550  0.00  0.00    +0.005 A 
ATOM     35  C   UNL     1       4.802  -1.077  -0.994  0.00  0.00    -0.028 A 
ATOM     36  C   UNL     1       5.765  -0.118  -1.246  0.00  0.00    +0.005 A 
ATOM     37  C   UNL     1       6.844  -0.419  -2.056  0.00  0.00    +0.000 A 
ENDBRANCH  31  35
ENDBRANCH   1  31
BRANCH  14  38
ATOM     38  C   UNL     1       3.143  -8.132   4.574  0.00  0.00    -0.075 C 
BRANCH  38  39
ATOM     39  C   UNL     1       3.268  -9.485   3.870  0.00  0.00    -0.028 C 
ATOM     40  C   UNL     1       2.000 -10.331   3.737  0.00  0.00    +0.002 C 
ATOM     41  C   UNL     1       3.096 -10.743   4.723  0.00  0.00    +0.002 C 
ENDBRANCH  38  39
ENDBRANCH  14  38
TORSDOF 6
