REMARK  Name = ZINC05246137
REMARK  5 active torsions:
REMARK  status: ('A' for Active; 'I' for Inactive)
REMARK    1  A    between atoms: N_4  and  C_7
REMARK    2  A    between atoms: C_11  and  N_25
REMARK    3  A    between atoms: C_12  and  C_15
REMARK    4  A    between atoms: N_17  and  C_18
REMARK    5  A    between atoms: C_18  and  C_19
REMARK                            x       y       z     vdW  Elec       q    Type
REMARK                         _______ _______ _______ _____ _____    ______ ____
ROOT
ATOM      1  C   UNL     1      -5.472   4.341  -0.346  0.00  0.00    +0.103 A 
ATOM      2  C   UNL     1      -5.908   3.009  -0.432  0.00  0.00    -0.005 A 
ATOM      3  C   UNL     1      -5.013   1.998  -0.325  0.00  0.00    -0.030 A 
ATOM      4  C   UNL     1      -3.638   2.302  -0.115  0.00  0.00    +0.031 A 
ATOM      5  C   UNL     1      -2.524   1.378   0.026  0.00  0.00    +0.054 A 
ATOM      6  C   UNL     1      -1.264   1.900   0.228  0.00  0.00    +0.097 A 
ATOM      7  S   UNL     1      -1.540   3.660   0.220  0.00  0.00    -0.064 S 
ATOM      8  C   UNL     1      -3.297   3.669  -0.040  0.00  0.00    +0.089 A 
ATOM      9  C   UNL     1      -5.394   0.546  -0.424  0.00  0.00    +0.036 C 
ATOM     10  C   UNL     1      -6.897   0.370  -0.214  0.00  0.00    +0.005 C 
ATOM     11  C   UNL     1      -7.630   1.349  -1.140  0.00  0.00    +0.005 C 
ATOM     12  C   UNL     1      -7.382   2.768  -0.635  0.00  0.00    +0.039 C 
ATOM     13  N   UNL     1      -4.173   4.696  -0.150  0.00  0.00    -0.337 N 
ATOM     14  H   UNL     1      -3.877   5.678  -0.091  0.00  0.00    +0.168 HD
ENDROOT
BRANCH   1  18
ATOM     15  C   UNL     1      -7.308   8.110  -0.543  0.00  0.00    +0.003 C 
ATOM     16  C   UNL     1      -7.574   7.201   0.660  0.00  0.00    +0.019 C 
ATOM     17  C   UNL     1      -6.450   6.168   0.771  0.00  0.00    +0.106 C 
ATOM     18  N   UNL     1      -6.392   5.372  -0.463  0.00  0.00    -0.316 N 
ATOM     19  C   UNL     1      -6.091   6.217  -1.625  0.00  0.00    +0.106 C 
ATOM     20  C   UNL     1      -7.204   7.252  -1.807  0.00  0.00    +0.019 C 
ENDBRANCH   1  18
BRANCH   6  21
ATOM     21  C   UNL     1      -0.043   1.204   0.396  0.00  0.00    +0.253 C 
ATOM     22  O   UNL     1      -0.028  -0.014   0.375  0.00  0.00    -0.270 OA
ATOM     23  N   UNL     1       1.105   1.889   0.573  0.00  0.00    -0.308 N 
ATOM     24  H   UNL     1       1.093   2.859   0.589  0.00  0.00    +0.149 HD
BRANCH  23  25
ATOM     25  C   UNL     1       2.369   1.169   0.740  0.00  0.00    +0.136 C 
BRANCH  25  26
ATOM     26  C   UNL     1       3.508   2.174   0.922  0.00  0.00    +0.135 C 
ATOM     27  C   UNL     1       4.868   1.443   0.975  0.00  0.00    +0.035 C 
ATOM     28  C   UNL     1       5.680   2.236   2.024  0.00  0.00    +0.031 C 
ATOM     29  C   UNL     1       4.715   3.352   2.480  0.00  0.00    +0.160 C 
ATOM     30  O   UNL     1       3.395   2.837   2.200  0.00  0.00    -0.375 OA
ENDBRANCH  25  26
ENDBRANCH  23  25
ENDBRANCH   6  21
BRANCH   5  31
ATOM     31  N   UNL     1      -2.725   0.006  -0.036  0.00  0.00    -0.356 N 
ATOM     32  H   UNL     1      -2.130  -0.593   0.441  0.00  0.00    +0.142 HD
ATOM     33  H   UNL     1      -3.461  -0.353  -0.556  0.00  0.00    +0.142 HD
ENDBRANCH   5  31
TORSDOF 5
