REMARK  Name = ZINC02577932
REMARK  9 active torsions:
REMARK  status: ('A' for Active; 'I' for Inactive)
REMARK    1  A    between atoms: C_1  and  C_2
REMARK    2  A    between atoms: C_2  and  C_3
REMARK    3  A    between atoms: C_3  and  C_4
REMARK    4  A    between atoms: C_4  and  C_5
REMARK    5  A    between atoms: C_5  and  C_6
REMARK    6  A    between atoms: C_9  and  S_12
REMARK    7  A    between atoms: S_12  and  N_15
REMARK    8  A    between atoms: N_19  and  C_22
REMARK    9  A    between atoms: C_25  and  C_27
REMARK                            x       y       z     vdW  Elec       q    Type
REMARK                         _______ _______ _______ _____ _____    ______ ____
ROOT
ATOM      1  N   UNL     1      -0.654   2.231   1.467  0.00  0.00    -0.175 NA
ATOM      2  C   UNL     1       0.242   2.462   2.650  0.00  0.00    +0.111 C 
ATOM      3  C   UNL     1       0.224   3.903   2.926  0.00  0.00    +0.036 C 
ATOM      4  C   UNL     1      -1.164   4.466   3.206  0.00  0.00    +0.108 C 
ATOM      5  N   UNL     1      -1.678   4.872   1.925  0.00  0.00    -0.314 N 
ATOM      6  C   UNL     1      -2.594   3.854   1.342  0.00  0.00    +0.123 C 
ATOM      7  C   UNL     1      -2.069   2.433   1.618  0.00  0.00    +0.128 C 
ENDROOT
BRANCH   5   8
ATOM      8  C   UNL     1      -2.301   6.113   2.008  0.00  0.00    +0.118 A 
ATOM      9  C   UNL     1      -1.597   7.207   2.502  0.00  0.00    +0.079 A 
ATOM     10  C   UNL     1      -2.229   8.435   2.579  0.00  0.00    +0.037 A 
ATOM     11  C   UNL     1      -3.550   8.528   2.158  0.00  0.00    +0.072 A 
ATOM     12  C   UNL     1      -4.187   7.402   1.679  0.00  0.00    +0.096 A 
ATOM     13 CL   UNL     1       0.053   7.034   3.014  0.00  0.00    -0.080 Cl
ATOM     14  N   UNL     1      -3.596   6.181   1.583  0.00  0.00    -0.348 N 
ATOM     15  H   UNL     1      -4.092   5.362   1.214  0.00  0.00    +0.167 HD
BRANCH  11  16
ATOM     16  C   UNL     1      -4.279   9.845   2.224  0.00  0.00    +0.419 C 
ATOM     17  F   UNL     1      -4.095  10.541   1.024  0.00  0.00    -0.166 F 
ATOM     18  F   UNL     1      -5.644   9.613   2.424  0.00  0.00    -0.166 F 
ATOM     19  F   UNL     1      -3.775  10.605   3.286  0.00  0.00    -0.166 F 
ENDBRANCH  11  16
ENDBRANCH   5   8
BRANCH   1  20
ATOM     20  S   UNL     1      -0.022   1.758   0.012  0.00  0.00    +0.061 S 
ATOM     21  O   UNL     1       1.334   2.182   0.001  0.00  0.00    -0.153 OA
ATOM     22  O   UNL     1      -0.953   2.157  -0.985  0.00  0.00    -0.153 OA
BRANCH  20  26
ATOM     23  C   UNL     1       0.040  -2.768  -0.013  0.00  0.00    -0.047 A 
ATOM     24  C   UNL     1      -1.069  -2.090  -0.483  0.00  0.00    +0.005 A 
ATOM     25  C   UNL     1      -1.088  -0.708  -0.476  0.00  0.00    +0.029 A 
ATOM     26  C   UNL     1       0.002  -0.004   0.002  0.00  0.00    +0.105 A 
ATOM     27  C   UNL     1       1.113  -0.683   0.467  0.00  0.00    +0.029 A 
ATOM     28  C   UNL     1       1.130  -2.065   0.463  0.00  0.00    +0.005 A 
BRANCH  23  29
ATOM     29  C   UNL     1       0.060  -4.275  -0.021  0.00  0.00    +0.035 C 
BRANCH  29  30
ATOM     30  C   UNL     1       0.636  -4.771  -1.348  0.00  0.00    +0.005 C 
BRANCH  30  31
ATOM     31  C   UNL     1       0.657  -6.301  -1.356  0.00  0.00    +0.000 C 
BRANCH  31  33
ATOM     32  C   UNL     1       1.254  -8.327  -2.691  0.00  0.00    +0.004 C 
ATOM     33  C   UNL     1       1.233  -6.797  -2.683  0.00  0.00    -0.003 C 
ENDBRANCH  31  33
ENDBRANCH  30  31
ENDBRANCH  29  30
ENDBRANCH  23  29
ENDBRANCH  20  26
ENDBRANCH   1  20
TORSDOF 8
