REMARK  Name = ZINC40902539
REMARK  4 active torsions:
REMARK  status: ('A' for Active; 'I' for Inactive)
REMARK    1  A    between atoms: C_13  and  C_15
REMARK    2  A    between atoms: N_18  and  C_21
REMARK    3  A    between atoms: C_24  and  C_28
REMARK    4  A    between atoms: C_30  and  C_33
REMARK                            x       y       z     vdW  Elec       q    Type
REMARK                         _______ _______ _______ _____ _____    ______ ____
ROOT
ATOM      1  C   UNL     1      -0.032  -6.653   1.157  0.00  0.00    +0.078 C 
ATOM      2  C   UNL     1      -0.792  -6.389  -0.145  0.00  0.00    +0.031 C 
ATOM      3  C   UNL     1      -2.115  -7.161  -0.125  0.00  0.00    +0.106 C 
ATOM      4  N   UNL     1      -1.831  -8.580   0.131  0.00  0.00    -0.328 N 
ATOM      5  C   UNL     1      -1.029  -8.938   1.309  0.00  0.00    +0.106 C 
ATOM      6  C   UNL     1       0.282  -8.146   1.272  0.00  0.00    +0.031 C 
ENDROOT
BRANCH   1  19
ATOM      7  C   UNL     1       0.341   0.782   4.384  0.00  0.00    +0.005 A 
ATOM      8  C   UNL     1       1.550   1.466   4.359  0.00  0.00    +0.018 A 
ATOM      9  C   UNL     1       2.696   0.798   3.976  0.00  0.00    +0.084 A 
ATOM     10  N   UNL     1       2.656  -0.476   3.636  0.00  0.00    -0.350 N 
ATOM     11  C   UNL     1       1.524  -1.162   3.646  0.00  0.00    +0.099 A 
ATOM     12  C   UNL     1       0.330  -0.553   4.021  0.00  0.00    +0.042 A 
ATOM     13  N   UNL     1       1.527  -2.502   3.279  0.00  0.00    -0.314 N 
ATOM     14  C   UNL     1       0.299  -3.306   3.369  0.00  0.00    +0.125 C 
ATOM     15  C   UNL     1       0.020  -3.929   1.996  0.00  0.00    +0.126 C 
ATOM     16  N   UNL     1       1.251  -4.568   1.511  0.00  0.00    -0.298 N 
ATOM     17  C   UNL     1       2.478  -3.765   1.421  0.00  0.00    +0.126 C 
ATOM     18  C   UNL     1       2.757  -3.141   2.789  0.00  0.00    +0.125 C 
ATOM     19  C   UNL     1       1.254  -5.868   1.155  0.00  0.00    +0.219 C 
ATOM     20  O   UNL     1       2.292  -6.406   0.834  0.00  0.00    -0.275 OA
ATOM     21  H   UNL     1       3.476  -0.921   3.371  0.00  0.00    +0.166 HD
ENDBRANCH   1  19
BRANCH   4  22
ATOM     22  C   UNL     1      -2.314  -9.568  -0.728  0.00  0.00    +0.065 A 
ATOM     23  C   UNL     1      -1.548  -9.981  -1.811  0.00  0.00    +0.027 A 
ATOM     24  C   UNL     1      -2.023 -10.957  -2.662  0.00  0.00    +0.013 A 
ATOM     25  C   UNL     1      -3.273 -11.530  -2.435  0.00  0.00    +0.025 A 
ATOM     26  C   UNL     1      -4.042 -11.116  -1.348  0.00  0.00    +0.052 A 
ATOM     27  C   UNL     1      -3.561 -10.143  -0.496  0.00  0.00    +0.145 A 
ATOM     28  F   UNL     1      -4.302  -9.744   0.561  0.00  0.00    -0.204 F 
BRANCH  25  29
ATOM     29  C   UNL     1      -3.786 -12.580  -3.350  0.00  0.00    +0.202 A 
ATOM     30  N   UNL     1      -4.970 -13.200  -3.239  0.00  0.00    -0.187 NA
ATOM     31  C   UNL     1      -5.110 -14.075  -4.213  0.00  0.00    +0.265 A 
ATOM     32  O   UNL     1      -4.003 -14.032  -4.978  0.00  0.00    -0.332 OA
ATOM     33  N   UNL     1      -3.157 -13.049  -4.401  0.00  0.00    -0.056 NA
BRANCH  31  34
ATOM     34  C   UNL     1      -6.272 -14.946  -4.429  0.00  0.00    +0.077 A 
ATOM     35  C   UNL     1      -6.485 -15.887  -5.422  0.00  0.00    +0.021 A 
ATOM     36  C   UNL     1      -7.687 -16.557  -5.362  0.00  0.00    +0.008 A 
ATOM     37  C   UNL     1      -8.557 -16.261  -4.368  0.00  0.00    +0.046 A 
ATOM     38  S   UNL     1      -7.773 -15.072  -3.476  0.00  0.00    -0.092 S 
ENDBRANCH  31  34
ENDBRANCH  25  29
ENDBRANCH   4  22
TORSDOF 4
