REMARK  Name = ZINC14474592
REMARK  8 active torsions:
REMARK  status: ('A' for Active; 'I' for Inactive)
REMARK    1  A    between atoms: C_1  and  O_2
REMARK    2  A    between atoms: O_2  and  C_3
REMARK    3  A    between atoms: C_3  and  C_4
REMARK    4  A    between atoms: C_4  and  C_5
REMARK    5  A    between atoms: C_5  and  N_6
REMARK    6  A    between atoms: C_7  and  C_9
REMARK    7  A    between atoms: C_16  and  C_25
REMARK    8  A    between atoms: C_30  and  O_31
REMARK                            x       y       z     vdW  Elec       q    Type
REMARK                         _______ _______ _______ _____ _____    ______ ____
ROOT
ATOM      1  C   UNL     1      -1.188   1.517   3.791  0.00  0.00    +0.058 A 
ATOM      2  C   UNL     1      -2.345   2.292   3.739  0.00  0.00    +0.015 A 
ATOM      3  C   UNL     1      -2.877   2.818   4.896  0.00  0.00    +0.001 A 
ATOM      4  C   UNL     1      -2.256   2.579   6.111  0.00  0.00    +0.006 A 
ATOM      5  C   UNL     1      -1.108   1.821   6.180  0.00  0.00    -0.019 A 
ATOM      6  C   UNL     1      -0.557   1.259   5.025  0.00  0.00    +0.044 A 
ATOM      7  N   UNL     1       0.565   0.447   5.013  0.00  0.00    -0.336 N 
ATOM      8  C   UNL     1       1.271   0.269   6.292  0.00  0.00    +0.108 C 
ATOM      9  C   UNL     1       0.215   0.151   7.371  0.00  0.00    +0.029 C 
ATOM     10  C   UNL     1      -0.408   1.585   7.462  0.00  0.00    +0.049 C 
ATOM     11  C   UNL     1      -1.098   1.547   8.789  0.00  0.00    -0.023 C 
ATOM     12  C   UNL     1      -0.482   0.673   9.578  0.00  0.00    -0.030 C 
ATOM     13  C   UNL     1       0.682   0.022   8.826  0.00  0.00    +0.033 C 
ATOM     14  H   UNL     1       0.362  -0.444   4.585  0.00  0.00    +0.147 HD
ENDROOT
BRANCH   8  15
ATOM     15  C   UNL     1       2.103  -0.987   6.249  0.00  0.00    +0.014 A 
ATOM     16  C   UNL     1       1.663  -2.130   6.889  0.00  0.00    +0.009 A 
ATOM     17  C   UNL     1       2.425  -3.283   6.849  0.00  0.00    +0.001 A 
ATOM     18  C   UNL     1       3.629  -3.295   6.169  0.00  0.00    +0.004 A 
ATOM     19  C   UNL     1       4.074  -2.155   5.528  0.00  0.00    +0.046 A 
ATOM     20  C   UNL     1       3.308  -0.999   5.562  0.00  0.00    +0.122 A 
BRANCH  20  21
ATOM     21  O   UNL     1       3.739   0.123   4.927  0.00  0.00    -0.506 OA
ATOM     22  H   UNL     1       4.348   0.662   5.451  0.00  0.00    +0.292 HD
ENDBRANCH  20  21
ENDBRANCH   8  15
BRANCH   1  24
ATOM     23  N   UNL     1      -1.228   1.197   1.367  0.00  0.00    -0.311 N 
ATOM     24  C   UNL     1      -0.625   0.958   2.549  0.00  0.00    +0.246 C 
ATOM     25  O   UNL     1       0.384   0.281   2.590  0.00  0.00    -0.270 OA
ATOM     26  H   UNL     1      -2.033   1.737   1.335  0.00  0.00    +0.149 HD
BRANCH  23  27
ATOM     27  C   UNL     1      -0.668   0.642   0.133  0.00  0.00    +0.107 C 
BRANCH  27  28
ATOM     28  C   UNL     1      -1.537   1.060  -1.055  0.00  0.00    +0.047 C 
BRANCH  28  29
ATOM     29  C   UNL     1      -0.952   0.480  -2.344  0.00  0.00    +0.161 C 
BRANCH  29  31
ATOM     30  C   UNL     1      -1.302   0.379  -4.713  0.00  0.00    +0.193 C 
ATOM     31  O   UNL     1      -1.764   0.871  -3.453  0.00  0.00    -0.383 OA
ENDBRANCH  29  31
ENDBRANCH  28  29
ENDBRANCH  27  28
ENDBRANCH  23  27
ENDBRANCH   1  24
TORSDOF 7
