REMARK  Name = ZINC62978145
REMARK  8 active torsions:
REMARK  status: ('A' for Active; 'I' for Inactive)
REMARK    1  A    between atoms: C_1  and  N_2
REMARK    2  A    between atoms: N_2  and  C_3
REMARK    3  A    between atoms: C_3  and  C_4
REMARK    4  A    between atoms: C_4  and  C_5
REMARK    5  A    between atoms: C_5  and  N_6
REMARK    6  A    between atoms: C_7  and  C_9
REMARK    7  A    between atoms: C_9  and  N_10
REMARK    8  A    between atoms: C_13  and  N_16
REMARK                            x       y       z     vdW  Elec       q    Type
REMARK                         _______ _______ _______ _____ _____    ______ ____
ROOT
ATOM      1  C   UNL     1      -0.023   0.089  -2.470  0.00  0.00    +0.019 C 
ENDROOT
BRANCH   1   2
ATOM      2  N   UNL     1      -0.020  -0.860  -3.591  0.00  0.00    +0.386 N 
ATOM      3  C   UNL     1      -1.309  -1.596  -3.642  0.00  0.00    -0.077 C 
ATOM      4  C   UNL     1      -1.380  -2.087  -5.110  0.00  0.00    -0.002 C 
ATOM      5  C   UNL     1      -0.773  -0.903  -5.899  0.00  0.00    +0.039 C 
ATOM      6  C   UNL     1       0.079  -0.131  -4.875  0.00  0.00    -0.059 C 
ATOM      7  H   UNL     1       0.748  -1.507  -3.499  0.00  0.00    -0.081 HD
BRANCH   5   8
ATOM      8  N   UNL     1       0.069  -1.400  -6.995  0.00  0.00    -0.297 NA
ATOM      9  C   UNL     1       0.750  -0.292  -7.681  0.00  0.00    +0.112 C 
ATOM     10  C   UNL     1       1.661  -0.857  -8.774  0.00  0.00    +0.175 C 
ATOM     11  O   UNL     1       0.882  -1.653  -9.671  0.00  0.00    -0.377 OA
ATOM     12  C   UNL     1       0.206  -2.742  -9.037  0.00  0.00    +0.175 C 
ATOM     13  C   UNL     1      -0.720  -2.196  -7.947  0.00  0.00    +0.112 C 
ENDBRANCH   5   8
ENDBRANCH   1   2
BRANCH   1  16
ATOM     14  C   UNL     1      -0.018   1.461   0.010  0.00  0.00    +0.132 C 
ATOM     15  N   UNL     1       0.002  -0.004   0.002  0.00  0.00    -0.306 N 
ATOM     16  C   UNL     1       0.000  -0.672  -1.169  0.00  0.00    +0.199 C 
ATOM     17  O   UNL     1       0.017  -1.884  -1.175  0.00  0.00    -0.278 OA
BRANCH  15  18
ATOM     18  C   UNL     1       0.024  -0.743   1.267  0.00  0.00    +0.105 C 
BRANCH  18  19
ATOM     19  C   UNL     1      -1.411  -1.020   1.720  0.00  0.00    -0.001 C 
BRANCH  19  20
ATOM     20  C   UNL     1      -1.387  -1.792   3.041  0.00  0.00    -0.085 C 
BRANCH  20  21
ATOM     21  N   UNL     1      -2.765  -2.058   3.477  0.00  0.00    +0.378 N 
ATOM     22  H   UNL     1      -2.750  -2.567   4.348  0.00  0.00    -0.090 HD
ATOM     23  H   UNL     1      -3.251  -1.184   3.607  0.00  0.00    -0.090 HD
ATOM     24  H   UNL     1      -3.240  -2.606   2.775  0.00  0.00    -0.090 HD
ENDBRANCH  20  21
ENDBRANCH  19  20
ENDBRANCH  18  19
ENDBRANCH  15  18
ENDBRANCH   1  16
TORSDOF 7
