REMARK  Name = ZINC03546550
REMARK  6 active torsions:
REMARK  status: ('A' for Active; 'I' for Inactive)
REMARK    1  A    between atoms: C_1  and  C_2
REMARK    2  A    between atoms: C_4  and  C_14
REMARK    3  A    between atoms: C_5  and  C_13
REMARK    4  A    between atoms: N_6  and  C_7
REMARK    5  A    between atoms: C_7  and  C_8
REMARK    6  A    between atoms: N_15  and  N_16
REMARK                            x       y       z     vdW  Elec       q    Type
REMARK                         _______ _______ _______ _____ _____    ______ ____
ROOT
ATOM      1  C   UNL     1       4.959   2.233  -0.032  0.00  0.00    +0.063 C 
ATOM      2  C   UNL     1       3.455   2.321  -0.018  0.00  0.00    +0.017 A 
ATOM      3  C   UNL     1       2.610   1.274  -0.010  0.00  0.00    +0.032 A 
ATOM      4  C   UNL     1       1.254   1.831  -0.000  0.00  0.00    +0.015 A 
ATOM      5  C   UNL     1       1.400   3.188   0.006  0.00  0.00    +0.025 A 
ATOM      6  N   UNL     1       2.728   3.474  -0.005  0.00  0.00    -0.340 N 
ATOM      7  C   UNL     1       0.279   4.196   0.021  0.00  0.00    +0.064 C 
ENDROOT
BRANCH   4   8
ATOM      8  C   UNL     1      -0.013   1.076   0.008  0.00  0.00    +0.140 C 
ATOM      9  N   UNL     1      -1.145   1.709   0.017  0.00  0.00    -0.186 NA
BRANCH   9  10
ATOM     10  N   UNL     1      -2.349   0.992   0.019  0.00  0.00    -0.191 N 
ATOM     11  C   UNL     1      -3.525   1.650   0.028  0.00  0.00    +0.317 C 
ATOM     12  O   UNL     1      -4.570   1.028   0.029  0.00  0.00    -0.251 OA
ATOM     13  N   UNL     1      -3.543   2.998   0.035  0.00  0.00    -0.312 N 
ATOM     14  H   UNL     1      -2.335   0.022   0.013  0.00  0.00    +0.179 HD
ATOM     15  H   UNL     1      -2.710   3.494   0.034  0.00  0.00    +0.147 HD
ATOM     16  H   UNL     1      -4.390   3.471   0.042  0.00  0.00    +0.147 HD
ENDBRANCH   9  10
ENDBRANCH   4   8
BRANCH   6  17
ATOM     17  C   UNL     1       3.296   4.825  -0.003  0.00  0.00    +0.196 C 
BRANCH  17  18
ATOM     18  C   UNL     1       3.503   5.281   1.418  0.00  0.00    +0.124 A 
ATOM     19  C   UNL     1       4.616   5.091   2.150  0.00  0.00    +0.046 A 
ATOM     20  C   UNL     1       4.378   5.678   3.415  0.00  0.00    +0.041 A 
ATOM     21  C   UNL     1       3.132   6.184   3.382  0.00  0.00    +0.195 A 
ATOM     22  O   UNL     1       2.607   5.940   2.170  0.00  0.00    -0.466 OA
ENDBRANCH  17  18
ENDBRANCH   6  17
TORSDOF 4
