REMARK  Name = ZINC02975452
REMARK  6 active torsions:
REMARK  status: ('A' for Active; 'I' for Inactive)
REMARK    1  A    between atoms: C_9  and  O_33
REMARK    2  A    between atoms: C_10  and  C_11
REMARK    3  A    between atoms: N_12  and  N_13
REMARK    4  A    between atoms: C_14  and  S_16
REMARK    5  A    between atoms: S_16  and  C_17
REMARK    6  A    between atoms: N_22  and  C_25
REMARK                            x       y       z     vdW  Elec       q    Type
REMARK                         _______ _______ _______ _____ _____    ______ ____
ROOT
ATOM      1  N   UNL     1       3.535   7.480   0.010  0.00  0.00    -0.217 N 
ATOM      2  C   UNL     1       4.728   8.167   0.002  0.00  0.00    +0.146 C 
ATOM      3  N   UNL     1       5.857   7.514  -0.013  0.00  0.00    -0.380 N 
ATOM      4  H   UNL     1       2.583   8.031   0.024  0.00  0.00    +0.176 HD
ATOM      5  H   UNL     1       6.810   8.063  -0.020  0.00  0.00    +0.158 HD
ATOM      6  H   UNL     1       5.856   6.414  -0.020  0.00  0.00    +0.158 HD
ENDROOT
BRANCH   1   8
ATOM      7  C   UNL     1       2.408   5.430   0.009  0.00  0.00    +0.142 C 
ATOM      8  N   UNL     1       3.534   6.079   0.002  0.00  0.00    -0.188 NA
BRANCH   7  18
ATOM      9  C   UNL     1      -1.199   1.744   0.017  0.00  0.00    +0.001 A 
ATOM     10  C   UNL     1      -1.238   3.136   0.032  0.00  0.00    +0.001 A 
ATOM     11  C   UNL     1      -0.088   3.869   0.024  0.00  0.00    +0.009 A 
ATOM     12  C   UNL     1       1.149   3.215   0.008  0.00  0.00    -0.006 A 
ATOM     13  C   UNL     1       1.193   1.799   0.000  0.00  0.00    -0.017 A 
ATOM     14  C   UNL     1      -0.013   1.076   0.008  0.00  0.00    +0.008 A 
ATOM     15  C   UNL     1       2.436   1.144  -0.016  0.00  0.00    +0.012 A 
ATOM     16  C   UNL     1       3.596   1.853  -0.024  0.00  0.00    +0.046 A 
ATOM     17  C   UNL     1       3.604   3.246  -0.016  0.00  0.00    +0.126 A 
ATOM     18  C   UNL     1       2.406   3.960   0.001  0.00  0.00    +0.044 A 
BRANCH  17  19
ATOM     19  O   UNL     1       4.787   3.914  -0.025  0.00  0.00    -0.506 OA
ATOM     20  H   UNL     1       4.798   5.014  -0.019  0.00  0.00    +0.292 HD
ENDBRANCH  17  19
ENDBRANCH   7  18
ENDBRANCH   1   8
BRANCH   2  21
ATOM     21  S   UNL     1       4.729   9.929   0.013  0.00  0.00    -0.078 S 
BRANCH  21  22
ATOM     22  C   UNL     1       6.512  10.242  -0.003  0.00  0.00    +0.149 C 
ATOM     23  C   UNL     1       6.798  11.755   0.075  0.00  0.00    +0.120 C 
ATOM     24  C   UNL     1       7.530  12.041  -1.222  0.00  0.00    +0.228 C 
ATOM     25  O   UNL     1       7.943  13.127  -1.570  0.00  0.00    -0.275 OA
ATOM     26  N   UNL     1       7.649  10.906  -1.922  0.00  0.00    -0.208 N 
ATOM     27  C   UNL     1       7.112   9.832  -1.330  0.00  0.00    +0.240 C 
ATOM     28  O   UNL     1       7.107   8.708  -1.786  0.00  0.00    -0.274 OA
BRANCH  26  29
ATOM     29  C   UNL     1       8.285  10.847  -3.171  0.00  0.00    +0.064 A 
ATOM     30  C   UNL     1       7.552  11.042  -4.333  0.00  0.00    +0.045 A 
ATOM     31  C   UNL     1       8.181  10.983  -5.563  0.00  0.00    +0.043 A 
ATOM     32  C   UNL     1       9.540  10.730  -5.635  0.00  0.00    +0.021 A 
ATOM     33  C   UNL     1      10.272  10.534  -4.479  0.00  0.00    +0.023 A 
ATOM     34  C   UNL     1       9.649  10.598  -3.246  0.00  0.00    +0.063 A 
ATOM     35 CL   UNL     1      10.571  10.361  -1.794  0.00  0.00    -0.082 Cl
ATOM     36 CL   UNL     1       7.266  11.228  -7.017  0.00  0.00    -0.083 Cl
ENDBRANCH  26  29
ENDBRANCH  21  22
ENDBRANCH   2  21
TORSDOF 6
