REMARK  Name = ZINC38636254
REMARK  9 active torsions:
REMARK  status: ('A' for Active; 'I' for Inactive)
REMARK    1  A    between atoms: C_1  and  N_2
REMARK    2  A    between atoms: N_2  and  C_3
REMARK    3  A    between atoms: N_2  and  C_4
REMARK    4  A    between atoms: C_7  and  C_10
REMARK    5  A    between atoms: C_10  and  C_12
REMARK    6  A    between atoms: C_10  and  N_27
REMARK    7  A    between atoms: C_12  and  N_13
REMARK    8  A    between atoms: N_16  and  C_17
REMARK    9  A    between atoms: C_22  and  C_23
REMARK                            x       y       z     vdW  Elec       q    Type
REMARK                         _______ _______ _______ _____ _____    ______ ____
ROOT
ATOM      1  C   UNL     1      -5.346  -3.033  -1.288  0.00  0.00    +0.095 C 
ENDROOT
BRANCH   1   2
ATOM      2  N   UNL     1      -4.363  -3.696  -2.148  0.00  0.00    -0.300 N 
ATOM      3  C   UNL     1      -4.572  -3.770  -3.477  0.00  0.00    +0.304 C 
ATOM      4  O   UNL     1      -5.577  -3.287  -3.962  0.00  0.00    -0.253 OA
ATOM      5  N   UNL     1      -3.668  -4.381  -4.269  0.00  0.00    -0.269 N 
ATOM      6  H   UNL     1      -3.562  -4.082  -1.761  0.00  0.00    +0.150 HD
ATOM      7  H   UNL     1      -2.827  -4.689  -3.896  0.00  0.00    +0.156 HD
BRANCH   5   8
ATOM      8  C   UNL     1      -3.942  -4.569  -5.628  0.00  0.00    +0.046 A 
ATOM      9  C   UNL     1      -5.257  -4.621  -6.072  0.00  0.00    +0.024 A 
ATOM     10  C   UNL     1      -5.524  -4.807  -7.414  0.00  0.00    +0.002 A 
ATOM     11  C   UNL     1      -4.484  -4.941  -8.316  0.00  0.00    +0.001 A 
ATOM     12  C   UNL     1      -3.174  -4.891  -7.877  0.00  0.00    +0.014 A 
ATOM     13  C   UNL     1      -2.900  -4.699  -6.536  0.00  0.00    +0.076 A 
BRANCH  13  14
ATOM     14  C   UNL     1      -1.472  -4.637  -6.059  0.00  0.00    +0.419 C 
ATOM     15  F   UNL     1      -0.609  -4.792  -7.150  0.00  0.00    -0.166 F 
ATOM     16  F   UNL     1      -1.236  -3.400  -5.450  0.00  0.00    -0.166 F 
ATOM     17  F   UNL     1      -1.244  -5.663  -5.136  0.00  0.00    -0.166 F 
ENDBRANCH  13  14
ENDBRANCH   5   8
ENDBRANCH   1   2
BRANCH   1  18
ATOM     18  C   UNL     1      -4.813  -2.976   0.146  0.00  0.00    -0.020 C 
BRANCH  18  22
ATOM     19  C   UNL     1      -1.185  -0.718   0.228  0.00  0.00    +0.029 A 
ATOM     20  C   UNL     1      -1.141  -2.106   0.229  0.00  0.00    +0.023 A 
ATOM     21  C   UNL     1      -2.316  -2.833   0.203  0.00  0.00    +0.004 A 
ATOM     22  C   UNL     1      -3.534  -2.179   0.175  0.00  0.00    -0.059 A 
ATOM     23  C   UNL     1      -3.582  -0.797   0.173  0.00  0.00    +0.004 A 
ATOM     24  C   UNL     1      -2.411  -0.065   0.205  0.00  0.00    +0.023 A 
BRANCH  19  26
ATOM     25  C   UNL     1      -0.048   1.485   0.259  0.00  0.00    +0.129 C 
ATOM     26  N   UNL     1       0.000   0.020   0.255  0.00  0.00    -0.336 N 
ATOM     27  C   UNL     1       1.292  -0.670   0.278  0.00  0.00    +0.129 C 
ENDBRANCH  19  26
ENDBRANCH  18  22
BRANCH  18  28
ATOM     28  N   UNL     1      -5.810  -2.334   1.013  0.00  0.00    +0.385 N 
ATOM     29  C   UNL     1      -7.003  -3.207   1.156  0.00  0.00    -0.078 C 
ATOM     30  C   UNL     1      -7.656  -2.704   2.468  0.00  0.00    -0.020 C 
ATOM     31  C   UNL     1      -6.435  -2.379   3.359  0.00  0.00    -0.020 C 
ATOM     32  C   UNL     1      -5.266  -2.168   2.379  0.00  0.00    -0.078 C 
ATOM     33  H   UNL     1      -6.076  -1.438   0.634  0.00  0.00    -0.081 HD
ENDBRANCH  18  28
ENDBRANCH   1  18
TORSDOF 7
