REMARK  Name = ZINC14270245
REMARK  10 active torsions:
REMARK  status: ('A' for Active; 'I' for Inactive)
REMARK    1  A    between atoms: C_1  and  C_2
REMARK    2  A    between atoms: C_2  and  O_3
REMARK    3  A    between atoms: O_3  and  C_4
REMARK    4  A    between atoms: C_7  and  C_10
REMARK    5  A    between atoms: N_12  and  C_13
REMARK    6  A    between atoms: C_13  and  N_15
REMARK    7  A    between atoms: N_15  and  C_16
REMARK    8  A    between atoms: C_19  and  O_32
REMARK    9  A    between atoms: C_20  and  C_22
REMARK   10  A    between atoms: C_27  and  C_31
REMARK                            x       y       z     vdW  Elec       q    Type
REMARK                         _______ _______ _______ _____ _____    ______ ____
ROOT
ATOM      1  C   UNL     1      -0.010   1.393   0.003  0.00  0.00    +0.034 A 
ATOM      2  C   UNL     1       1.148   2.060   0.388  0.00  0.00    +0.027 A 
ATOM      3  C   UNL     1       2.366   1.409   0.369  0.00  0.00    +0.048 A 
ATOM      4  C   UNL     1       2.442   0.085  -0.034  0.00  0.00    +0.129 A 
ATOM      5  C   UNL     1       1.280  -0.593  -0.423  0.00  0.00    +0.080 A 
ATOM      6  C   UNL     1       0.052   0.071  -0.403  0.00  0.00    +0.040 A 
ENDROOT
BRANCH   5   7
ATOM      7  C   UNL     1       1.353  -2.003  -0.854  0.00  0.00    +0.232 A 
ATOM      8  N   UNL     1       0.330  -2.726  -1.236  0.00  0.00    -0.209 NA
ATOM      9  C   UNL     1       0.771  -3.969  -1.559  0.00  0.00    +0.110 A 
ATOM     10  C   UNL     1       0.139  -5.127  -2.019  0.00  0.00    +0.032 A 
ATOM     11  C   UNL     1       0.882  -6.261  -2.261  0.00  0.00    +0.005 A 
ATOM     12  C   UNL     1       2.253  -6.259  -2.051  0.00  0.00    -0.047 A 
ATOM     13  C   UNL     1       2.891  -5.123  -1.598  0.00  0.00    +0.052 A 
ATOM     14  C   UNL     1       2.159  -3.973  -1.349  0.00  0.00    +0.156 A 
ATOM     15  O   UNL     1       2.483  -2.733  -0.917  0.00  0.00    -0.435 OA
ATOM     16  C   UNL     1       3.052  -7.508  -2.322  0.00  0.00    +0.044 C 
ENDBRANCH   5   7
BRANCH   1  17
ATOM     17  N   UNL     1      -1.240   2.063   0.019  0.00  0.00    -0.297 N 
ATOM     18  H   UNL     1      -1.845   1.984  -0.735  0.00  0.00    +0.154 HD
BRANCH  17  19
ATOM     19  C   UNL     1      -1.583   2.816   1.083  0.00  0.00    +0.141 C 
ATOM     20  S   UNL     1      -0.472   3.043   2.365  0.00  0.00    -0.018 S 
BRANCH  19  23
ATOM     21  C   UNL     1      -3.144   4.144   2.200  0.00  0.00    +0.250 C 
ATOM     22  O   UNL     1      -2.356   4.306   3.111  0.00  0.00    -0.270 OA
ATOM     23  N   UNL     1      -2.801   3.391   1.137  0.00  0.00    -0.264 N 
ATOM     24  H   UNL     1      -3.431   3.263   0.410  0.00  0.00    +0.157 HD
BRANCH  21  28
ATOM     25  C   UNL     1      -6.981   5.955   2.370  0.00  0.00    +0.121 A 
ATOM     26  C   UNL     1      -6.080   6.141   3.412  0.00  0.00    +0.046 A 
ATOM     27  C   UNL     1      -4.835   5.555   3.361  0.00  0.00    +0.016 A 
ATOM     28  C   UNL     1      -4.477   4.774   2.259  0.00  0.00    +0.037 A 
ATOM     29  C   UNL     1      -5.384   4.594   1.210  0.00  0.00    +0.016 A 
ATOM     30  C   UNL     1      -6.629   5.178   1.272  0.00  0.00    +0.046 A 
BRANCH  25  31
ATOM     31  O   UNL     1      -8.207   6.535   2.424  0.00  0.00    -0.492 OA
BRANCH  31  33
ATOM     32  C   UNL     1     -10.408   7.030   1.557  0.00  0.00    +0.048 C 
ATOM     33  C   UNL     1      -9.083   6.303   1.319  0.00  0.00    +0.225 C 
ENDBRANCH  31  33
ENDBRANCH  25  31
ENDBRANCH  21  28
ENDBRANCH  19  23
ENDBRANCH  17  19
ENDBRANCH   1  17
BRANCH   4  34
ATOM     34  O   UNL     1       3.640  -0.553  -0.052  0.00  0.00    -0.506 OA
ATOM     35  H   UNL     1       4.114  -0.476  -0.891  0.00  0.00    +0.292 HD
ENDBRANCH   4  34
TORSDOF 8
