REMARK  Name = ZINC22917928
REMARK  8 active torsions:
REMARK  status: ('A' for Active; 'I' for Inactive)
REMARK    1  A    between atoms: C_1  and  C_2
REMARK    2  A    between atoms: C_3  and  C_12
REMARK    3  A    between atoms: C_12  and  C_14
REMARK    4  A    between atoms: C_12  and  N_20
REMARK    5  A    between atoms: N_23  and  C_26
REMARK    6  A    between atoms: C_26  and  C_28
REMARK    7  A    between atoms: C_26  and  C_34
REMARK    8  A    between atoms: C_35  and  C_44
REMARK                            x       y       z     vdW  Elec       q    Type
REMARK                         _______ _______ _______ _____ _____    ______ ____
ROOT
ATOM      1  N   UNL     1       0.750   0.650  -2.913  0.00  0.00    +0.389 N 
ATOM      2  C   UNL     1       0.718   0.870  -4.365  0.00  0.00    -0.062 C 
ATOM      3  C   UNL     1       1.633   2.042  -4.724  0.00  0.00    +0.067 C 
ATOM      4  N   UNL     1       3.004   1.742  -4.286  0.00  0.00    -0.295 NA
ATOM      5  C   UNL     1       3.047   1.495  -2.838  0.00  0.00    +0.067 C 
ATOM      6  C   UNL     1       2.120   0.327  -2.495  0.00  0.00    -0.062 C 
ATOM      7  H   UNL     1       0.442   1.487  -2.440  0.00  0.00    -0.080 HD
ENDROOT
BRANCH   1   8
ATOM      8  C   UNL     1      -0.143  -0.464  -2.567  0.00  0.00    -0.004 C 
BRANCH   8  11
ATOM      9  C   UNL     1       0.062  -3.211  -1.135  0.00  0.00    +0.063 C 
ATOM     10  C   UNL     1      -0.023  -1.871  -0.449  0.00  0.00    +0.016 A 
ATOM     11  C   UNL     1      -0.112  -0.688  -1.077  0.00  0.00    -0.029 A 
ATOM     12  C   UNL     1      -0.173   0.344  -0.039  0.00  0.00    +0.002 A 
ATOM     13  C   UNL     1      -0.270   1.736  -0.060  0.00  0.00    +0.010 A 
ATOM     14  C   UNL     1      -0.306   2.431   1.116  0.00  0.00    +0.001 A 
ATOM     15  C   UNL     1      -0.247   1.764   2.332  0.00  0.00    +0.002 A 
ATOM     16  C   UNL     1      -0.151   0.390   2.375  0.00  0.00    +0.026 A 
ATOM     17  C   UNL     1      -0.113  -0.338   1.190  0.00  0.00    +0.047 A 
ATOM     18  N   UNL     1      -0.028  -1.682   0.906  0.00  0.00    -0.358 N 
ATOM     19  H   UNL     1       0.024  -2.389   1.567  0.00  0.00    +0.166 HD
ENDBRANCH   8  11
BRANCH   8  20
ATOM     20  C   UNL     1      -1.549  -0.133  -2.996  0.00  0.00    -0.057 A 
ATOM     21  C   UNL     1      -2.040   1.148  -2.826  0.00  0.00    +0.002 A 
ATOM     22  C   UNL     1      -3.330   1.451  -3.220  0.00  0.00    +0.000 A 
ATOM     23  C   UNL     1      -4.128   0.474  -3.784  0.00  0.00    +0.000 A 
ATOM     24  C   UNL     1      -3.637  -0.806  -3.955  0.00  0.00    +0.000 A 
ATOM     25  C   UNL     1      -2.346  -1.109  -3.566  0.00  0.00    +0.002 A 
ENDBRANCH   8  20
ENDBRANCH   1   8
BRANCH   4  26
ATOM     26  C   UNL     1       3.926   2.822  -4.664  0.00  0.00    +0.119 C 
BRANCH  26  27
ATOM     27  C   UNL     1       3.889   3.013  -6.159  0.00  0.00    +0.002 A 
ATOM     28  C   UNL     1       3.868   4.185  -6.813  0.00  0.00    +0.019 A 
ATOM     29  N   UNL     1       3.837   3.965  -8.163  0.00  0.00    -0.358 N 
ATOM     30  H   UNL     1       3.818   4.659  -8.841  0.00  0.00    +0.166 HD
ATOM     31  C   UNL     1       3.838   2.611  -8.417  0.00  0.00    +0.047 A 
ATOM     32  C   UNL     1       3.877   1.956  -7.173  0.00  0.00    +0.005 A 
ATOM     33  C   UNL     1       3.892   0.561  -7.120  0.00  0.00    +0.010 A 
ATOM     34  C   UNL     1       3.872  -0.162  -8.280  0.00  0.00    +0.001 A 
ATOM     35  C   UNL     1       3.838   0.480  -9.510  0.00  0.00    +0.002 A 
ATOM     36  C   UNL     1       3.813   1.856  -9.585  0.00  0.00    +0.026 A 
ATOM     37  C   UNL     1       3.877   5.542  -6.158  0.00  0.00    +0.063 C 
ENDBRANCH  26  27
BRANCH  26  38
ATOM     38  C   UNL     1       5.325   2.460  -4.238  0.00  0.00    -0.026 A 
ATOM     39  C   UNL     1       5.808   1.184  -4.463  0.00  0.00    +0.005 A 
ATOM     40  C   UNL     1       7.091   0.852  -4.072  0.00  0.00    +0.000 A 
ATOM     41  C   UNL     1       7.893   1.796  -3.457  0.00  0.00    +0.000 A 
ATOM     42  C   UNL     1       7.410   3.071  -3.233  0.00  0.00    +0.000 A 
ATOM     43  C   UNL     1       6.128   3.405  -3.628  0.00  0.00    +0.005 A 
ENDBRANCH  26  38
ENDBRANCH   4  26
TORSDOF 6
