REMARK  Name = ZINC67045524
REMARK  7 active torsions:
REMARK  status: ('A' for Active; 'I' for Inactive)
REMARK    1  A    between atoms: C_1  and  C_2
REMARK    2  A    between atoms: C_6  and  C_8
REMARK    3  A    between atoms: N_10  and  N_11
REMARK    4  A    between atoms: N_14  and  C_15
REMARK    5  A    between atoms: C_15  and  C_16
REMARK    6  A    between atoms: N_22  and  C_23
REMARK    7  A    between atoms: N_22  and  C_24
REMARK                            x       y       z     vdW  Elec       q    Type
REMARK                         _______ _______ _______ _____ _____    ______ ____
ROOT
ATOM      1  N   UNL     1       0.140  -4.916   3.662  0.00  0.00    -0.218 N 
ATOM      2  C   UNL     1       0.135  -6.264   3.647  0.00  0.00    +0.316 C 
ATOM      3  O   UNL     1       0.131  -6.884   4.693  0.00  0.00    -0.251 OA
ATOM      4  N   UNL     1       0.133  -6.924   2.472  0.00  0.00    -0.294 N 
ATOM      5  H   UNL     1       0.142  -4.441   4.508  0.00  0.00    +0.174 HD
ATOM      6  H   UNL     1       0.136  -6.430   1.638  0.00  0.00    +0.151 HD
ENDROOT
BRANCH   1   9
ATOM      7  C   UNL     1       0.151  -2.854   2.473  0.00  0.00    +0.260 C 
ATOM      8  O   UNL     1       0.152  -2.259   3.532  0.00  0.00    -0.269 OA
ATOM      9  N   UNL     1       0.145  -4.202   2.457  0.00  0.00    -0.229 N 
ATOM     10  H   UNL     1       0.144  -4.677   1.612  0.00  0.00    +0.173 HD
BRANCH   7  16
ATOM     11  C   UNL     1       0.171   1.500   0.035  0.00  0.00    +0.044 C 
ATOM     12  C   UNL     1       0.165  -0.007   0.023  0.00  0.00    -0.050 A 
ATOM     13  C   UNL     1       0.163  -0.688  -1.181  0.00  0.00    +0.003 A 
ATOM     14  C   UNL     1       0.158  -2.071  -1.201  0.00  0.00    +0.001 A 
ATOM     15  C   UNL     1       0.154  -2.781  -0.017  0.00  0.00    +0.013 A 
ATOM     16  C   UNL     1       0.155  -2.100   1.201  0.00  0.00    +0.038 A 
ATOM     17  C   UNL     1       0.166  -0.704   1.213  0.00  0.00    +0.016 A 
ENDBRANCH   7  16
ENDBRANCH   1   9
BRANCH   4  18
ATOM     18  C   UNL     1       0.127  -8.389   2.455  0.00  0.00    +0.142 C 
BRANCH  18  19
ATOM     19  C   UNL     1       0.126  -8.875   1.029  0.00  0.00    -0.014 A 
ATOM     20  C   UNL     1      -1.073  -9.091   0.362  0.00  0.00    +0.010 A 
ATOM     21  C   UNL     1      -1.029  -9.537  -0.947  0.00  0.00    +0.042 A 
ATOM     22  C   UNL     1       0.207  -9.754  -1.547  0.00  0.00    +0.098 A 
ATOM     23  N   UNL     1       1.328  -9.536  -0.877  0.00  0.00    -0.349 N 
ATOM     24  C   UNL     1       1.317  -9.105   0.370  0.00  0.00    +0.089 A 
ATOM     25  N   UNL     1       0.266 -10.202  -2.861  0.00  0.00    -0.323 N 
ATOM     26  C   UNL     1      -0.965 -10.573  -3.564  0.00  0.00    +0.130 C 
ATOM     27  C   UNL     1       1.558 -10.305  -3.543  0.00  0.00    +0.130 C 
ATOM     28  H   UNL     1       2.179  -9.694  -1.315  0.00  0.00    +0.167 HD
ENDBRANCH  18  19
ENDBRANCH   4  18
TORSDOF 4
