REMARK  Name = ZINC66246052
REMARK  10 active torsions:
REMARK  status: ('A' for Active; 'I' for Inactive)
REMARK    1  A    between atoms: C_1  and  N_2
REMARK    2  A    between atoms: N_6  and  C_9
REMARK    3  A    between atoms: C_9  and  C_10
REMARK    4  A    between atoms: C_10  and  C_11
REMARK    5  A    between atoms: C_11  and  N_12
REMARK    6  A    between atoms: N_15  and  C_16
REMARK    7  A    between atoms: C_16  and  C_17
REMARK    8  A    between atoms: C_17  and  C_18
REMARK    9  A    between atoms: C_21  and  O_24
REMARK   10  A    between atoms: O_24  and  C_25
REMARK                            x       y       z     vdW  Elec       q    Type
REMARK                         _______ _______ _______ _____ _____    ______ ____
ROOT
ATOM      1  N   UNL     1       0.973  -7.032  -2.298  0.00  0.00    -0.358 N 
ATOM      2  C   UNL     1       1.448  -8.301  -2.532  0.00  0.00    +0.169 C 
ATOM      3  N   UNL     1       2.389  -8.794  -1.777  0.00  0.00    -0.371 N 
ATOM      4  N   UNL     1       0.931  -9.049  -3.563  0.00  0.00    -0.357 N 
ATOM      5  H   UNL     1       0.272  -6.665  -2.860  0.00  0.00    +0.162 HD
ATOM      6  H   UNL     1       2.725  -9.689  -1.942  0.00  0.00    +0.159 HD
ATOM      7  H   UNL     1       0.231  -8.683  -4.125  0.00  0.00    +0.162 HD
ATOM      8  H   UNL     1       2.754  -8.265  -1.050  0.00  0.00    +0.159 HD
ENDROOT
BRANCH   1   9
ATOM      9  C   UNL     1       1.524  -6.234  -1.200  0.00  0.00    +0.117 C 
BRANCH   9  10
ATOM     10  C   UNL     1       0.826  -4.873  -1.158  0.00  0.00    +0.036 C 
BRANCH  10  11
ATOM     11  C   UNL     1       1.402  -4.040  -0.011  0.00  0.00    +0.086 C 
BRANCH  11  17
ATOM     12  C   UNL     1      -0.018   1.465   0.010  0.00  0.00    -0.096 C 
ATOM     13  N   UNL     1       0.002  -0.004   0.002  0.00  0.00    +0.379 N 
ATOM     14  C   UNL     1      -1.380  -0.521   0.042  0.00  0.00    -0.078 C 
ATOM     15  C   UNL     1      -1.496  -1.886  -0.469  0.00  0.00    -0.003 C 
ATOM     16  C   UNL     1      -0.663  -2.877   0.375  0.00  0.00    +0.082 C 
ATOM     17  N   UNL     1       0.732  -2.733   0.029  0.00  0.00    -0.304 NA
ATOM     18  C   UNL     1       1.482  -1.779   0.876  0.00  0.00    +0.066 C 
ATOM     19  C   UNL     1       0.700  -0.488   1.170  0.00  0.00    -0.064 C 
ATOM     20  H   UNL     1       0.465  -0.334  -0.832  0.00  0.00    -0.082 HD
ENDBRANCH  11  17
ENDBRANCH  10  11
ENDBRANCH   9  10
ENDBRANCH   1   9
BRANCH   4  21
ATOM     21  C   UNL     1       1.438 -10.401  -3.812  0.00  0.00    +0.120 C 
BRANCH  21  22
ATOM     22  C   UNL     1       0.700 -11.010  -5.006  0.00  0.00    +0.056 C 
BRANCH  22  23
ATOM     23  C   UNL     1       1.221 -12.401  -5.263  0.00  0.00    -0.045 A 
ATOM     24  C   UNL     1       2.292 -12.590  -6.117  0.00  0.00    +0.007 A 
ATOM     25  C   UNL     1       2.771 -13.863  -6.354  0.00  0.00    +0.046 A 
ATOM     26  C   UNL     1       2.178 -14.953  -5.734  0.00  0.00    +0.120 A 
ATOM     27  C   UNL     1       1.103 -14.761  -4.878  0.00  0.00    +0.046 A 
ATOM     28  C   UNL     1       0.631 -13.485  -4.640  0.00  0.00    +0.007 A 
BRANCH  26  29
ATOM     29  O   UNL     1       2.647 -16.207  -5.966  0.00  0.00    -0.495 OA
ATOM     30  C   UNL     1       1.987 -17.282  -5.294  0.00  0.00    +0.277 C 
ENDBRANCH  26  29
ENDBRANCH  22  23
ENDBRANCH  21  22
ENDBRANCH   4  21
TORSDOF 8
