REMARK  Name = ZINC12844353
REMARK  7 active torsions:
REMARK  status: ('A' for Active; 'I' for Inactive)
REMARK    1  A    between atoms: C_6  and  C_7
REMARK    2  A    between atoms: C_10  and  C_30
REMARK    3  A    between atoms: C_15  and  C_17
REMARK    4  A    between atoms: N_19  and  C_20
REMARK    5  A    between atoms: C_20  and  C_21
REMARK    6  A    between atoms: C_21  and  C_22
REMARK    7  A    between atoms: C_22  and  N_23
REMARK                            x       y       z     vdW  Elec       q    Type
REMARK                         _______ _______ _______ _____ _____    ______ ____
ROOT
ATOM      1  C   UNL     1      -1.293  -0.775   0.011  0.00  0.00    +0.104 C 
ATOM      2  C   UNL     1      -1.616  -1.254  -1.409  0.00  0.00    +0.063 C 
ATOM      3  C   UNL     1      -2.966  -1.979  -1.420  0.00  0.00    +0.215 C 
ATOM      4  N   UNL     1      -2.977  -2.980  -0.349  0.00  0.00    -0.237 N 
ATOM      5  C   UNL     1      -2.125  -2.956   0.719  0.00  0.00    +0.137 A 
ATOM      6  C   UNL     1      -2.404  -4.016   1.503  0.00  0.00    +0.112 A 
ATOM      7  C   UNL     1      -3.469  -4.724   0.900  0.00  0.00    +0.167 A 
ATOM      8  N   UNL     1      -3.806  -4.092  -0.212  0.00  0.00    -0.163 NA
ATOM      9 CL   UNL     1      -1.601  -4.437   2.983  0.00  0.00    -0.078 Cl
ATOM     10  N   UNL     1      -1.162  -1.954   0.890  0.00  0.00    -0.321 N 
ATOM     11  H   UNL     1      -0.450  -2.030   1.544  0.00  0.00    +0.148 HD
ENDROOT
BRANCH   1  17
ATOM     12  C   UNL     1      -0.017   1.378   0.010  0.00  0.00    +0.007 A 
ATOM     13  C   UNL     1       1.171   2.086   0.002  0.00  0.00    +0.020 A 
ATOM     14  C   UNL     1       2.378   1.410  -0.013  0.00  0.00    +0.041 A 
ATOM     15  C   UNL     1       2.396   0.027  -0.021  0.00  0.00    +0.020 A 
ATOM     16  C   UNL     1       1.208  -0.679  -0.013  0.00  0.00    +0.007 A 
ATOM     17  C   UNL     1       0.002  -0.004   0.002  0.00  0.00    -0.027 A 
ATOM     18 CL   UNL     1       3.870   2.298  -0.023  0.00  0.00    -0.084 Cl
ENDBRANCH   1  17
BRANCH   7  19
ATOM     19  C   UNL     1      -4.097  -5.955   1.421  0.00  0.00    +0.266 C 
ATOM     20  O   UNL     1      -3.699  -6.447   2.459  0.00  0.00    -0.268 OA
ATOM     21  N   UNL     1      -5.110  -6.533   0.746  0.00  0.00    -0.310 N 
ATOM     22  H   UNL     1      -5.427  -6.140  -0.082  0.00  0.00    +0.149 HD
BRANCH  21  23
ATOM     23  C   UNL     1      -5.732  -7.754   1.263  0.00  0.00    +0.106 C 
BRANCH  23  24
ATOM     24  C   UNL     1      -6.847  -8.200   0.315  0.00  0.00    +0.040 C 
BRANCH  24  25
ATOM     25  C   UNL     1      -7.497  -9.475   0.855  0.00  0.00    +0.124 C 
BRANCH  25  26
ATOM     26  N   UNL     1      -8.564  -9.902  -0.053  0.00  0.00    -0.338 N 
ATOM     27  C   UNL     1      -9.879  -9.525   0.005  0.00  0.00    +0.104 A 
ATOM     28  C   UNL     1     -10.508 -10.145  -1.012  0.00  0.00    +0.101 A 
ATOM     29  N   UNL     1      -9.601 -10.879  -1.674  0.00  0.00    -0.352 N 
ATOM     30  C   UNL     1      -8.434 -10.735  -1.108  0.00  0.00    +0.173 A 
ATOM     31  H   UNL     1      -9.784 -11.429  -2.452  0.00  0.00    +0.166 HD
ENDBRANCH  25  26
ENDBRANCH  24  25
ENDBRANCH  23  24
ENDBRANCH  21  23
ENDBRANCH   7  19
BRANCH   3  32
ATOM     32  C   UNL     1      -3.166  -2.669  -2.771  0.00  0.00    +0.412 C 
ATOM     33  F   UNL     1      -2.139  -3.596  -2.978  0.00  0.00    -0.168 F 
ATOM     34  F   UNL     1      -4.399  -3.330  -2.780  0.00  0.00    -0.168 F 
ATOM     35  F   UNL     1      -3.143  -1.712  -3.792  0.00  0.00    -0.168 F 
ENDBRANCH   3  32
TORSDOF 7
