REMARK  Name = ZINC59876571
REMARK  8 active torsions:
REMARK  status: ('A' for Active; 'I' for Inactive)
REMARK    1  A    between atoms: C_4  and  N_13
REMARK    2  A    between atoms: C_5  and  C_7
REMARK    3  A    between atoms: C_7  and  N_8
REMARK    4  A    between atoms: C_14  and  C_16
REMARK    5  A    between atoms: C_16  and  C_17
REMARK    6  A    between atoms: C_17  and  C_18
REMARK    7  A    between atoms: C_18  and  C_19
REMARK    8  A    between atoms: C_19  and  C_20
REMARK                            x       y       z     vdW  Elec       q    Type
REMARK                         _______ _______ _______ _____ _____    ______ ____
ROOT
ATOM      1  N   UNL     1       3.622  -0.651  -0.037  0.00  0.00    -0.285 N 
ATOM      2  C   UNL     1       4.775   0.037  -0.147  0.00  0.00    +0.217 C 
ATOM      3  O   UNL     1       4.761   1.250  -0.141  0.00  0.00    -0.275 OA
ATOM      4  H   UNL     1       3.639  -1.618   0.038  0.00  0.00    +0.155 HD
ENDROOT
BRANCH   1   8
ATOM      5  C   UNL     1      -0.019   1.375  -0.023  0.00  0.00    +0.000 A 
ATOM      6  C   UNL     1       1.087   1.947  -0.626  0.00  0.00    +0.002 A 
ATOM      7  C   UNL     1       2.295   1.278  -0.633  0.00  0.00    +0.023 A 
ATOM      8  C   UNL     1       2.399   0.030  -0.032  0.00  0.00    +0.035 A 
ATOM      9  C   UNL     1       1.287  -0.541   0.573  0.00  0.00    -0.043 A 
ATOM     10  C   UNL     1       0.082   0.133   0.576  0.00  0.00    +0.003 A 
BRANCH   9  11
ATOM     11  C   UNL     1       1.396  -1.895   1.226  0.00  0.00    -0.041 C 
BRANCH  11  12
ATOM     12  N   UNL     1       2.000  -1.750   2.557  0.00  0.00    +0.382 N 
ATOM     13  C   UNL     1       1.066  -1.042   3.469  0.00  0.00    -0.078 C 
ATOM     14  C   UNL     1       1.559  -1.460   4.877  0.00  0.00    -0.020 C 
ATOM     15  C   UNL     1       1.969  -2.937   4.675  0.00  0.00    -0.020 C 
ATOM     16  C   UNL     1       2.224  -3.080   3.163  0.00  0.00    -0.078 C 
ATOM     17  H   UNL     1       2.872  -1.246   2.491  0.00  0.00    -0.081 HD
ENDBRANCH  11  12
ENDBRANCH   9  11
ENDBRANCH   1   8
BRANCH   2  18
ATOM     18  C   UNL     1       6.083  -0.701  -0.278  0.00  0.00    +0.096 C 
BRANCH  18  19
ATOM     19  C   UNL     1       7.229   0.307  -0.386  0.00  0.00    +0.009 C 
BRANCH  19  20
ATOM     20  C   UNL     1       8.556  -0.442  -0.519  0.00  0.00    +0.002 C 
BRANCH  20  21
ATOM     21  C   UNL     1       9.702   0.566  -0.627  0.00  0.00    +0.016 C 
BRANCH  21  22
ATOM     22  C   UNL     1      11.030  -0.183  -0.760  0.00  0.00    +0.069 C 
ATOM     23  C   UNL     1      12.209   0.802  -0.915  0.00  0.00    +0.108 C 
ATOM     24  C   UNL     1      13.462   0.388  -0.138  0.00  0.00    +0.105 C 
ATOM     25  C   UNL     1      13.295  -0.927   0.653  0.00  0.00    +0.093 C 
ATOM     26  S   UNL     1      11.470  -1.036   0.816  0.00  0.00    -0.154 S 
ATOM     27  N   UNL     1      13.672   1.489   0.814  0.00  0.00    -0.294 N 
ATOM     28  C   UNL     1      12.711   2.407   0.640  0.00  0.00    +0.300 C 
ATOM     29  O   UNL     1      12.642   3.428   1.297  0.00  0.00    -0.253 OA
ATOM     30  N   UNL     1      11.838   2.094  -0.315  0.00  0.00    -0.294 N 
ATOM     31  H   UNL     1      14.391   1.542   1.464  0.00  0.00    +0.151 HD
ATOM     32  H   UNL     1      11.078   2.638  -0.575  0.00  0.00    +0.151 HD
ENDBRANCH  21  22
ENDBRANCH  20  21
ENDBRANCH  19  20
ENDBRANCH  18  19
ENDBRANCH   2  18
TORSDOF 8
