REMARK  Name = ZINC65416059
REMARK  7 active torsions:
REMARK  status: ('A' for Active; 'I' for Inactive)
REMARK    1  A    between atoms: C_1  and  C_2
REMARK    2  A    between atoms: N_5  and  C_8
REMARK    3  A    between atoms: C_8  and  C_9
REMARK    4  A    between atoms: C_8  and  C_10
REMARK    5  A    between atoms: C_10  and  N_11
REMARK    6  A    between atoms: N_14  and  C_15
REMARK    7  A    between atoms: C_17  and  C_23
REMARK                            x       y       z     vdW  Elec       q    Type
REMARK                         _______ _______ _______ _____ _____    ______ ____
ROOT
ATOM      1  N   UNL     1       2.040  -3.776   2.394  0.00  0.00    -0.301 N 
ATOM      2  C   UNL     1       2.674  -3.953   3.570  0.00  0.00    +0.304 C 
ATOM      3  O   UNL     1       3.831  -4.325   3.587  0.00  0.00    -0.253 OA
ATOM      4  N   UNL     1       2.024  -3.719   4.728  0.00  0.00    -0.265 N 
ATOM      5  H   UNL     1       1.116  -3.480   2.381  0.00  0.00    +0.150 HD
ATOM      6  H   UNL     1       1.126  -3.353   4.714  0.00  0.00    +0.157 HD
ENDROOT
BRANCH   4   7
ATOM      7  C   UNL     1       2.647  -4.003   5.951  0.00  0.00    +0.100 A 
ATOM      8  C   UNL     1       2.828  -3.017   6.882  0.00  0.00    +0.042 A 
ATOM      9  C   UNL     1       3.454  -3.329   8.097  0.00  0.00    +0.073 A 
ATOM     10  C   UNL     1       3.870  -4.593   8.340  0.00  0.00    +0.098 A 
ATOM     11  N   UNL     1       3.691  -5.574   7.416  0.00  0.00    -0.327 N 
ATOM     12  H   UNL     1       3.997  -6.475   7.608  0.00  0.00    +0.168 HD
ATOM     13  C   UNL     1       3.090  -5.312   6.240  0.00  0.00    +0.270 A 
ATOM     14  O   UNL     1       2.931  -6.205   5.423  0.00  0.00    -0.266 OA
BRANCH   9  15
ATOM     15  C   UNL     1       3.662  -2.256   9.134  0.00  0.00    +0.419 C 
ATOM     16  F   UNL     1       4.301  -2.804  10.252  0.00  0.00    -0.166 F 
ATOM     17  F   UNL     1       4.456  -1.236   8.597  0.00  0.00    -0.166 F 
ATOM     18  F   UNL     1       2.423  -1.729   9.516  0.00  0.00    -0.166 F 
ENDBRANCH   9  15
ENDBRANCH   4   7
BRANCH   1  19
ATOM     19  C   UNL     1       2.746  -4.031   1.136  0.00  0.00    +0.090 C 
BRANCH  19  20
ATOM     20  C   UNL     1       1.855  -3.626  -0.040  0.00  0.00    -0.054 C 
ATOM     21  C   UNL     1       2.627  -3.800  -1.349  0.00  0.00    -0.012 C 
BRANCH  20  26
ATOM     22  C   UNL     1       0.744   1.945  -0.537  0.00  0.00    +0.007 C 
ATOM     23  C   UNL     1       1.206   0.513  -0.815  0.00  0.00    -0.018 C 
ATOM     24  C   UNL     1       2.241   0.097   0.233  0.00  0.00    -0.016 C 
ATOM     25  C   UNL     1       2.640  -1.362  -0.003  0.00  0.00    -0.078 C 
ATOM     26  N   UNL     1       1.455  -2.221   0.110  0.00  0.00    +0.382 N 
ATOM     27  C   UNL     1       0.487  -1.874  -0.938  0.00  0.00    -0.078 C 
ATOM     28  C   UNL     1       0.006  -0.435  -0.739  0.00  0.00    -0.016 C 
ATOM     29  H   UNL     1       1.030  -2.089   1.015  0.00  0.00    -0.081 HD
ENDBRANCH  20  26
ENDBRANCH  19  20
ENDBRANCH   1  19
TORSDOF 5
