REMARK  Name = ZINC43038054
REMARK  9 active torsions:
REMARK  status: ('A' for Active; 'I' for Inactive)
REMARK    1  A    between atoms: C_3  and  O_22
REMARK    2  A    between atoms: C_6  and  C_7
REMARK    3  A    between atoms: C_7  and  N_8
REMARK    4  A    between atoms: N_11  and  C_12
REMARK    5  A    between atoms: C_12  and  C_13
REMARK    6  A    between atoms: C_13  and  C_14
REMARK    7  A    between atoms: C_14  and  N_15
REMARK    8  A    between atoms: N_15  and  C_16
REMARK    9  A    between atoms: O_22  and  C_23
REMARK                            x       y       z     vdW  Elec       q    Type
REMARK                         _______ _______ _______ _____ _____    ______ ____
ROOT
ATOM      1  N   UNL     1      -1.727  -1.016  -1.368  0.00  0.00    -0.295 N 
ATOM      2  C   UNL     1      -2.868  -1.692  -1.606  0.00  0.00    +0.300 C 
ATOM      3  O   UNL     1      -3.538  -2.100  -0.678  0.00  0.00    -0.253 OA
ATOM      4  N   UNL     1      -3.267  -1.914  -2.874  0.00  0.00    -0.299 N 
ATOM      5  H   UNL     1      -1.192  -0.690  -2.108  0.00  0.00    +0.151 HD
ATOM      6  H   UNL     1      -2.732  -1.588  -3.615  0.00  0.00    +0.150 HD
ENDROOT
BRANCH   1   7
ATOM      7  C   UNL     1      -1.293  -0.774   0.011  0.00  0.00    +0.141 C 
BRANCH   7  13
ATOM      8  C   UNL     1      -0.017   1.378   0.010  0.00  0.00    +0.009 A 
ATOM      9  C   UNL     1       1.169   2.087   0.002  0.00  0.00    +0.046 A 
ATOM     10  C   UNL     1       2.380   1.409  -0.013  0.00  0.00    +0.127 A 
ATOM     11  C   UNL     1       2.396   0.022  -0.021  0.00  0.00    +0.046 A 
ATOM     12  C   UNL     1       1.207  -0.681  -0.013  0.00  0.00    +0.009 A 
ATOM     13  C   UNL     1       0.002  -0.004   0.002  0.00  0.00    -0.030 A 
BRANCH  10  14
ATOM     14  O   UNL     1       3.548   2.104  -0.021  0.00  0.00    -0.434 OA
BRANCH  14  15
ATOM     15  C   UNL     1       4.756   1.341  -0.036  0.00  0.00    +0.541 C 
ATOM     16  F   UNL     1       4.810   0.528   1.101  0.00  0.00    -0.166 F 
ATOM     17  F   UNL     1       4.787   0.540  -1.183  0.00  0.00    -0.166 F 
ENDBRANCH  14  15
ENDBRANCH  10  14
ENDBRANCH   7  13
ENDBRANCH   1   7
BRANCH   4  18
ATOM     18  C   UNL     1      -4.508  -2.649  -3.134  0.00  0.00    +0.104 C 
BRANCH  18  19
ATOM     19  C   UNL     1      -4.727  -2.762  -4.644  0.00  0.00    -0.000 C 
BRANCH  19  20
ATOM     20  C   UNL     1      -6.023  -3.529  -4.915  0.00  0.00    -0.081 C 
BRANCH  20  21
ATOM     21  N   UNL     1      -6.234  -3.638  -6.364  0.00  0.00    +0.381 N 
ATOM     22  H   UNL     1      -6.300  -2.714  -6.765  0.00  0.00    -0.086 HD
ATOM     23  H   UNL     1      -5.458  -4.131  -6.781  0.00  0.00    -0.086 HD
BRANCH  21  24
ATOM     24  C   UNL     1      -7.478  -4.375  -6.624  0.00  0.00    -0.072 C 
ATOM     25  C   UNL     1      -7.332  -5.814  -6.127  0.00  0.00    -0.016 C 
ATOM     26  C   UNL     1      -8.628  -6.581  -6.398  0.00  0.00    -0.002 C 
ATOM     27  C   UNL     1      -8.912  -6.587  -7.902  0.00  0.00    -0.000 C 
ATOM     28  C   UNL     1      -9.058  -5.147  -8.399  0.00  0.00    -0.002 C 
ATOM     29  C   UNL     1      -7.762  -4.380  -8.128  0.00  0.00    -0.016 C 
ENDBRANCH  21  24
ENDBRANCH  20  21
ENDBRANCH  19  20
ENDBRANCH  18  19
ENDBRANCH   4  18
TORSDOF 9
