REMARK  Name = ZINC32114924
REMARK  9 active torsions:
REMARK  status: ('A' for Active; 'I' for Inactive)
REMARK    1  A    between atoms: C_1  and  C_2
REMARK    2  A    between atoms: C_5  and  C_11
REMARK    3  A    between atoms: C_7  and  N_8
REMARK    4  A    between atoms: N_13  and  C_14
REMARK    5  A    between atoms: C_14  and  N_16
REMARK    6  A    between atoms: N_16  and  C_17
REMARK    7  A    between atoms: C_20  and  N_24
REMARK    8  A    between atoms: C_21  and  C_23
REMARK    9  A    between atoms: C_25  and  C_27
REMARK                            x       y       z     vdW  Elec       q    Type
REMARK                         _______ _______ _______ _____ _____    ______ ____
ROOT
ATOM      1  C   UNL     1      -9.600   3.970  -0.102  0.00  0.00    +0.033 A 
ATOM      2  C   UNL     1      -8.884   3.128   0.741  0.00  0.00    +0.025 A 
ATOM      3  C   UNL     1      -7.516   3.269   0.857  0.00  0.00    +0.025 A 
ATOM      4  C   UNL     1      -6.855   4.252   0.132  0.00  0.00    +0.037 A 
ATOM      5  C   UNL     1      -7.571   5.097  -0.705  0.00  0.00    -0.027 A 
ATOM      6  C   UNL     1      -8.939   4.953  -0.826  0.00  0.00    +0.028 A 
ATOM      7  C   UNL     1      -6.855   6.168  -1.487  0.00  0.00    +0.046 C 
ENDROOT
BRANCH   4   8
ATOM      8  N   UNL     1      -5.467   4.395   0.250  0.00  0.00    -0.279 N 
ATOM      9  C   UNL     1      -4.830   3.913   1.335  0.00  0.00    +0.284 C 
ATOM     10  O   UNL     1      -5.471   3.474   2.272  0.00  0.00    -0.266 OA
ATOM     11  H   UNL     1      -4.897   4.901  -0.543  0.00  0.00    +0.155 HD
BRANCH   9  12
ATOM     12  C   UNL     1      -3.362   3.916   1.387  0.00  0.00    +0.191 A 
ATOM     13  C   UNL     1      -2.615   3.457   2.425  0.00  0.00    +0.063 A 
ATOM     14  C   UNL     1      -1.219   3.658   2.040  0.00  0.00    +0.021 A 
ATOM     15  C   UNL     1       0.008   3.401   2.656  0.00  0.00    +0.011 A 
ATOM     16  C   UNL     1       1.170   3.712   2.007  0.00  0.00    +0.001 A 
ATOM     17  C   UNL     1       1.138   4.286   0.744  0.00  0.00    +0.004 A 
ATOM     18  C   UNL     1      -0.062   4.553   0.121  0.00  0.00    +0.047 A 
ATOM     19  C   UNL     1      -1.257   4.246   0.761  0.00  0.00    +0.136 A 
ATOM     20  O   UNL     1      -2.551   4.386   0.415  0.00  0.00    -0.450 OA
ENDBRANCH   9  12
ENDBRANCH   4   8
BRANCH   1  21
ATOM     21  N   UNL     1     -10.988   3.827  -0.220  0.00  0.00    -0.297 N 
ATOM     22  H   UNL     1     -11.461   3.857  -1.212  0.00  0.00    +0.154 HD
BRANCH  21  23
ATOM     23  C   UNL     1     -11.744   3.653   0.882  0.00  0.00    +0.141 C 
ATOM     24  S   UNL     1     -11.000   3.524   2.419  0.00  0.00    -0.018 S 
BRANCH  23  27
ATOM     25  C   UNL     1     -13.841   3.405   1.876  0.00  0.00    +0.250 C 
ATOM     26  O   UNL     1     -13.314   3.314   2.967  0.00  0.00    -0.270 OA
ATOM     27  N   UNL     1     -13.085   3.580   0.774  0.00  0.00    -0.264 N 
ATOM     28  H   UNL     1     -13.563   3.663  -0.213  0.00  0.00    +0.157 HD
BRANCH  25  33
ATOM     29  C   UNL     1     -19.569   3.093   1.417  0.00  0.00    +0.046 C 
ATOM     30  C   UNL     1     -18.069   3.175   1.537  0.00  0.00    -0.020 A 
ATOM     31  C   UNL     1     -17.295   3.354   0.403  0.00  0.00    +0.006 A 
ATOM     32  C   UNL     1     -15.922   3.436   0.507  0.00  0.00    +0.013 A 
ATOM     33  C   UNL     1     -15.312   3.325   1.758  0.00  0.00    +0.039 A 
ATOM     34  C   UNL     1     -16.098   3.145   2.898  0.00  0.00    +0.046 A 
ATOM     35  C   UNL     1     -17.471   3.071   2.780  0.00  0.00    +0.130 A 
BRANCH  35  36
ATOM     36  N   UNL     1     -18.306   2.880   3.987  0.00  0.00    +0.057 N 
ATOM     37  O   UNL     1     -17.779   2.716   5.073  0.00  0.00    -0.126 OA
ATOM     38  O   UNL     1     -19.521   2.886   3.895  0.00  0.00    -0.126 OA
ENDBRANCH  35  36
ENDBRANCH  25  33
ENDBRANCH  23  27
ENDBRANCH  21  23
ENDBRANCH   1  21
TORSDOF 7
