REMARK  Name = ZINC08790091
REMARK  6 active torsions:
REMARK  status: ('A' for Active; 'I' for Inactive)
REMARK    1  A    between atoms: C_1  and  C_2
REMARK    2  A    between atoms: C_2  and  C_3
REMARK    3  A    between atoms: C_23  and  C_30
REMARK    4  A    between atoms: C_30  and  C_32
REMARK    5  A    between atoms: C_36  and  O_38
REMARK    6  A    between atoms: O_38  and  C_39
REMARK                            x       y       z     vdW  Elec       q    Type
REMARK                         _______ _______ _______ _____ _____    ______ ____
ROOT
ATOM      1  C   UNL     1      -8.518   3.538   8.958  0.00  0.00    -0.026 A 
ATOM      2  C   UNL     1      -9.817   3.076   8.903  0.00  0.00    +0.005 A 
ATOM      3  C   UNL     1     -10.271   2.401   7.785  0.00  0.00    +0.001 A 
ATOM      4  C   UNL     1      -9.419   2.188   6.715  0.00  0.00    +0.004 A 
ATOM      5  C   UNL     1      -8.122   2.647   6.767  0.00  0.00    -0.026 A 
ATOM      6  C   UNL     1      -7.654   3.328   7.886  0.00  0.00    +0.039 A 
ATOM      7  N   UNL     1      -6.318   3.693   7.705  0.00  0.00    -0.286 N 
ATOM      8  C   UNL     1      -5.840   3.294   6.512  0.00  0.00    +0.212 C 
ATOM      9  O   UNL     1      -4.718   3.472   6.087  0.00  0.00    -0.277 OA
ATOM     10  C   UNL     1      -6.966   2.584   5.804  0.00  0.00    +0.060 C 
ATOM     11  C   UNL     1      -6.592   1.141   5.480  0.00  0.00    +0.085 C 
ATOM     12  C   UNL     1      -5.465   0.634   6.331  0.00  0.00    -0.011 A 
ATOM     13  C   UNL     1      -4.175   1.059   6.552  0.00  0.00    +0.006 A 
ATOM     14  C   UNL     1      -3.353   0.361   7.419  0.00  0.00    +0.000 A 
ATOM     15  C   UNL     1      -3.832  -0.765   8.063  0.00  0.00    +0.002 A 
ATOM     16  C   UNL     1      -5.124  -1.196   7.846  0.00  0.00    +0.023 A 
ATOM     17  C   UNL     1      -5.958  -0.498   6.975  0.00  0.00    +0.038 A 
ATOM     18  N   UNL     1      -7.282  -0.731   6.598  0.00  0.00    -0.285 N 
ATOM     19  C   UNL     1      -7.731   0.190   5.722  0.00  0.00    +0.228 C 
ATOM     20  O   UNL     1      -8.836   0.241   5.226  0.00  0.00    -0.275 OA
ATOM     21  C   UNL     1      -6.204   1.180   3.989  0.00  0.00    +0.066 C 
ATOM     22  C   UNL     1      -7.177   2.256   3.443  0.00  0.00    -0.055 C 
ATOM     23  C   UNL     1      -6.276   4.297   4.247  0.00  0.00    -0.076 C 
ATOM     24  C   UNL     1      -6.307   4.422   2.704  0.00  0.00    -0.020 C 
ATOM     25  C   UNL     1      -6.526   2.963   2.244  0.00  0.00    -0.016 C 
ATOM     26  H   UNL     1      -5.796   4.177   8.363  0.00  0.00    +0.155 HD
ATOM     27  H   UNL     1      -7.818  -1.470   6.928  0.00  0.00    +0.155 HD
ATOM     28  N   UNL     1      -7.270   3.242   4.516  0.00  0.00    +0.395 N 
ATOM     29  H   UNL     1      -8.213   3.646   4.546  0.00  0.00    -0.079 HD
ENDROOT
BRANCH   1  31
ATOM     30  C   UNL     1      -8.175   5.780   9.960  0.00  0.00    +0.009 C 
ATOM     31  C   UNL     1      -8.033   4.273  10.181  0.00  0.00    +0.033 C 
ENDBRANCH   1  31
BRANCH  21  32
ATOM     32  C   UNL     1      -4.771   1.610   3.815  0.00  0.00    +0.166 C 
ATOM     33  O   UNL     1      -4.505   2.779   3.637  0.00  0.00    -0.292 OA
BRANCH  32  34
ATOM     34  C   UNL     1      -3.692   0.609   3.860  0.00  0.00    +0.021 A 
ATOM     35  C   UNL     1      -3.994  -0.741   4.064  0.00  0.00    +0.011 A 
ATOM     36  C   UNL     1      -2.980  -1.675   4.106  0.00  0.00    +0.004 A 
ATOM     37  C   UNL     1      -1.664  -1.281   3.946  0.00  0.00    +0.045 A 
ATOM     38  C   UNL     1      -1.353   0.057   3.742  0.00  0.00    +0.121 A 
ATOM     39  C   UNL     1      -2.361   1.005   3.704  0.00  0.00    +0.057 A 
BRANCH  38  40
ATOM     40  O   UNL     1      -0.057   0.437   3.586  0.00  0.00    -0.495 OA
ATOM     41  C   UNL     1       0.932  -0.593   3.642  0.00  0.00    +0.277 C 
ENDBRANCH  38  40
ENDBRANCH  32  34
ENDBRANCH  21  32
TORSDOF 4
