REMARK  Name = ZINC01792770
REMARK  7 active torsions:
REMARK  status: ('A' for Active; 'I' for Inactive)
REMARK    1  A    between atoms: C_1  and  C_2
REMARK    2  A    between atoms: C_9  and  N_15
REMARK    3  A    between atoms: C_10  and  C_11
REMARK    4  A    between atoms: C_11  and  O_13
REMARK    5  A    between atoms: O_13  and  C_14
REMARK    6  A    between atoms: C_16  and  C_18
REMARK    7  A    between atoms: C_19  and  C_20
REMARK                            x       y       z     vdW  Elec       q    Type
REMARK                         _______ _______ _______ _____ _____    ______ ____
ROOT
ATOM      1  C   UNL     1      -0.939   4.628   3.941  0.00  0.00    +0.008 C 
ATOM      2  C   UNL     1      -0.180   3.775   2.923  0.00  0.00    -0.009 C 
ATOM      3  C   UNL     1       1.321   4.060   3.032  0.00  0.00    +0.008 C 
ATOM      4  C   UNL     1       2.060   3.405   1.864  0.00  0.00    +0.037 C 
ATOM      5  C   UNL     1       1.667   1.934   1.797  0.00  0.00    -0.021 A 
ATOM      6  C   UNL     1       0.554   1.483   2.415  0.00  0.00    -0.004 A 
ATOM      7  S   UNL     1       0.514  -0.252   2.067  0.00  0.00    -0.077 S 
ATOM      8  C   UNL     1       1.955  -0.380   1.113  0.00  0.00    +0.087 A 
ATOM      9  C   UNL     1       2.434   0.924   1.087  0.00  0.00    +0.091 A 
ATOM     10  C   UNL     1      -0.426   2.288   3.211  0.00  0.00    +0.046 C 
ENDROOT
BRANCH   8  11
ATOM     11  N   UNL     1       2.498  -1.507   0.522  0.00  0.00    -0.276 N 
ATOM     12  C   UNL     1       1.886  -2.700   0.658  0.00  0.00    +0.242 C 
ATOM     13  O   UNL     1       0.857  -2.786   1.300  0.00  0.00    -0.270 OA
ATOM     14  H   UNL     1       3.319  -1.438   0.010  0.00  0.00    +0.156 HD
BRANCH  12  15
ATOM     15  C   UNL     1       2.465  -3.902   0.027  0.00  0.00    +0.075 C 
ATOM     16  C   UNL     1       1.795  -5.066   0.059  0.00  0.00    +0.101 C 
BRANCH  16  17
ATOM     17  C   UNL     1       0.321  -5.068   0.073  0.00  0.00    +0.380 C 
ATOM     18  O   UNL     1      -0.290  -4.032  -0.098  0.00  0.00    -0.241 OA
ATOM     19  O   UNL     1      -0.349  -6.220   0.276  0.00  0.00    -0.241 OA
ENDBRANCH  16  17
ENDBRANCH  12  15
ENDBRANCH   8  11
BRANCH   9  20
ATOM     20  C   UNL     1       3.664   1.268   0.371  0.00  0.00    +0.342 C 
ATOM     21  O   UNL     1       3.614   1.600  -0.799  0.00  0.00    -0.245 OA
BRANCH  20  22
ATOM     22  O   UNL     1       4.852   1.218   1.008  0.00  0.00    -0.464 OA
ATOM     23  C   UNL     1       6.029   1.572   0.236  0.00  0.00    +0.280 C 
ENDBRANCH  20  22
ENDBRANCH   9  20
TORSDOF 5
