REMARK  Name = ZINC64628015
REMARK  5 active torsions:
REMARK  status: ('A' for Active; 'I' for Inactive)
REMARK    1  A    between atoms: C_3  and  C_13
REMARK    2  A    between atoms: C_13  and  N_14
REMARK    3  A    between atoms: N_17  and  C_18
REMARK    4  A    between atoms: C_18  and  C_19
REMARK    5  A    between atoms: N_21  and  C_22
REMARK                            x       y       z     vdW  Elec       q    Type
REMARK                         _______ _______ _______ _____ _____    ______ ____
ROOT
ATOM      1  N   UNL     1       4.357   1.854  -1.127  0.00  0.00    -0.295 N 
ATOM      2  C   UNL     1       5.377   2.713  -1.321  0.00  0.00    +0.300 C 
ATOM      3  O   UNL     1       5.758   3.420  -0.408  0.00  0.00    -0.253 OA
ATOM      4  N   UNL     1       5.974   2.790  -2.527  0.00  0.00    -0.291 N 
ATOM      5  H   UNL     1       4.053   1.290  -1.856  0.00  0.00    +0.151 HD
ATOM      6  H   UNL     1       5.670   2.226  -3.256  0.00  0.00    +0.151 HD
ENDROOT
BRANCH   1   7
ATOM      7  C   UNL     1       3.708   1.771   0.183  0.00  0.00    +0.144 C 
BRANCH   7  10
ATOM      8  C   UNL     1       0.306   0.152  -0.034  0.00  0.00    +0.018 A 
ATOM      9  C   UNL     1       1.287   1.134   0.007  0.00  0.00    +0.010 A 
ATOM     10  C   UNL     1       2.608   0.742   0.135  0.00  0.00    +0.008 A 
ATOM     11  C   UNL     1       2.906  -0.614   0.218  0.00  0.00    +0.103 A 
ATOM     12  N   UNL     1       1.942  -1.520   0.175  0.00  0.00    -0.349 N 
ATOM     13  C   UNL     1       0.674  -1.176   0.054  0.00  0.00    +0.084 A 
ATOM     14  N   UNL     1       4.229  -1.022   0.347  0.00  0.00    -0.316 N 
ATOM     15  C   UNL     1       4.823  -1.230   1.674  0.00  0.00    +0.106 C 
ATOM     16  C   UNL     1       5.426  -2.637   1.730  0.00  0.00    +0.019 C 
ATOM     17  C   UNL     1       6.407  -2.813   0.568  0.00  0.00    +0.003 C 
ATOM     18  C   UNL     1       5.661  -2.659  -0.759  0.00  0.00    +0.019 C 
ATOM     19  C   UNL     1       5.058  -1.258  -0.843  0.00  0.00    +0.106 C 
ATOM     20  H   UNL     1       2.173  -2.460   0.235  0.00  0.00    +0.167 HD
ENDBRANCH   7  10
ENDBRANCH   1   7
BRANCH   4  21
ATOM     21  C   UNL     1       7.082   3.724  -2.738  0.00  0.00    +0.202 C 
BRANCH  21  22
ATOM     22  C   UNL     1       7.568   3.614  -4.160  0.00  0.00    +0.234 C 
ATOM     23  O   UNL     1       7.041   2.832  -4.923  0.00  0.00    -0.274 OA
ATOM     24  N   UNL     1       8.589   4.385  -4.585  0.00  0.00    -0.284 N 
ATOM     25  H   UNL     1       9.059   4.956  -3.958  0.00  0.00    +0.155 HD
BRANCH  24  26
ATOM     26  C   UNL     1       8.971   4.362  -5.932  0.00  0.00    +0.034 A 
ATOM     27  C   UNL     1      10.304   4.531  -6.280  0.00  0.00    +0.026 A 
ATOM     28  C   UNL     1      10.678   4.508  -7.609  0.00  0.00    +0.040 A 
ATOM     29  C   UNL     1       9.725   4.316  -8.595  0.00  0.00    +0.124 A 
ATOM     30  C   UNL     1       8.394   4.147  -8.250  0.00  0.00    +0.040 A 
ATOM     31  C   UNL     1       8.017   4.163  -6.921  0.00  0.00    +0.026 A 
ATOM     32  F   UNL     1      10.093   4.294  -9.894  0.00  0.00    -0.205 F 
ENDBRANCH  24  26
ENDBRANCH  21  22
ENDBRANCH   4  21
TORSDOF 5
