REMARK  Name = ZINC52594717
REMARK  8 active torsions:
REMARK  status: ('A' for Active; 'I' for Inactive)
REMARK    1  A    between atoms: C_1  and  C_2
REMARK    2  A    between atoms: C_2  and  N_3
REMARK    3  A    between atoms: C_7  and  N_10
REMARK    4  A    between atoms: N_16  and  C_19
REMARK    5  A    between atoms: C_19  and  C_20
REMARK    6  A    between atoms: N_22  and  C_23
REMARK    7  A    between atoms: C_23  and  C_24
REMARK    8  A    between atoms: C_23  and  C_25
REMARK                            x       y       z     vdW  Elec       q    Type
REMARK                         _______ _______ _______ _____ _____    ______ ____
ROOT
ATOM      1  N   UNL     1      -2.766  -3.965   0.328  0.00  0.00    -0.298 N 
ATOM      2  C   UNL     1      -3.796  -4.613   0.907  0.00  0.00    +0.302 C 
ATOM      3  O   UNL     1      -4.701  -3.982   1.418  0.00  0.00    -0.253 OA
ATOM      4  N   UNL     1      -3.823  -5.961   0.919  0.00  0.00    -0.283 N 
ATOM      5  C   UNL     1      -2.687  -6.743   0.410  0.00  0.00    +0.124 C 
ATOM      6  C   UNL     1      -3.215  -7.773  -0.594  0.00  0.00    +0.104 C 
ATOM      7  N   UNL     1      -4.281  -8.564   0.036  0.00  0.00    -0.291 NA
ATOM      8  C   UNL     1      -5.428  -7.720   0.396  0.00  0.00    +0.104 C 
ATOM      9  C   UNL     1      -4.988  -6.688   1.446  0.00  0.00    +0.124 C 
ATOM     10  H   UNL     1      -2.009  -4.466  -0.014  0.00  0.00    +0.150 HD
ENDROOT
BRANCH   1  15
ATOM     11  N   UNL     1      -1.378  -0.512   0.009  0.00  0.00    +0.381 N 
ATOM     12  C   UNL     1      -2.053  -0.119  -1.234  0.00  0.00    -0.079 C 
ATOM     13  C   UNL     1      -3.512  -0.577  -1.194  0.00  0.00    -0.017 C 
ATOM     14  C   UNL     1      -3.559  -2.101  -1.044  0.00  0.00    +0.018 C 
ATOM     15  C   UNL     1      -2.789  -2.505   0.216  0.00  0.00    +0.058 C 
ATOM     16  C   UNL     1      -1.357  -1.975   0.124  0.00  0.00    -0.056 C 
ATOM     17  H   UNL     1      -1.874  -0.121   0.796  0.00  0.00    -0.082 HD
BRANCH  11  19
ATOM     18  C   UNL     1      -0.022   1.527   0.006  0.00  0.00    -0.017 C 
ATOM     19  C   UNL     1      -0.000  -0.003  -0.001  0.00  0.00    -0.082 C 
ENDBRANCH  11  19
ENDBRANCH   1  15
BRANCH   7  20
ATOM     20  C   UNL     1      -4.697  -9.673  -0.833  0.00  0.00    +0.180 C 
BRANCH  20  21
ATOM     21  C   UNL     1      -5.605 -10.599  -0.065  0.00  0.00    +0.227 C 
ATOM     22  O   UNL     1      -5.879 -10.358   1.091  0.00  0.00    -0.274 OA
ATOM     23  N   UNL     1      -6.112 -11.695  -0.664  0.00  0.00    -0.312 N 
ATOM     24  H   UNL     1      -5.893 -11.888  -1.589  0.00  0.00    +0.149 HD
BRANCH  23  25
ATOM     25  C   UNL     1      -6.995 -12.595   0.083  0.00  0.00    +0.067 C 
ATOM     26  C   UNL     1      -7.899 -13.348  -0.895  0.00  0.00    +0.027 C 
ATOM     27  C   UNL     1      -6.152 -13.597   0.873  0.00  0.00    +0.027 C 
ENDBRANCH  23  25
ENDBRANCH  20  21
ENDBRANCH   7  20
TORSDOF 5
