REMARK  Name = ZINC48503192
REMARK  13 active torsions:
REMARK  status: ('A' for Active; 'I' for Inactive)
REMARK    1  A    between atoms: C_1  and  C_2
REMARK    2  A    between atoms: C_2  and  C_3
REMARK    3  A    between atoms: C_2  and  C_4
REMARK    4  A    between atoms: C_4  and  C_6
REMARK    5  A    between atoms: C_4  and  N_22
REMARK    6  A    between atoms: C_6  and  N_7
REMARK    7  A    between atoms: N_10  and  C_11
REMARK    8  A    between atoms: C_13  and  C_18
REMARK    9  A    between atoms: N_20  and  C_21
REMARK   10  A    between atoms: N_22  and  C_23
REMARK   11  A    between atoms: N_22  and  C_26
REMARK   12  A    between atoms: C_23  and  C_24
REMARK   13  A    between atoms: C_26  and  C_27
REMARK                            x       y       z     vdW  Elec       q    Type
REMARK                         _______ _______ _______ _____ _____    ______ ____
ROOT
ATOM      1  N   UNL     1      -2.804  -1.536  -0.917  0.00  0.00    -0.301 N 
ATOM      2  C   UNL     1      -3.217  -2.817  -0.842  0.00  0.00    +0.304 C 
ATOM      3  O   UNL     1      -2.495  -3.660  -0.347  0.00  0.00    -0.253 OA
ATOM      4  N   UNL     1      -4.431  -3.162  -1.315  0.00  0.00    -0.268 N 
ATOM      5  H   UNL     1      -3.381  -0.863  -1.312  0.00  0.00    +0.150 HD
ATOM      6  H   UNL     1      -4.979  -2.504  -1.770  0.00  0.00    +0.156 HD
ENDROOT
BRANCH   4   7
ATOM      7  C   UNL     1      -4.900  -4.471  -1.150  0.00  0.00    +0.054 A 
ATOM      8  C   UNL     1      -4.521  -5.208  -0.039  0.00  0.00    +0.038 A 
ATOM      9  C   UNL     1      -4.991  -6.512   0.121  0.00  0.00    +0.039 A 
ATOM     10  C   UNL     1      -5.840  -7.066  -0.839  0.00  0.00    +0.014 A 
ATOM     11  C   UNL     1      -6.212  -6.325  -1.941  0.00  0.00    +0.022 A 
ATOM     12  C   UNL     1      -5.750  -5.030  -2.098  0.00  0.00    +0.062 A 
ATOM     13 CL   UNL     1      -6.229  -4.102  -3.484  0.00  0.00    -0.082 Cl
BRANCH   9  14
ATOM     14  C   UNL     1      -4.591  -7.304   1.303  0.00  0.00    +0.244 C 
ATOM     15  O   UNL     1      -3.851  -6.820   2.137  0.00  0.00    -0.270 OA
ATOM     16  N   UNL     1      -5.046  -8.563   1.456  0.00  0.00    -0.314 N 
ATOM     17  C   UNL     1      -4.649  -9.349   2.627  0.00  0.00    +0.128 C 
ATOM     18  H   UNL     1      -5.636  -8.950   0.790  0.00  0.00    +0.149 HD
ENDBRANCH   9  14
ENDBRANCH   4   7
BRANCH   1  19
ATOM     19  C   UNL     1      -1.485  -1.160  -0.403  0.00  0.00    +0.091 C 
BRANCH  19  20
ATOM     20  C   UNL     1      -1.181   0.289  -0.788  0.00  0.00    -0.048 C 
BRANCH  20  22
ATOM     21  C   UNL     1       0.368   2.215  -0.424  0.00  0.00    +0.005 C 
ATOM     22  C   UNL     1       0.070   0.763  -0.046  0.00  0.00    -0.029 C 
ATOM     23  C   UNL     1      -0.164   0.666   1.463  0.00  0.00    +0.005 C 
ENDBRANCH  20  22
BRANCH  20  24
ATOM     24  N   UNL     1      -0.954   0.374  -2.236  0.00  0.00    +0.387 N 
ATOM     25  H   UNL     1      -0.657   1.308  -2.476  0.00  0.00    -0.080 HD
BRANCH  24  26
ATOM     26  C   UNL     1       0.089  -0.586  -2.625  0.00  0.00    -0.051 C 
BRANCH  26  27
ATOM     27  C   UNL     1       0.496  -0.334  -4.054  0.00  0.00    -0.053 C 
ATOM     28  C   UNL     1       1.740  -0.037  -4.338  0.00  0.00    +0.002 C 
ENDBRANCH  26  27
ENDBRANCH  24  26
BRANCH  24  29
ATOM     29  C   UNL     1      -2.200   0.058  -2.947  0.00  0.00    -0.051 C 
BRANCH  29  30
ATOM     30  C   UNL     1      -2.048   0.405  -4.406  0.00  0.00    -0.053 C 
ATOM     31  C   UNL     1      -2.323  -0.488  -5.324  0.00  0.00    +0.002 C 
ENDBRANCH  29  30
ENDBRANCH  24  29
ENDBRANCH  20  24
ENDBRANCH  19  20
ENDBRANCH   1  19
TORSDOF 10
