REMARK  Name = ZINC20808612
REMARK  11 active torsions:
REMARK  status: ('A' for Active; 'I' for Inactive)
REMARK    1  A    between atoms: C_1  and  C_2
REMARK    2  A    between atoms: C_5  and  C_37
REMARK    3  A    between atoms: C_6  and  N_8
REMARK    4  A    between atoms: C_9  and  C_11
REMARK    5  A    between atoms: C_11  and  C_13
REMARK    6  A    between atoms: C_11  and  N_19
REMARK    7  A    between atoms: N_22  and  C_25
REMARK    8  A    between atoms: C_25  and  C_26
REMARK    9  A    between atoms: N_28  and  C_29
REMARK   10  A    between atoms: C_33  and  C_36
REMARK   11  A    between atoms: C_34  and  C_35
REMARK                            x       y       z     vdW  Elec       q    Type
REMARK                         _______ _______ _______ _____ _____    ______ ____
ROOT
ATOM      1  N   UNL     1      -2.292   5.542   0.279  0.00  0.00    -0.291 NA
ATOM      2  C   UNL     1      -1.449   5.997  -0.835  0.00  0.00    +0.067 C 
ATOM      3  C   UNL     1      -1.302   7.519  -0.771  0.00  0.00    -0.063 C 
ATOM      4  N   UNL     1      -0.712   7.897   0.520  0.00  0.00    +0.387 N 
ATOM      5  C   UNL     1      -1.555   7.442   1.635  0.00  0.00    -0.063 C 
ATOM      6  C   UNL     1      -1.702   5.920   1.571  0.00  0.00    +0.067 C 
ATOM      7  H   UNL     1       0.265   7.399   0.607  0.00  0.00    -0.081 HD
ENDROOT
BRANCH   1   8
ATOM      8  C   UNL     1      -2.520   4.092   0.209  0.00  0.00    +0.174 C 
BRANCH   8   9
ATOM      9  C   UNL     1      -3.187   3.751  -1.098  0.00  0.00    -0.021 A 
ATOM     10  C   UNL     1      -4.562   3.828  -1.213  0.00  0.00    +0.005 A 
ATOM     11  C   UNL     1      -5.174   3.519  -2.414  0.00  0.00    +0.000 A 
ATOM     12  C   UNL     1      -4.411   3.124  -3.497  0.00  0.00    +0.000 A 
ATOM     13  C   UNL     1      -3.036   3.043  -3.381  0.00  0.00    +0.000 A 
ATOM     14  C   UNL     1      -2.424   3.356  -2.181  0.00  0.00    +0.005 A 
ENDBRANCH   8   9
BRANCH   8  16
ATOM     15  N   UNL     1      -1.163   2.025   0.260  0.00  0.00    -0.284 N 
ATOM     16  C   UNL     1      -1.200   3.371   0.303  0.00  0.00    +0.239 C 
ATOM     17  O   UNL     1      -0.171   4.003   0.417  0.00  0.00    -0.273 OA
ATOM     18  H   UNL     1      -2.087   1.454   0.080  0.00  0.00    +0.155 HD
BRANCH  15  24
ATOM     19  C   UNL     1       3.713   1.846  -0.342  0.00  0.00    +0.044 C 
ATOM     20  C   UNL     1       2.428   1.241   0.161  0.00  0.00    -0.049 A 
ATOM     21  C   UNL     1       2.446   0.015   0.801  0.00  0.00    +0.004 A 
ATOM     22  C   UNL     1       1.269  -0.544   1.264  0.00  0.00    +0.005 A 
ATOM     23  C   UNL     1       0.071   0.121   1.088  0.00  0.00    -0.029 A 
ATOM     24  C   UNL     1       0.049   1.351   0.446  0.00  0.00    +0.037 A 
ATOM     25  C   UNL     1       1.233   1.911  -0.018  0.00  0.00    +0.027 A 
ATOM     26  C   UNL     1      -1.211  -0.490   1.592  0.00  0.00    +0.045 C 
ENDBRANCH  15  24
ENDBRANCH   8  16
ENDBRANCH   1   8
BRANCH   4  27
ATOM     27  C   UNL     1      -0.484   9.347   0.590  0.00  0.00    +0.019 C 
BRANCH  27  28
ATOM     28  C   UNL     1       0.346   9.667   1.807  0.00  0.00    +0.201 C 
ATOM     29  O   UNL     1       0.801   8.769   2.484  0.00  0.00    -0.278 OA
ATOM     30  N   UNL     1       0.582  10.951   2.143  0.00  0.00    -0.287 N 
ATOM     31  H   UNL     1       0.111  11.764   1.572  0.00  0.00    +0.155 HD
BRANCH  30  32
ATOM     32  C   UNL     1       1.427  11.248   3.217  0.00  0.00    +0.036 A 
ATOM     33  C   UNL     1       1.590  10.332   4.249  0.00  0.00    +0.023 A 
ATOM     34  C   UNL     1       2.425  10.629   5.308  0.00  0.00    +0.002 A 
ATOM     35  C   UNL     1       3.098  11.837   5.343  0.00  0.00    +0.004 A 
ATOM     36  C   UNL     1       2.938  12.751   4.317  0.00  0.00    -0.046 A 
ATOM     37  C   UNL     1       2.109  12.457   3.252  0.00  0.00    -0.026 A 
ATOM     38  C   UNL     1       1.940  13.451   2.132  0.00  0.00    +0.046 C 
ATOM     39  C   UNL     1       3.674  14.065   4.359  0.00  0.00    +0.044 C 
ENDBRANCH  30  32
ENDBRANCH  27  28
ENDBRANCH   4  27
TORSDOF 7
