REMARK  Name = ZINC34749967
REMARK  10 active torsions:
REMARK  status: ('A' for Active; 'I' for Inactive)
REMARK    1  A    between atoms: C_1  and  C_2
REMARK    2  A    between atoms: C_2  and  C_3
REMARK    3  A    between atoms: C_3  and  S_4
REMARK    4  A    between atoms: S_4  and  C_5
REMARK    5  A    between atoms: C_16  and  C_18
REMARK    6  A    between atoms: C_16  and  C_19
REMARK    7  A    between atoms: N_23  and  C_26
REMARK    8  A    between atoms: C_26  and  C_27
REMARK    9  A    between atoms: C_30  and  C_34
REMARK   10  A    between atoms: C_32  and  C_33
REMARK                            x       y       z     vdW  Elec       q    Type
REMARK                         _______ _______ _______ _____ _____    ______ ____
ROOT
ATOM      1  C   UNL     1       1.580  -2.718  -2.763  0.00  0.00    +0.191 A 
ATOM      2  N   UNL     1       1.766  -3.994  -3.079  0.00  0.00    -0.206 NA
ATOM      3  C   UNL     1       2.402  -4.360  -4.179  0.00  0.00    +0.134 A 
ATOM      4  C   UNL     1       2.908  -3.360  -5.057  0.00  0.00    +0.051 A 
ATOM      5  C   UNL     1       3.636  -3.526  -6.314  0.00  0.00    -0.020 A 
ATOM      6  C   UNL     1       4.008  -2.402  -6.962  0.00  0.00    +0.021 A 
ATOM      7  S   UNL     1       3.418  -1.071  -5.954  0.00  0.00    -0.071 S 
ATOM      8  C   UNL     1       2.673  -2.028  -4.658  0.00  0.00    +0.115 A 
ATOM      9  N   UNL     1       2.023  -1.744  -3.546  0.00  0.00    -0.215 NA
ATOM     10  C   UNL     1       4.759  -2.332  -8.255  0.00  0.00    +0.203 C 
ATOM     11  O   UNL     1       5.293  -3.637  -8.527  0.00  0.00    -0.368 OA
ATOM     12  C   UNL     1       4.332  -4.687  -8.386  0.00  0.00    +0.068 C 
ATOM     13  C   UNL     1       3.985  -4.888  -6.908  0.00  0.00    +0.071 C 
ATOM     14  C   UNL     1       3.064  -4.321  -9.160  0.00  0.00    +0.041 C 
ATOM     15  C   UNL     1       4.912  -5.984  -8.953  0.00  0.00    +0.041 C 
ATOM     16  N   UNL     1       2.576  -5.700  -4.473  0.00  0.00    -0.318 N 
ATOM     17  C   UNL     1       3.814  -6.402  -4.101  0.00  0.00    +0.088 C 
ATOM     18  C   UNL     1       3.439  -7.690  -3.360  0.00  0.00    -0.059 C 
ATOM     19  N   UNL     1       2.520  -8.480  -4.189  0.00  0.00    +0.384 N 
ATOM     20  C   UNL     1       1.260  -7.750  -4.375  0.00  0.00    -0.059 C 
ATOM     21  C   UNL     1       1.525  -6.466  -5.160  0.00  0.00    +0.088 C 
ATOM     22  H   UNL     1       2.944  -8.652  -5.089  0.00  0.00    -0.081 HD
ENDROOT
BRANCH   1  23
ATOM     23  S   UNL     1       0.721  -2.311  -1.279  0.00  0.00    -0.086 S 
BRANCH  23  24
ATOM     24  C   UNL     1       0.700  -0.497  -1.267  0.00  0.00    +0.077 C 
BRANCH  24  26
ATOM     25  C   UNL     1      -0.044   1.526  -0.004  0.00  0.00    +0.004 C 
ATOM     26  C   UNL     1      -0.026  -0.004  -0.014  0.00  0.00    +0.008 C 
ENDBRANCH  24  26
ENDBRANCH  23  24
ENDBRANCH   1  23
BRANCH  19  27
ATOM     27  C   UNL     1       2.248  -9.763  -3.528  0.00  0.00    -0.043 C 
BRANCH  27  28
ATOM     28  C   UNL     1       1.405 -10.625  -4.432  0.00  0.00    -0.061 A 
ATOM     29  C   UNL     1       0.040 -10.712  -4.228  0.00  0.00    +0.002 A 
ATOM     30  C   UNL     1      -0.733 -11.503  -5.057  0.00  0.00    +0.003 A 
ATOM     31  C   UNL     1      -0.142 -12.206  -6.091  0.00  0.00    -0.050 A 
ATOM     32  C   UNL     1       1.222 -12.118  -6.295  0.00  0.00    +0.007 A 
ATOM     33  C   UNL     1       1.995 -11.324  -5.468  0.00  0.00    -0.049 A 
ATOM     34  C   UNL     1       3.481 -11.224  -5.694  0.00  0.00    +0.044 C 
ATOM     35  C   UNL     1      -0.986 -13.069  -6.994  0.00  0.00    +0.044 C 
ENDBRANCH  27  28
ENDBRANCH  19  27
TORSDOF 5
