REMARK  Name = ZINC22635796
REMARK  8 active torsions:
REMARK  status: ('A' for Active; 'I' for Inactive)
REMARK    1  A    between atoms: C_1  and  C_2
REMARK    2  A    between atoms: C_2  and  N_3
REMARK    3  A    between atoms: C_11  and  O_26
REMARK    4  A    between atoms: C_13  and  C_16
REMARK    5  A    between atoms: C_19  and  O_25
REMARK    6  A    between atoms: C_20  and  O_22
REMARK    7  A    between atoms: O_22  and  C_23
REMARK    8  A    between atoms: C_23  and  C_24
REMARK                            x       y       z     vdW  Elec       q    Type
REMARK                         _______ _______ _______ _____ _____    ______ ____
ROOT
ATOM      1  N   UNL     1       3.422  -0.127   6.861  0.00  0.00    +0.383 N 
ATOM      2  C   UNL     1       3.393   1.301   6.515  0.00  0.00    -0.074 C 
ATOM      3  C   UNL     1       3.940   1.511   5.100  0.00  0.00    +0.018 C 
ATOM      4  C   UNL     1       3.202   0.567   4.158  0.00  0.00    -0.027 A 
ATOM      5  C   UNL     1       2.520  -0.491   4.659  0.00  0.00    -0.021 A 
ATOM      6  S   UNL     1       1.829  -1.299   3.242  0.00  0.00    -0.080 S 
ATOM      7  C   UNL     1       2.434  -0.262   2.023  0.00  0.00    +0.080 A 
ATOM      8  C   UNL     1       3.165   0.713   2.716  0.00  0.00    +0.067 A 
ATOM      9  C   UNL     1       3.813   1.778   1.908  0.00  0.00    +0.220 C 
ATOM     10  N   UNL     1       3.501   1.857   0.646  0.00  0.00    -0.223 NA
ATOM     11  C   UNL     1       2.489   1.043  -0.016  0.00  0.00    +0.224 C 
ATOM     12  N   UNL     1       2.317  -0.260   0.654  0.00  0.00    -0.313 N 
ATOM     13  C   UNL     1       2.397  -0.868   6.102  0.00  0.00    -0.035 C 
ATOM     14  H   UNL     1       2.106  -1.160   0.059  0.00  0.00    +0.149 HD
ATOM     15  H   UNL     1       4.411  -0.523   6.588  0.00  0.00    -0.081 HD
ENDROOT
BRANCH  11  16
ATOM     16  C   UNL     1       1.176   1.782   0.000  0.00  0.00    -0.002 A 
ATOM     17  C   UNL     1      -0.013   1.076   0.008  0.00  0.00    +0.011 A 
ATOM     18  C   UNL     1      -1.220   1.749   0.017  0.00  0.00    +0.049 A 
ATOM     19  C   UNL     1      -1.240   3.135   0.030  0.00  0.00    +0.158 A 
ATOM     20  C   UNL     1      -0.044   3.845   0.023  0.00  0.00    +0.162 A 
ATOM     21  C   UNL     1       1.163   3.164   0.008  0.00  0.00    +0.056 A 
BRANCH  19  22
ATOM     22  O   UNL     1      -2.427   3.799   0.044  0.00  0.00    -0.503 OA
ATOM     23  H   UNL     1      -2.442   4.898   0.054  0.00  0.00    +0.292 HD
ENDBRANCH  19  22
BRANCH  20  24
ATOM     24  O   UNL     1      -0.059   5.205   0.031  0.00  0.00    -0.489 OA
BRANCH  24  25
ATOM     25  C   UNL     1       1.207   5.868   0.023  0.00  0.00    +0.226 C 
ATOM     26  C   UNL     1       0.990   7.382   0.034  0.00  0.00    +0.048 C 
ENDBRANCH  24  25
ENDBRANCH  20  24
ENDBRANCH  11  16
BRANCH   1  28
ATOM     27  C   UNL     1       3.521  -1.784   8.661  0.00  0.00    -0.017 C 
ATOM     28  C   UNL     1       3.248  -0.321   8.307  0.00  0.00    -0.082 C 
ENDBRANCH   1  28
BRANCH   9  29
ATOM     29  O   UNL     1       4.697   2.637   2.466  0.00  0.00    -0.492 OA
ATOM     30  H   UNL     1       5.167   3.419   1.851  0.00  0.00    +0.294 HD
ENDBRANCH   9  29
TORSDOF 6
