REMARK  Name = ZINC33326672
REMARK  11 active torsions:
REMARK  status: ('A' for Active; 'I' for Inactive)
REMARK    1  A    between atoms: C_1  and  C_2
REMARK    2  A    between atoms: C_6  and  N_8
REMARK    3  A    between atoms: N_8  and  C_9
REMARK    4  A    between atoms: N_8  and  C_10
REMARK    5  A    between atoms: N_11  and  C_12
REMARK    6  A    between atoms: C_15  and  N_18
REMARK    7  A    between atoms: N_21  and  C_22
REMARK    8  A    between atoms: C_25  and  O_30
REMARK    9  A    between atoms: C_27  and  O_28
REMARK   10  A    between atoms: O_28  and  C_29
REMARK   11  A    between atoms: O_30  and  C_31
REMARK                            x       y       z     vdW  Elec       q    Type
REMARK                         _______ _______ _______ _____ _____    ______ ____
ROOT
ATOM      1  C   UNL     1      -0.802   1.255  11.774  0.00  0.00    +0.032 A 
ATOM      2  C   UNL     1       0.176   0.278  11.636  0.00  0.00    +0.025 A 
ATOM      3  C   UNL     1       0.533  -0.168  10.380  0.00  0.00    +0.025 A 
ATOM      4  C   UNL     1      -0.085   0.359   9.254  0.00  0.00    +0.035 A 
ATOM      5  C   UNL     1      -1.059   1.340   9.391  0.00  0.00    +0.025 A 
ATOM      6  C   UNL     1      -1.420   1.782  10.648  0.00  0.00    +0.025 A 
ENDROOT
BRANCH   1  14
ATOM      7  C   UNL     1      -2.649   5.198  15.980  0.00  0.00    +0.086 C 
ATOM      8  C   UNL     1      -2.095   4.763  14.647  0.00  0.00    +0.107 A 
ATOM      9  N   UNL     1      -1.879   3.482  14.431  0.00  0.00    -0.332 N 
ATOM     10  C   UNL     1      -1.391   3.058  13.267  0.00  0.00    +0.105 A 
ATOM     11  C   UNL     1      -1.105   3.991  12.274  0.00  0.00    +0.085 A 
ATOM     12  C   UNL     1      -1.353   5.334  12.541  0.00  0.00    +0.126 A 
ATOM     13  N   UNL     1      -1.842   5.676  13.732  0.00  0.00    -0.219 NA
ATOM     14  N   UNL     1      -1.166   1.707  13.049  0.00  0.00    -0.301 N 
ATOM     15  H   UNL     1      -1.272   0.990  13.877  0.00  0.00    +0.154 HD
ATOM     16  H   UNL     1      -2.102   2.746  15.218  0.00  0.00    +0.168 HD
BRANCH  12  17
ATOM     17  N   UNL     1      -1.089   6.301  11.584  0.00  0.00    -0.321 N 
ATOM     18  C   UNL     1      -0.655   5.905  10.242  0.00  0.00    +0.130 C 
ATOM     19  C   UNL     1      -1.244   7.720  11.915  0.00  0.00    +0.130 C 
ENDBRANCH  12  17
ENDBRANCH   1  14
BRANCH   4  20
ATOM     20  N   UNL     1       0.278  -0.094   7.978  0.00  0.00    -0.269 N 
ATOM     21  C   UNL     1       0.557  -1.397   7.781  0.00  0.00    +0.308 C 
ATOM     22  O   UNL     1       0.407  -2.196   8.686  0.00  0.00    -0.252 OA
ATOM     23  N   UNL     1       1.003  -1.817   6.580  0.00  0.00    -0.266 N 
ATOM     24  H   UNL     1       0.335   0.614   7.139  0.00  0.00    +0.156 HD
ATOM     25  H   UNL     1       1.231  -1.084   5.791  0.00  0.00    +0.156 HD
BRANCH  23  26
ATOM     26  C   UNL     1       1.177  -3.188   6.335  0.00  0.00    +0.078 A 
ATOM     27  C   UNL     1       0.532  -4.122   7.131  0.00  0.00    +0.050 A 
ATOM     28  C   UNL     1       0.699  -5.473   6.887  0.00  0.00    +0.084 A 
ATOM     29  C   UNL     1       1.521  -5.896   5.851  0.00  0.00    +0.142 A 
ATOM     30  C   UNL     1       2.168  -4.965   5.054  0.00  0.00    +0.094 A 
ATOM     31  C   UNL     1       1.998  -3.611   5.293  0.00  0.00    +0.145 A 
ATOM     32 CL   UNL     1      -0.115  -6.641   7.880  0.00  0.00    -0.080 Cl
BRANCH  31  33
ATOM     33  O   UNL     1       2.633  -2.696   4.512  0.00  0.00    -0.493 OA
ATOM     34  C   UNL     1       3.459  -3.202   3.461  0.00  0.00    +0.277 C 
ENDBRANCH  31  33
BRANCH  29  35
ATOM     35  O   UNL     1       1.688  -7.225   5.616  0.00  0.00    -0.494 OA
ATOM     36  C   UNL     1       2.543  -7.589   4.531  0.00  0.00    +0.277 C 
ENDBRANCH  29  35
ENDBRANCH  23  26
ENDBRANCH   4  20
TORSDOF 6
