REMARK  Name = ZINC45125119
REMARK  10 active torsions:
REMARK  status: ('A' for Active; 'I' for Inactive)
REMARK    1  A    between atoms: C_1  and  C_2
REMARK    2  A    between atoms: C_2  and  C_4
REMARK    3  A    between atoms: C_2  and  N_14
REMARK    4  A    between atoms: C_8  and  S_10
REMARK    5  A    between atoms: S_10  and  N_13
REMARK    6  A    between atoms: N_20  and  C_23
REMARK    7  A    between atoms: C_23  and  C_24
REMARK    8  A    between atoms: C_24  and  C_25
REMARK    9  A    between atoms: C_25  and  C_26
REMARK   10  A    between atoms: C_25  and  C_27
REMARK                            x       y       z     vdW  Elec       q    Type
REMARK                         _______ _______ _______ _____ _____    ______ ____
ROOT
ATOM      1  N   UNL     1       0.709  -0.493   1.188  0.00  0.00    -0.293 N 
ATOM      2  C   UNL     1       0.051  -0.633   2.355  0.00  0.00    +0.303 C 
ATOM      3  O   UNL     1      -1.106  -0.272   2.448  0.00  0.00    -0.253 OA
ATOM      4  N   UNL     1       0.676  -1.174   3.420  0.00  0.00    -0.289 N 
ATOM      5  C   UNL     1       2.108  -1.508   3.368  0.00  0.00    +0.091 C 
ATOM      6  C   UNL     1       2.793  -0.899   4.596  0.00  0.00    -0.059 C 
ATOM      7  N   UNL     1       2.109  -1.354   5.813  0.00  0.00    +0.382 N 
ATOM      8  C   UNL     1       0.733  -0.841   5.834  0.00  0.00    -0.059 C 
ATOM      9  C   UNL     1      -0.053  -1.442   4.670  0.00  0.00    +0.091 C 
ATOM     10  H   UNL     1       1.652  -0.715   1.133  0.00  0.00    +0.151 HD
ATOM     11  H   UNL     1       2.091  -2.363   5.831  0.00  0.00    -0.082 HD
ENDROOT
BRANCH   1  13
ATOM     12  C   UNL     1      -0.015   1.522   0.007  0.00  0.00    +0.033 C 
ATOM     13  C   UNL     1       0.001  -0.007   0.001  0.00  0.00    +0.102 C 
BRANCH  13  14
ATOM     14  C   UNL     1       0.702  -0.498  -1.239  0.00  0.00    -0.026 A 
ATOM     15  C   UNL     1       2.083  -0.524  -1.287  0.00  0.00    +0.005 A 
ATOM     16  C   UNL     1       2.727  -0.974  -2.425  0.00  0.00    +0.002 A 
ATOM     17  C   UNL     1       1.989  -1.398  -3.514  0.00  0.00    +0.028 A 
ATOM     18  C   UNL     1       0.608  -1.373  -3.466  0.00  0.00    +0.105 A 
ATOM     19  C   UNL     1      -0.036  -0.927  -2.326  0.00  0.00    +0.034 A 
BRANCH  18  20
ATOM     20  S   UNL     1      -0.332  -1.914  -4.854  0.00  0.00    +0.056 S 
ATOM     21  O   UNL     1      -1.600  -1.279  -4.758  0.00  0.00    -0.153 OA
ATOM     22  O   UNL     1       0.506  -1.772  -5.993  0.00  0.00    -0.153 OA
BRANCH  20  23
ATOM     23  N   UNL     1      -0.600  -3.537  -4.663  0.00  0.00    -0.204 NA
ATOM     24  H   UNL     1      -1.403  -3.942  -5.024  0.00  0.00    +0.144 HD
ATOM     25  H   UNL     1       0.047  -4.082  -4.188  0.00  0.00    +0.144 HD
ENDBRANCH  20  23
ENDBRANCH  18  20
ENDBRANCH  13  14
ENDBRANCH   1  13
BRANCH   7  26
ATOM     26  C   UNL     1       2.832  -0.860   6.993  0.00  0.00    -0.078 C 
BRANCH  26  27
ATOM     27  C   UNL     1       2.194  -1.434   8.259  0.00  0.00    -0.016 C 
BRANCH  27  28
ATOM     28  C   UNL     1       2.946  -0.920   9.488  0.00  0.00    -0.019 C 
ATOM     29  C   UNL     1       2.769   0.596   9.597  0.00  0.00    +0.007 C 
ATOM     30  C   UNL     1       2.389  -1.591  10.745  0.00  0.00    +0.007 C 
ENDBRANCH  27  28
ENDBRANCH  26  27
ENDBRANCH   7  26
TORSDOF 7
