REMARK  Name = ZINC67588885
REMARK  14 active torsions:
REMARK  status: ('A' for Active; 'I' for Inactive)
REMARK    1  A    between atoms: C_1  and  C_2
REMARK    2  A    between atoms: C_6  and  C_29
REMARK    3  A    between atoms: C_7  and  O_8
REMARK    4  A    between atoms: O_8  and  C_9
REMARK    5  A    between atoms: C_9  and  C_10
REMARK    6  A    between atoms: C_10  and  C_12
REMARK    7  A    between atoms: C_10  and  O_28
REMARK    8  A    between atoms: C_12  and  N_13
REMARK    9  A    between atoms: N_16  and  C_17
REMARK   10  A    between atoms: C_17  and  C_18
REMARK   11  A    between atoms: C_18  and  C_20
REMARK   12  A    between atoms: C_18  and  N_25
REMARK   13  A    between atoms: N_25  and  C_26
REMARK   14  A    between atoms: N_25  and  C_27
REMARK                            x       y       z     vdW  Elec       q    Type
REMARK                         _______ _______ _______ _____ _____    ______ ____
ROOT
ATOM      1  N   UNL     1      -1.424   2.822   6.386  0.00  0.00    -0.297 N 
ATOM      2  C   UNL     1      -2.567   2.810   7.100  0.00  0.00    +0.300 C 
ATOM      3  O   UNL     1      -3.544   2.223   6.675  0.00  0.00    -0.253 OA
ATOM      4  N   UNL     1      -2.628   3.449   8.285  0.00  0.00    -0.301 N 
ATOM      5  H   UNL     1      -0.645   3.290   6.726  0.00  0.00    +0.150 HD
ATOM      6  H   UNL     1      -1.850   3.918   8.624  0.00  0.00    +0.150 HD
ENDROOT
BRANCH   1   7
ATOM      7  C   UNL     1      -1.358   2.127   5.098  0.00  0.00    +0.140 C 
BRANCH   7   8
ATOM      8  C   UNL     1       0.041   2.294   4.500  0.00  0.00    +0.169 C 
BRANCH   8   9
ATOM      9  O   UNL     1       0.313   3.684   4.307  0.00  0.00    -0.387 OA
ATOM     10  H   UNL     1      -0.307   4.127   3.711  0.00  0.00    +0.210 HD
ENDBRANCH   8   9
BRANCH   8  11
ATOM     11  C   UNL     1       0.110   1.569   3.155  0.00  0.00    +0.261 C 
BRANCH  11  12
ATOM     12  O   UNL     1       1.446   1.625   2.651  0.00  0.00    -0.489 OA
BRANCH  12  19
ATOM     13  C   UNL     1       1.133   3.192   0.322  0.00  0.00    +0.047 C 
ATOM     14  C   UNL     1       1.544   1.743   0.277  0.00  0.00    -0.009 A 
ATOM     15  C   UNL     1       1.789   1.131  -0.937  0.00  0.00    +0.007 A 
ATOM     16  C   UNL     1       2.165  -0.199  -0.978  0.00  0.00    +0.001 A 
ATOM     17  C   UNL     1       2.297  -0.919   0.195  0.00  0.00    +0.007 A 
ATOM     18  C   UNL     1       2.053  -0.312   1.411  0.00  0.00    -0.009 A 
ATOM     19  C   UNL     1       1.681   1.024   1.456  0.00  0.00    +0.126 A 
ATOM     20  C   UNL     1       2.197  -1.098   2.689  0.00  0.00    +0.047 C 
ENDBRANCH  12  19
ENDBRANCH  11  12
ENDBRANCH   8  11
ENDBRANCH   7   8
ENDBRANCH   1   7
BRANCH   4  21
ATOM     21  C   UNL     1      -3.871   3.437   9.061  0.00  0.00    +0.095 C 
BRANCH  21  22
ATOM     22  C   UNL     1      -3.637   4.118  10.411  0.00  0.00    -0.014 C 
BRANCH  22  23
ATOM     23  C   UNL     1      -2.658   3.305  11.220  0.00  0.00    -0.022 A 
ATOM     24  C   UNL     1      -1.332   3.509  11.410  0.00  0.00    +0.009 A 
ATOM     25  C   UNL     1      -0.625   2.624  12.203  0.00  0.00    +0.008 A 
ATOM     26  C   UNL     1      -1.279   1.579  12.766  0.00  0.00    +0.045 A 
ATOM     27  S   UNL     1      -2.948   1.830  12.182  0.00  0.00    -0.103 S 
ENDBRANCH  22  23
BRANCH  22  28
ATOM     28  N   UNL     1      -4.910   4.217  11.137  0.00  0.00    +0.382 N 
ATOM     29  C   UNL     1      -4.673   4.805  12.462  0.00  0.00    -0.096 C 
ATOM     30  C   UNL     1      -5.839   5.067  10.382  0.00  0.00    -0.096 C 
ATOM     31  H   UNL     1      -5.308   3.296  11.244  0.00  0.00    -0.082 HD
ENDBRANCH  22  28
ENDBRANCH  21  22
ENDBRANCH   4  21
TORSDOF 10
