REMARK  Name = ZINC28048965
REMARK  6 active torsions:
REMARK  status: ('A' for Active; 'I' for Inactive)
REMARK    1  A    between atoms: C_1  and  C_2
REMARK    2  A    between atoms: C_7  and  S_8
REMARK    3  A    between atoms: S_8  and  N_11
REMARK    4  A    between atoms: N_11  and  C_12
REMARK    5  A    between atoms: C_21  and  O_22
REMARK    6  A    between atoms: N_23  and  C_24
REMARK                            x       y       z     vdW  Elec       q    Type
REMARK                         _______ _______ _______ _____ _____    ______ ____
ROOT
ATOM      1  C   UNL     1       0.074  -0.764  -1.382  0.00  0.00    +0.152 A 
ATOM      2  C   UNL     1      -0.279  -0.172  -0.183  0.00  0.00    +0.076 A 
ATOM      3  C   UNL     1      -0.952  -1.008   0.824  0.00  0.00    +0.042 A 
ATOM      4  C   UNL     1      -1.343  -0.476   2.055  0.00  0.00    +0.013 A 
ATOM      5  C   UNL     1      -1.977  -1.282   2.974  0.00  0.00    +0.001 A 
ATOM      6  C   UNL     1      -2.232  -2.613   2.680  0.00  0.00    +0.004 A 
ATOM      7  C   UNL     1      -1.857  -3.149   1.466  0.00  0.00    +0.047 A 
ATOM      8  C   UNL     1      -1.216  -2.353   0.524  0.00  0.00    +0.141 A 
ATOM      9  O   UNL     1      -0.843  -2.866  -0.669  0.00  0.00    -0.424 OA
ATOM     10  C   UNL     1      -0.223  -2.122  -1.598  0.00  0.00    +0.310 A 
ATOM     11  N   UNL     1      -0.002   1.161   0.064  0.00  0.00    -0.380 N 
ATOM     12  H   UNL     1      -0.775   1.924  -0.109  0.00  0.00    +0.160 HD
ENDROOT
BRANCH  11  13
ATOM     13  C   UNL     1       1.374   1.332   0.549  0.00  0.00    +0.079 C 
ATOM     14  C   UNL     1       1.426   1.039   2.050  0.00  0.00    +0.024 C 
ATOM     15  C   UNL     1       2.859   1.218   2.555  0.00  0.00    +0.002 C 
ATOM     16  C   UNL     1       3.314   2.656   2.300  0.00  0.00    +0.000 C 
ATOM     17  C   UNL     1       3.262   2.949   0.799  0.00  0.00    +0.002 C 
ATOM     18  C   UNL     1       1.829   2.770   0.294  0.00  0.00    +0.024 C 
ENDBRANCH  11  13
BRANCH   1  19
ATOM     19  N   UNL     1       0.726  -0.014  -2.378  0.00  0.00    -0.208 N 
ATOM     20  H   UNL     1       1.726  -0.313  -2.726  0.00  0.00    +0.174 HD
BRANCH  19  21
ATOM     21  S   UNL     1      -0.012   1.319  -3.026  0.00  0.00    +0.073 S 
ATOM     22  O   UNL     1      -0.487   2.093  -1.933  0.00  0.00    -0.150 OA
ATOM     23  O   UNL     1       0.880   1.844  -4.000  0.00  0.00    -0.150 OA
BRANCH  21  30
ATOM     24  C   UNL     1       0.085  -0.519  -5.426  0.00  0.00    +0.046 C 
ATOM     25  C   UNL     1      -1.290  -0.086  -4.987  0.00  0.00    -0.023 A 
ATOM     26  C   UNL     1      -2.406  -0.533  -5.669  0.00  0.00    +0.020 A 
ATOM     27  C   UNL     1      -3.667  -0.130  -5.269  0.00  0.00    +0.018 A 
ATOM     28  C   UNL     1      -3.812   0.715  -4.183  0.00  0.00    +0.017 A 
ATOM     29  C   UNL     1      -2.696   1.157  -3.499  0.00  0.00    +0.030 A 
ATOM     30  C   UNL     1      -1.435   0.755  -3.899  0.00  0.00    +0.111 A 
ATOM     31 BR   UNL     1      -5.194  -0.736  -6.206  0.00  0.00    -0.050 Br
ENDBRANCH  21  30
ENDBRANCH  19  21
ENDBRANCH   1  19
BRANCH  10  32
ATOM     32  O   UNL     1       0.092  -2.637  -2.657  0.00  0.00    -0.479 OA
ATOM     33  H   UNL     1      -0.134  -3.698  -2.841  0.00  0.00    +0.295 HD
ENDBRANCH  10  32
TORSDOF 5
