REMARK  Name = ZINC05413382
REMARK  7 active torsions:
REMARK  status: ('A' for Active; 'I' for Inactive)
REMARK    1  A    between atoms: C_1  and  C_2
REMARK    2  A    between atoms: C_9  and  C_11
REMARK    3  A    between atoms: N_13  and  C_14
REMARK    4  A    between atoms: C_14  and  C_16
REMARK    5  A    between atoms: C_14  and  C_23
REMARK    6  A    between atoms: C_16  and  C_17
REMARK    7  A    between atoms: C_26  and  C_28
REMARK                            x       y       z     vdW  Elec       q    Type
REMARK                         _______ _______ _______ _____ _____    ______ ____
ROOT
ATOM      1  C   UNL     1       0.103  -2.558   3.973  0.00  0.00    +0.109 C 
ATOM      2  C   UNL     1       1.156  -2.145   2.978  0.00  0.00    +0.213 C 
ATOM      3  O   UNL     1       2.222  -2.723   2.948  0.00  0.00    -0.276 OA
ATOM      4  N   UNL     1       0.914  -1.133   2.122  0.00  0.00    -0.287 N 
ATOM      5  C   UNL     1      -0.319  -0.340   2.230  0.00  0.00    +0.127 C 
ATOM      6  C   UNL     1      -1.044  -0.375   0.879  0.00  0.00    +0.127 C 
ATOM      7  N   UNL     1      -0.081  -0.045  -0.180  0.00  0.00    -0.298 N 
ATOM      8  C   UNL     1       1.149  -0.842  -0.292  0.00  0.00    +0.139 C 
ATOM      9  C   UNL     1       1.877  -0.803   1.062  0.00  0.00    +0.179 C 
ATOM     10  C   UNL     1      -0.324   0.966  -1.037  0.00  0.00    +0.219 C 
ATOM     11  O   UNL     1       0.517   1.287  -1.851  0.00  0.00    -0.275 OA
ENDROOT
BRANCH  10  12
ATOM     12  C   UNL     1      -1.642   1.695  -0.989  0.00  0.00    +0.072 C 
ATOM     13  C   UNL     1      -2.734   0.818  -1.608  0.00  0.00    -0.007 C 
ATOM     14  C   UNL     1      -4.057   1.587  -1.611  0.00  0.00    -0.082 C 
ATOM     15  C   UNL     1      -2.893   3.705  -1.782  0.00  0.00    -0.082 C 
ATOM     16  C   UNL     1      -1.535   2.999  -1.784  0.00  0.00    -0.007 C 
ATOM     17  N   UNL     1      -3.909   2.828  -2.394  0.00  0.00    +0.379 N 
ATOM     18  H   UNL     1      -4.810   3.321  -2.420  0.00  0.00    -0.086 HD
ATOM     19  H   UNL     1      -3.621   2.592  -3.351  0.00  0.00    -0.086 HD
ENDBRANCH  10  12
BRANCH   9  20
ATOM     20  C   UNL     1       2.997  -1.811   1.065  0.00  0.00    +0.236 C 
ATOM     21  O   UNL     1       2.746  -2.997   1.013  0.00  0.00    -0.274 OA
ATOM     22  N   UNL     1       4.278  -1.396   1.125  0.00  0.00    -0.302 N 
ATOM     23  H   UNL     1       4.479  -0.448   1.167  0.00  0.00    +0.150 HD
BRANCH  22  24
ATOM     24  C   UNL     1       5.367  -2.376   1.128  0.00  0.00    +0.159 C 
BRANCH  24  25
ATOM     25  C   UNL     1       5.607  -2.856   2.536  0.00  0.00    +0.231 C 
ATOM     26  O   UNL     1       4.936  -2.421   3.448  0.00  0.00    -0.274 OA
ATOM     27  N   UNL     1       6.569  -3.767   2.782  0.00  0.00    -0.328 N 
ATOM     28  H   UNL     1       7.106  -4.115   2.053  0.00  0.00    +0.145 HD
ATOM     29  H   UNL     1       6.724  -4.076   3.689  0.00  0.00    +0.145 HD
ENDBRANCH  24  25
BRANCH  24  30
ATOM     30  C   UNL     1       6.641  -1.725   0.586  0.00  0.00    +0.035 C 
BRANCH  30  31
ATOM     31  C   UNL     1       6.437  -1.350  -0.883  0.00  0.00    -0.009 C 
ATOM     32  C   UNL     1       6.249  -2.622  -1.712  0.00  0.00    +0.003 C 
ATOM     33  C   UNL     1       6.045  -2.248  -3.182  0.00  0.00    +0.000 C 
ATOM     34  C   UNL     1       7.271  -1.486  -3.688  0.00  0.00    +0.000 C 
ATOM     35  C   UNL     1       7.459  -0.214  -2.859  0.00  0.00    +0.000 C 
ATOM     36  C   UNL     1       7.663  -0.588  -1.390  0.00  0.00    +0.003 C 
ENDBRANCH  30  31
ENDBRANCH  24  30
ENDBRANCH  22  24
ENDBRANCH   9  20
TORSDOF 6
