REMARK  Name = ZINC04916350
REMARK  8 active torsions:
REMARK  status: ('A' for Active; 'I' for Inactive)
REMARK    1  A    between atoms: C_1  and  C_2
REMARK    2  A    between atoms: C_2  and  O_3
REMARK    3  A    between atoms: O_3  and  C_4
REMARK    4  A    between atoms: C_7  and  N_10
REMARK    5  A    between atoms: N_10  and  C_11
REMARK    6  A    between atoms: C_11  and  N_13
REMARK    7  A    between atoms: C_16  and  C_19
REMARK    8  A    between atoms: C_16  and  N_57
REMARK                            x       y       z     vdW  Elec       q    Type
REMARK                         _______ _______ _______ _____ _____    ______ ____
ROOT
ATOM      1  N   UNL     1       2.256   0.988   0.148  0.00  0.00    -0.313 N 
ATOM      2  C   UNL     1       2.307  -0.480   0.139  0.00  0.00    +0.106 C 
ATOM      3  C   UNL     1       3.110  -0.958   1.348  0.00  0.00    +0.016 C 
ATOM      4  C   UNL     1       4.482  -0.280   1.347  0.00  0.00    +0.015 C 
ATOM      5  C   UNL     1       4.304   1.237   1.451  0.00  0.00    +0.016 C 
ATOM      6  C   UNL     1       3.515   1.739   0.238  0.00  0.00    +0.106 C 
ENDROOT
BRANCH   4  12
ATOM      7  C   UNL     1       6.598  -0.143   2.514  0.00  0.00    -0.077 C 
ATOM      8  C   UNL     1       7.331  -0.552   3.793  0.00  0.00    -0.019 C 
ATOM      9  C   UNL     1       7.455  -2.078   3.839  0.00  0.00    -0.004 C 
ATOM     10  C   UNL     1       6.056  -2.698   3.766  0.00  0.00    -0.019 C 
ATOM     11  C   UNL     1       5.361  -2.226   2.487  0.00  0.00    -0.077 C 
ATOM     12  N   UNL     1       5.251  -0.752   2.516  0.00  0.00    +0.389 N 
ATOM     13  H   UNL     1       4.761  -0.471   3.373  0.00  0.00    -0.080 HD
ENDBRANCH   4  12
BRANCH   4  14
ATOM     14  C   UNL     1       5.205  -0.613   0.067  0.00  0.00    +0.200 C 
ATOM     15  O   UNL     1       4.920  -1.620  -0.546  0.00  0.00    -0.278 OA
ATOM     16  N   UNL     1       6.169   0.207  -0.396  0.00  0.00    -0.330 N 
ATOM     17  H   UNL     1       6.447   0.974   0.130  0.00  0.00    +0.145 HD
ATOM     18  H   UNL     1       6.583   0.032  -1.255  0.00  0.00    +0.145 HD
ENDBRANCH   4  14
BRANCH   1  19
ATOM     19  C   UNL     1       1.074   1.634   0.082  0.00  0.00    +0.137 C 
ATOM     20  S   UNL     1       1.038   3.342  -0.025  0.00  0.00    -0.018 S 
BRANCH  19  21
ATOM     21  N   UNL     1      -0.078   0.935   0.101  0.00  0.00    -0.297 N 
ATOM     22  H   UNL     1      -0.591   0.868   0.921  0.00  0.00    +0.154 HD
BRANCH  21  26
ATOM     23  C   UNL     1      -1.427  -0.953  -3.364  0.00  0.00    +0.121 A 
ATOM     24  C   UNL     1      -2.210  -0.963  -2.219  0.00  0.00    +0.047 A 
ATOM     25  C   UNL     1      -1.764  -0.338  -1.071  0.00  0.00    +0.027 A 
ATOM     26  C   UNL     1      -0.531   0.300  -1.063  0.00  0.00    +0.033 A 
ATOM     27  C   UNL     1       0.250   0.314  -2.211  0.00  0.00    +0.027 A 
ATOM     28  C   UNL     1      -0.195  -0.316  -3.356  0.00  0.00    +0.047 A 
BRANCH  23  29
ATOM     29  O   UNL     1      -1.866  -1.569  -4.494  0.00  0.00    -0.492 OA
BRANCH  29  31
ATOM     30  C   UNL     1      -1.667  -2.261  -6.801  0.00  0.00    +0.048 C 
ATOM     31  C   UNL     1      -1.008  -1.520  -5.635  0.00  0.00    +0.225 C 
ENDBRANCH  29  31
ENDBRANCH  23  29
ENDBRANCH  21  26
ENDBRANCH  19  21
ENDBRANCH   1  19
TORSDOF 7
