REMARK  Name = ZINC37971276
REMARK  5 active torsions:
REMARK  status: ('A' for Active; 'I' for Inactive)
REMARK    1  A    between atoms: C_1  and  C_2
REMARK    2  A    between atoms: C_2  and  C_3
REMARK    3  A    between atoms: C_2  and  C_11
REMARK    4  A    between atoms: C_2  and  N_14
REMARK    5  A    between atoms: N_14  and  C_15
REMARK                            x       y       z     vdW  Elec       q    Type
REMARK                         _______ _______ _______ _____ _____    ______ ____
ROOT
ATOM      1  C   UNL     1       0.257   1.671   0.150  0.00  0.00    +0.004 C 
ATOM      2  C   UNL     1       0.167   0.147   0.048  0.00  0.00    +0.033 C 
ENDROOT
BRANCH   2   3
ATOM      3  C   UNL     1       1.086  -0.479   1.065  0.00  0.00    -0.048 A 
ATOM      4  C   UNL     1       2.114  -1.305   0.651  0.00  0.00    +0.004 A 
ATOM      5  C   UNL     1       2.957  -1.881   1.583  0.00  0.00    +0.022 A 
ATOM      6  C   UNL     1       2.773  -1.630   2.931  0.00  0.00    +0.059 A 
ATOM      7  C   UNL     1       1.743  -0.802   3.346  0.00  0.00    +0.059 A 
ATOM      8  C   UNL     1       0.903  -0.223   2.411  0.00  0.00    +0.024 A 
ATOM      9 CL   UNL     1       1.510  -0.487   5.037  0.00  0.00    -0.082 Cl
ATOM     10 CL   UNL     1       3.831  -2.353   4.102  0.00  0.00    -0.082 Cl
ENDBRANCH   2   3
BRANCH   2  11
ATOM     11  C   UNL     1      -1.250  -0.291   0.314  0.00  0.00    +0.204 C 
ATOM     12  O   UNL     1      -2.012   0.445   0.903  0.00  0.00    -0.277 OA
ATOM     13  N   UNL     1      -1.670  -1.502  -0.104  0.00  0.00    -0.330 N 
ATOM     14  H   UNL     1      -1.060  -2.091  -0.576  0.00  0.00    +0.145 HD
ATOM     15  H   UNL     1      -2.582  -1.784   0.067  0.00  0.00    +0.145 HD
ENDBRANCH   2  11
BRANCH   2  16
ATOM     16  N   UNL     1       0.567  -0.278  -1.300  0.00  0.00    +0.393 N 
ATOM     17  H   UNL     1       1.554  -0.110  -1.427  0.00  0.00    -0.084 HD
ATOM     18  H   UNL     1       0.375  -1.262  -1.413  0.00  0.00    -0.084 HD
BRANCH  16  19
ATOM     19  C   UNL     1      -0.192   0.486  -2.299  0.00  0.00    -0.070 C 
ATOM     20  C   UNL     1      -1.660   0.059  -2.261  0.00  0.00    -0.016 C 
ATOM     21  C   UNL     1      -2.450   0.855  -3.302  0.00  0.00    -0.002 C 
ATOM     22  C   UNL     1      -1.876   0.585  -4.694  0.00  0.00    -0.000 C 
ATOM     23  C   UNL     1      -0.408   1.012  -4.732  0.00  0.00    -0.002 C 
ATOM     24  C   UNL     1       0.382   0.216  -3.691  0.00  0.00    -0.016 C 
ENDBRANCH  16  19
ENDBRANCH   2  16
TORSDOF 4
