REMARK  Name = ZINC43284514
REMARK  5 active torsions:
REMARK  status: ('A' for Active; 'I' for Inactive)
REMARK    1  A    between atoms: C_1  and  C_2
REMARK    2  A    between atoms: C_2  and  C_4
REMARK    3  A    between atoms: C_2  and  N_19
REMARK    4  A    between atoms: C_4  and  C_6
REMARK    5  A    between atoms: C_4  and  N_12
REMARK                            x       y       z     vdW  Elec       q    Type
REMARK                         _______ _______ _______ _____ _____    ______ ____
ROOT
ATOM      1  C   UNL     1       0.675  -0.617   1.232  0.00  0.00    +0.079 C 
ENDROOT
BRANCH   1   2
ATOM      2  N   UNL     1       2.051  -0.114   1.339  0.00  0.00    -0.287 NA
ATOM      3  C   UNL     1       2.790  -0.821   2.398  0.00  0.00    +0.104 C 
ATOM      4  C   UNL     1       4.277  -0.488   2.265  0.00  0.00    +0.119 C 
ATOM      5  N   UNL     1       4.461   0.957   2.171  0.00  0.00    -0.313 N 
ATOM      6  C   UNL     1       3.470   1.796   1.850  0.00  0.00    +0.227 C 
ATOM      7  O   UNL     1       3.717   2.981   1.764  0.00  0.00    -0.274 OA
ATOM      8  C   UNL     1       2.064   1.333   1.591  0.00  0.00    +0.181 C 
ATOM      9  H   UNL     1       5.340   1.325   2.350  0.00  0.00    +0.149 HD
ENDBRANCH   1   2
BRANCH   1  10
ATOM     10  C   UNL     1       0.701  -2.085   0.893  0.00  0.00    +0.006 A 
ATOM     11  C   UNL     1      -0.090  -3.083   1.359  0.00  0.00    +0.028 A 
ATOM     12  C   UNL     1       0.119  -4.371   0.902  0.00  0.00    +0.025 A 
ATOM     13  C   UNL     1       1.108  -4.598   0.003  0.00  0.00    +0.060 A 
ATOM     14  S   UNL     1       1.777  -2.960  -0.231  0.00  0.00    -0.099 S 
ATOM     15 BR   UNL     1      -0.959  -5.795   1.524  0.00  0.00    -0.050 Br
ENDBRANCH   1  10
BRANCH   1  17
ATOM     16  C   UNL     1       0.706   0.015  -1.185  0.00  0.00    -0.012 C 
ATOM     17  C   UNL     1      -0.063   0.147   0.131  0.00  0.00    -0.056 C 
BRANCH  17  18
ATOM     18  N   UNL     1      -1.412  -0.410  -0.032  0.00  0.00    +0.381 N 
ATOM     19  H   UNL     1      -1.345  -1.385  -0.286  0.00  0.00    -0.090 HD
ATOM     20  H   UNL     1      -1.920  -0.323   0.836  0.00  0.00    -0.090 HD
ATOM     21  H   UNL     1      -1.899   0.093  -0.758  0.00  0.00    -0.090 HD
ENDBRANCH  17  18
ENDBRANCH   1  17
TORSDOF 4
