REMARK  Name = ZINC39631314
REMARK  11 active torsions:
REMARK  status: ('A' for Active; 'I' for Inactive)
REMARK    1  A    between atoms: C_1  and  C_2
REMARK    2  A    between atoms: C_2  and  C_4
REMARK    3  A    between atoms: C_2  and  N_11
REMARK    4  A    between atoms: C_4  and  C_5
REMARK    5  A    between atoms: C_5  and  C_6
REMARK    6  A    between atoms: C_6  and  C_7
REMARK    7  A    between atoms: C_7  and  C_8
REMARK    8  A    between atoms: C_7  and  C_9
REMARK    9  A    between atoms: C_7  and  O_10
REMARK   10  A    between atoms: C_12  and  C_14
REMARK   11  A    between atoms: C_25  and  C_27
REMARK                            x       y       z     vdW  Elec       q    Type
REMARK                         _______ _______ _______ _____ _____    ______ ____
ROOT
ATOM      1  C   UNL     1       2.486  -0.112   2.600  0.00  0.00    +0.100 C 
ATOM      2  C   UNL     1       2.541  -1.546   3.173  0.00  0.00    +0.121 C 
ATOM      3  N   UNL     1       3.896  -2.036   2.827  0.00  0.00    -0.296 N 
ATOM      4  C   UNL     1       4.777  -0.861   3.035  0.00  0.00    +0.115 C 
ATOM      5  C   UNL     1       3.955   0.335   2.515  0.00  0.00    -0.004 C 
ATOM      6  C   UNL     1       4.331   0.642   1.068  0.00  0.00    -0.010 C 
ATOM      7  C   UNL     1       5.779   1.139   1.016  0.00  0.00    -0.082 C 
ATOM      8  N   UNL     1       5.915   2.343   1.844  0.00  0.00    +0.379 N 
ATOM      9  C   UNL     1       5.642   2.018   3.249  0.00  0.00    -0.082 C 
ATOM     10  C   UNL     1       4.189   1.558   3.396  0.00  0.00    -0.010 C 
ATOM     11  C   UNL     1       4.249  -3.270   2.417  0.00  0.00    +0.247 C 
ATOM     12  O   UNL     1       3.392  -4.103   2.188  0.00  0.00    -0.270 OA
ATOM     13  H   UNL     1       6.854   2.703   1.760  0.00  0.00    -0.086 HD
ATOM     14  H   UNL     1       5.260   3.042   1.529  0.00  0.00    -0.086 HD
ENDROOT
BRANCH  11  15
ATOM     15  C   UNL     1       5.676  -3.612   2.245  0.00  0.00    +0.037 A 
ATOM     16  C   UNL     1       6.665  -2.782   2.802  0.00  0.00    +0.013 A 
ATOM     17  C   UNL     1       7.982  -3.074   2.658  0.00  0.00    +0.009 A 
ATOM     18  C   UNL     1       8.374  -4.221   1.943  0.00  0.00    -0.018 A 
ATOM     19  C   UNL     1       9.731  -4.545   1.781  0.00  0.00    +0.008 A 
ATOM     20  C   UNL     1      10.080  -5.662   1.084  0.00  0.00    +0.001 A 
ATOM     21  C   UNL     1       9.110  -6.492   0.527  0.00  0.00    +0.001 A 
ATOM     22  C   UNL     1       7.786  -6.212   0.663  0.00  0.00    +0.008 A 
ATOM     23  C   UNL     1       7.387  -5.067   1.377  0.00  0.00    -0.017 A 
ATOM     24  C   UNL     1       6.030  -4.751   1.541  0.00  0.00    +0.021 A 
ENDBRANCH  11  15
BRANCH   1  26
ATOM     25  N   UNL     1       1.324   1.014   0.730  0.00  0.00    -0.312 N 
ATOM     26  C   UNL     1       1.859  -0.117   1.230  0.00  0.00    +0.218 C 
ATOM     27  O   UNL     1       1.835  -1.139   0.578  0.00  0.00    -0.275 OA
ATOM     28  H   UNL     1       1.406   1.848   1.220  0.00  0.00    +0.149 HD
BRANCH  25  30
ATOM     29  C   UNL     1       1.633   1.031  -1.696  0.00  0.00    +0.028 C 
ATOM     30  C   UNL     1       0.617   0.985  -0.553  0.00  0.00    +0.070 C 
BRANCH  30  31
ATOM     31  C   UNL     1      -0.314   2.195  -0.649  0.00  0.00    +0.022 C 
BRANCH  31  32
ATOM     32  C   UNL     1      -1.411   2.081   0.411  0.00  0.00    +0.005 C 
BRANCH  32  33
ATOM     33  C   UNL     1      -2.413   3.224   0.235  0.00  0.00    +0.034 C 
BRANCH  33  34
ATOM     34  C   UNL     1      -3.566   3.050   1.225  0.00  0.00    +0.061 C 
ATOM     35  C   UNL     1      -4.567   4.193   1.049  0.00  0.00    +0.041 C 
ATOM     36  C   UNL     1      -4.265   1.715   0.964  0.00  0.00    +0.041 C 
BRANCH  34  37
ATOM     37  O   UNL     1      -3.054   3.066   2.559  0.00  0.00    -0.389 OA
ATOM     38  H   UNL     1      -2.663   3.911   2.821  0.00  0.00    +0.210 HD
ENDBRANCH  34  37
ENDBRANCH  33  34
ENDBRANCH  32  33
ENDBRANCH  31  32
ENDBRANCH  30  31
ENDBRANCH  25  30
ENDBRANCH   1  26
TORSDOF 8
