REMARK  Name = ZINC30713527
REMARK  15 active torsions:
REMARK  status: ('A' for Active; 'I' for Inactive)
REMARK    1  A    between atoms: C_1  and  C_2
REMARK    2  A    between atoms: C_2  and  N_3
REMARK    3  A    between atoms: N_3  and  C_4
REMARK    4  A    between atoms: N_3  and  C_6
REMARK    5  A    between atoms: C_4  and  C_5
REMARK    6  A    between atoms: C_6  and  C_8
REMARK    7  A    between atoms: C_6  and  C_26
REMARK    8  A    between atoms: C_8  and  N_9
REMARK    9  A    between atoms: C_10  and  C_12
REMARK   10  A    between atoms: C_12  and  C_14
REMARK   11  A    between atoms: C_12  and  N_18
REMARK   12  A    between atoms: C_14  and  C_15
REMARK   13  A    between atoms: C_15  and  S_16
REMARK   14  A    between atoms: S_16  and  C_17
REMARK   15  A    between atoms: C_19  and  C_21
REMARK                            x       y       z     vdW  Elec       q    Type
REMARK                         _______ _______ _______ _____ _____    ______ ____
ROOT
ATOM      1  N   UNL     1       0.053   2.059   0.377  0.00  0.00    -0.315 N 
ATOM      2  C   UNL     1       1.085   2.841   0.749  0.00  0.00    +0.233 C 
ATOM      3  O   UNL     1       2.171   2.348   0.970  0.00  0.00    -0.274 OA
ATOM      4  H   UNL     1      -0.932   2.506   0.177  0.00  0.00    +0.149 HD
ENDROOT
BRANCH   1   5
ATOM      5  C   UNL     1       0.242   0.612   0.241  0.00  0.00    +0.093 C 
BRANCH   5   6
ATOM      6  C   UNL     1      -1.104  -0.053  -0.053  0.00  0.00    -0.019 C 
BRANCH   6   7
ATOM      7  C   UNL     1      -0.901  -1.533  -0.251  0.00  0.00    -0.041 A 
ATOM      8  C   UNL     1      -1.254  -2.419   0.749  0.00  0.00    +0.003 A 
ATOM      9  C   UNL     1      -1.067  -3.777   0.568  0.00  0.00    +0.000 A 
ATOM     10  C   UNL     1      -0.527  -4.249  -0.614  0.00  0.00    +0.001 A 
ATOM     11  C   UNL     1      -0.174  -3.364  -1.615  0.00  0.00    +0.020 A 
ATOM     12  C   UNL     1      -0.365  -2.005  -1.436  0.00  0.00    +0.043 A 
ATOM     13 CL   UNL     1       0.072  -0.893  -2.695  0.00  0.00    -0.083 Cl
ENDBRANCH   6   7
BRANCH   6  14
ATOM     14  N   UNL     1      -2.017   0.169   1.077  0.00  0.00    +0.385 N 
ATOM     15  H   UNL     1      -2.583  -0.759   1.241  0.00  0.00    -0.081 HD
BRANCH  14  17
ATOM     16  C   UNL     1      -0.647  -0.823   2.848  0.00  0.00    -0.017 C 
ATOM     17  C   UNL     1      -1.270   0.466   2.307  0.00  0.00    -0.081 C 
ENDBRANCH  14  17
BRANCH  14  18
ATOM     18  C   UNL     1      -2.979   1.238   0.775  0.00  0.00    -0.081 C 
ATOM     19  C   UNL     1      -4.027   0.716  -0.210  0.00  0.00    -0.017 C 
ENDBRANCH  14  18
ENDBRANCH   6  14
ENDBRANCH   5   6
ENDBRANCH   1   5
BRANCH   2  20
ATOM     20  C   UNL     1       0.891   4.329   0.889  0.00  0.00    +0.160 C 
BRANCH  20  21
ATOM     21  N   UNL     1       2.152   4.950   1.299  0.00  0.00    -0.297 N 
ATOM     22  C   UNL     1       2.390   6.246   1.014  0.00  0.00    +0.280 C 
ATOM     23  O   UNL     1       1.556   6.900   0.415  0.00  0.00    -0.267 OA
ATOM     24  H   UNL     1       2.906   4.359   1.840  0.00  0.00    +0.150 HD
BRANCH  22  25
ATOM     25  C   UNL     1       3.653   6.867   1.425  0.00  0.00    +0.189 A 
ATOM     26  C   UNL     1       4.020   8.164   1.201  0.00  0.00    +0.054 A 
ATOM     27  C   UNL     1       5.296   8.325   1.762  0.00  0.00    +0.042 A 
ATOM     28  C   UNL     1       5.649   7.135   2.296  0.00  0.00    +0.196 A 
ATOM     29  O   UNL     1       4.654   6.261   2.096  0.00  0.00    -0.458 OA
ENDBRANCH  22  25
ENDBRANCH  20  21
BRANCH  20  30
ATOM     30  C   UNL     1      -0.181   4.606   1.944  0.00  0.00    +0.042 C 
BRANCH  30  31
ATOM     31  C   UNL     1      -0.468   6.108   1.998  0.00  0.00    +0.071 C 
BRANCH  31  32
ATOM     32  S   UNL     1      -1.739   6.436   3.250  0.00  0.00    -0.164 S 
ATOM     33  C   UNL     1      -1.961   8.236   3.189  0.00  0.00    +0.084 C 
ENDBRANCH  31  32
ENDBRANCH  30  31
ENDBRANCH  20  30
ENDBRANCH   2  20
TORSDOF 12
