REMARK  Name = ZINC36629470
REMARK  8 active torsions:
REMARK  status: ('A' for Active; 'I' for Inactive)
REMARK    1  A    between atoms: C_1  and  C_2
REMARK    2  A    between atoms: C_2  and  C_3
REMARK    3  A    between atoms: C_3  and  N_4
REMARK    4  A    between atoms: C_10  and  N_15
REMARK    5  A    between atoms: C_11  and  C_12
REMARK    6  A    between atoms: C_16  and  C_18
REMARK    7  A    between atoms: C_18  and  C_19
REMARK    8  A    between atoms: C_23  and  C_25
REMARK                            x       y       z     vdW  Elec       q    Type
REMARK                         _______ _______ _______ _____ _____    ______ ____
ROOT
ATOM      1  N   UNL     1       0.762  -1.980   1.234  0.00  0.00    +0.383 N 
ATOM      2  C   UNL     1       1.362  -2.467   2.482  0.00  0.00    -0.074 C 
ATOM      3  C   UNL     1       1.113  -3.971   2.636  0.00  0.00    +0.018 C 
ATOM      4  C   UNL     1       1.567  -4.654   1.354  0.00  0.00    -0.027 A 
ATOM      5  C   UNL     1       1.756  -3.929   0.228  0.00  0.00    -0.021 A 
ATOM      6  S   UNL     1       2.272  -5.109  -0.981  0.00  0.00    -0.079 S 
ATOM      7  C   UNL     1       2.241  -6.507  -0.050  0.00  0.00    +0.084 A 
ATOM      8  C   UNL     1       1.832  -6.071   1.202  0.00  0.00    +0.068 A 
ATOM      9  C   UNL     1       1.555  -2.454   0.084  0.00  0.00    -0.035 C 
ATOM     10  H   UNL     1      -0.182  -2.328   1.157  0.00  0.00    -0.081 HD
ENDROOT
BRANCH   8  11
ATOM     11  C   UNL     1       1.675  -7.003   2.323  0.00  0.00    +0.244 C 
ATOM     12  O   UNL     1       0.604  -7.549   2.515  0.00  0.00    -0.270 OA
ATOM     13  N   UNL     1       2.716  -7.256   3.141  0.00  0.00    -0.325 N 
ATOM     14  H   UNL     1       3.570  -6.821   2.988  0.00  0.00    +0.145 HD
ATOM     15  H   UNL     1       2.612  -7.872   3.882  0.00  0.00    +0.145 HD
ENDBRANCH   8  11
BRANCH   7  16
ATOM     16  N   UNL     1       2.552  -7.800  -0.442  0.00  0.00    -0.279 N 
ATOM     17  C   UNL     1       2.936  -8.045  -1.711  0.00  0.00    +0.222 C 
ATOM     18  O   UNL     1       3.009  -7.135  -2.509  0.00  0.00    -0.275 OA
ATOM     19  H   UNL     1       2.494  -8.528   0.196  0.00  0.00    +0.155 HD
BRANCH  17  20
ATOM     20  C   UNL     1       3.274  -9.450  -2.138  0.00  0.00    +0.131 C 
BRANCH  20  21
ATOM     21  C   UNL     1       3.670  -9.452  -3.592  0.00  0.00    -0.038 A 
ATOM     22  C   UNL     1       2.708  -9.628  -4.569  0.00  0.00    +0.004 A 
ATOM     23  C   UNL     1       3.071  -9.630  -5.903  0.00  0.00    +0.001 A 
ATOM     24  C   UNL     1       4.395  -9.456  -6.260  0.00  0.00    +0.003 A 
ATOM     25  C   UNL     1       5.356  -9.279  -5.282  0.00  0.00    -0.050 A 
ATOM     26  C   UNL     1       4.993  -9.273  -3.948  0.00  0.00    +0.007 A 
ATOM     27  C   UNL     1       6.800  -9.089  -5.671  0.00  0.00    +0.044 C 
ENDBRANCH  20  21
ENDBRANCH  17  20
ENDBRANCH   7  16
BRANCH   1  28
ATOM     28  C   UNL     1       0.742  -0.511   1.242  0.00  0.00    -0.079 C 
BRANCH  28  30
ATOM     29  C   UNL     1      -0.019   1.526   0.010  0.00  0.00    +0.002 C 
ATOM     30  C   UNL     1       0.002  -0.004   0.002  0.00  0.00    -0.022 C 
ENDBRANCH  28  30
ENDBRANCH   1  28
TORSDOF 6
