REMARK  Name = ZINC37722409
REMARK  12 active torsions:
REMARK  status: ('A' for Active; 'I' for Inactive)
REMARK    1  A    between atoms: C_1  and  C_2
REMARK    2  A    between atoms: C_2  and  O_3
REMARK    3  A    between atoms: O_3  and  C_4
REMARK    4  A    between atoms: C_6  and  C_19
REMARK    5  A    between atoms: C_9  and  O_10
REMARK    6  A    between atoms: O_10  and  C_11
REMARK    7  A    between atoms: C_11  and  C_13
REMARK    8  A    between atoms: C_11  and  C_14
REMARK    9  A    between atoms: N_16  and  C_17
REMARK   10  A    between atoms: C_19  and  C_20
REMARK   11  A    between atoms: C_20  and  C_22
REMARK   12  A    between atoms: C_20  and  N_23
REMARK                            x       y       z     vdW  Elec       q    Type
REMARK                         _______ _______ _______ _____ _____    ______ ____
ROOT
ATOM      1  C   UNL     1       0.802  -1.825   1.306  0.00  0.00    +0.163 A 
ATOM      2  C   UNL     1       0.260  -2.673   0.352  0.00  0.00    +0.053 A 
ATOM      3  C   UNL     1       0.371  -4.043   0.502  0.00  0.00    -0.044 A 
ATOM      4  C   UNL     1       1.022  -4.571   1.602  0.00  0.00    +0.022 A 
ATOM      5  C   UNL     1       1.565  -3.730   2.557  0.00  0.00    +0.063 A 
ATOM      6  C   UNL     1       1.462  -2.356   2.409  0.00  0.00    +0.177 A 
ATOM      7 BR   UNL     1       2.453  -4.456   4.061  0.00  0.00    -0.046 Br
ENDROOT
BRANCH   1   8
ATOM      8  O   UNL     1       0.693  -0.477   1.160  0.00  0.00    -0.489 OA
BRANCH   8  10
ATOM      9  C   UNL     1      -0.019   1.526   0.010  0.00  0.00    +0.048 C 
ATOM     10  C   UNL     1       0.002  -0.004   0.002  0.00  0.00    +0.226 C 
ENDBRANCH   8  10
ENDBRANCH   1   8
BRANCH   6  11
ATOM     11  O   UNL     1       2.000  -1.528   3.345  0.00  0.00    -0.475 OA
BRANCH  11  12
ATOM     12  C   UNL     1       1.161  -1.151   4.438  0.00  0.00    +0.256 C 
ATOM     13  C   UNL     1       0.400   0.128   4.080  0.00  0.00    +0.062 C 
BRANCH  12  14
ATOM     14  C   UNL     1       2.007  -0.906   5.661  0.00  0.00    +0.253 C 
ATOM     15  O   UNL     1       3.216  -0.953   5.580  0.00  0.00    -0.272 OA
ATOM     16  N   UNL     1       1.420  -0.637   6.843  0.00  0.00    -0.315 N 
ATOM     17  C   UNL     1       2.243  -0.399   8.032  0.00  0.00    +0.128 C 
ATOM     18  H   UNL     1       0.453  -0.600   6.908  0.00  0.00    +0.148 HD
ENDBRANCH  12  14
ENDBRANCH  11  12
ENDBRANCH   6  11
BRANCH   3  19
ATOM     19  C   UNL     1      -0.219  -4.963  -0.535  0.00  0.00    +0.019 C 
BRANCH  19  20
ATOM     20  C   UNL     1       0.827  -5.253  -1.614  0.00  0.00    -0.074 C 
ATOM     21  C   UNL     1       0.271  -6.283  -2.599  0.00  0.00    -0.014 C 
BRANCH  20  22
ATOM     22  N   UNL     1       1.147  -4.012  -2.332  0.00  0.00    +0.380 N 
ATOM     23  H   UNL     1       1.837  -4.203  -3.043  0.00  0.00    -0.090 HD
ATOM     24  H   UNL     1       0.311  -3.647  -2.763  0.00  0.00    -0.090 HD
ATOM     25  H   UNL     1       1.514  -3.332  -1.682  0.00  0.00    -0.090 HD
ENDBRANCH  20  22
ENDBRANCH  19  20
ENDBRANCH   3  19
TORSDOF 8
