REMARK  Name = ZINC63279751
REMARK  9 active torsions:
REMARK  status: ('A' for Active; 'I' for Inactive)
REMARK    1  A    between atoms: C_1  and  C_2
REMARK    2  A    between atoms: C_2  and  C_4
REMARK    3  A    between atoms: C_2  and  N_14
REMARK    4  A    between atoms: C_4  and  C_5
REMARK    5  A    between atoms: C_15  and  C_17
REMARK    6  A    between atoms: C_17  and  C_19
REMARK    7  A    between atoms: C_17  and  N_22
REMARK    8  A    between atoms: C_19  and  C_20
REMARK    9  A    between atoms: C_19  and  C_21
REMARK                            x       y       z     vdW  Elec       q    Type
REMARK                         _______ _______ _______ _____ _____    ______ ____
ROOT
ATOM      1  N   UNL     1       1.018  -0.135  -0.737  0.00  0.00    -0.311 N 
ATOM      2  C   UNL     1       2.288  -0.054  -1.182  0.00  0.00    +0.236 C 
ATOM      3  O   UNL     1       3.064   0.720  -0.663  0.00  0.00    -0.274 OA
ATOM      4  H   UNL     1       0.378  -0.699  -1.198  0.00  0.00    +0.149 HD
ENDROOT
BRANCH   1   6
ATOM      5  C   UNL     1       0.212   2.045   0.023  0.00  0.00    +0.028 C 
ATOM      6  C   UNL     1       0.606   0.628   0.444  0.00  0.00    +0.074 C 
BRANCH   6   7
ATOM      7  C   UNL     1      -0.592  -0.059   1.103  0.00  0.00    +0.055 C 
BRANCH   7   8
ATOM      8  C   UNL     1      -0.172  -1.408   1.627  0.00  0.00    -0.040 C 
ATOM      9  C   UNL     1       0.224  -1.704   2.886  0.00  0.00    -0.001 A 
ATOM     10  C   UNL     1       0.377  -0.889   4.097  0.00  0.00    +0.010 A 
ATOM     11  C   UNL     1       0.803  -1.481   5.236  0.00  0.00    +0.001 A 
ATOM     12  C   UNL     1       1.103  -2.849   5.289  0.00  0.00    +0.002 A 
ATOM     13  C   UNL     1       0.987  -3.663   4.217  0.00  0.00    +0.026 A 
ATOM     14  C   UNL     1       0.546  -3.147   2.967  0.00  0.00    +0.043 A 
ATOM     15  N   UNL     1       0.357  -3.720   1.804  0.00  0.00    -0.380 N 
ATOM     16  C   UNL     1      -0.113  -2.707   0.853  0.00  0.00    +0.144 C 
ATOM     17  H   UNL     1       0.500  -4.659   1.606  0.00  0.00    +0.160 HD
ENDBRANCH   7   8
ENDBRANCH   6   7
ENDBRANCH   1   6
BRANCH   2  18
ATOM     18  C   UNL     1       2.743  -0.925  -2.324  0.00  0.00    +0.183 C 
BRANCH  18  19
ATOM     19  N   UNL     1       4.188  -1.147  -2.224  0.00  0.00    -0.205 N 
ATOM     20  C   UNL     1       4.647  -2.399  -1.997  0.00  0.00    +0.264 C 
ATOM     21  O   UNL     1       3.893  -3.352  -1.970  0.00  0.00    -0.269 OA
ATOM     22  C   UNL     1       6.099  -2.565  -1.784  0.00  0.00    +0.060 A 
ATOM     23  C   UNL     1       6.726  -3.804  -1.784  0.00  0.00    +0.015 A 
ATOM     24  C   UNL     1       8.089  -3.871  -1.573  0.00  0.00    +0.001 A 
ATOM     25  C   UNL     1       8.827  -2.716  -1.363  0.00  0.00    +0.002 A 
ATOM     26  C   UNL     1       8.213  -1.477  -1.362  0.00  0.00    +0.025 A 
ATOM     27  C   UNL     1       6.850  -1.392  -1.573  0.00  0.00    +0.055 A 
ATOM     28  N   UNL     1       6.160  -0.186  -1.595  0.00  0.00    -0.264 N 
ATOM     29  N   UNL     1       5.032  -0.089  -2.366  0.00  0.00    -0.157 NA
ATOM     30  H   UNL     1       6.473   0.571  -1.076  0.00  0.00    +0.168 HD
ATOM     31  H   UNL     1       5.265   0.059  -3.337  0.00  0.00    +0.168 HD
ENDBRANCH  18  19
BRANCH  18  32
ATOM     32  C   UNL     1       2.424  -0.233  -3.651  0.00  0.00    +0.014 C 
ATOM     33  C   UNL     1       2.938  -1.091  -4.810  0.00  0.00    +0.009 C 
ATOM     34  C   UNL     1       0.910  -0.053  -3.782  0.00  0.00    +0.009 C 
ENDBRANCH  18  32
ENDBRANCH   2  18
TORSDOF 6
