REMARK  Name = ZINC11423947
REMARK  9 active torsions:
REMARK  status: ('A' for Active; 'I' for Inactive)
REMARK    1  A    between atoms: C_1  and  C_2
REMARK    2  A    between atoms: C_2  and  C_25
REMARK    3  A    between atoms: C_4  and  N_10
REMARK    4  A    between atoms: C_6  and  C_8
REMARK    5  A    between atoms: C_6  and  C_9
REMARK    6  A    between atoms: C_11  and  C_13
REMARK    7  A    between atoms: C_15  and  S_20
REMARK    8  A    between atoms: S_20  and  N_23
REMARK    9  A    between atoms: N_23  and  C_24
REMARK                            x       y       z     vdW  Elec       q    Type
REMARK                         _______ _______ _______ _____ _____    ______ ____
ROOT
ATOM      1  N   UNL     1      -2.928  -2.409   0.180  0.00  0.00    -0.309 N 
ATOM      2  C   UNL     1      -3.243  -3.683  -0.127  0.00  0.00    +0.246 C 
ATOM      3  O   UNL     1      -2.363  -4.481  -0.386  0.00  0.00    -0.270 OA
ATOM      4  H   UNL     1      -3.630  -1.773   0.387  0.00  0.00    +0.149 HD
ENDROOT
BRANCH   1   8
ATOM      5  C   UNL     1      -0.019   1.542   0.011  0.00  0.00    -0.010 C 
ATOM      6  C   UNL     1       0.002  -0.004   0.002  0.00  0.00    -0.072 C 
ATOM      7  C   UNL     1      -1.446  -0.479  -0.047  0.00  0.00    +0.009 C 
ATOM      8  C   UNL     1      -1.522  -1.985   0.202  0.00  0.00    +0.071 C 
ATOM      9  C   UNL     1      -0.931  -2.270   1.582  0.00  0.00    +0.009 C 
ATOM     10  C   UNL     1       0.522  -1.810   1.643  0.00  0.00    -0.072 C 
ATOM     11  N   UNL     1       0.711  -0.443   1.191  0.00  0.00    +0.386 N 
ATOM     12  C   UNL     1       1.408  -2.784   0.859  0.00  0.00    -0.010 C 
ATOM     13  C   UNL     1       0.968  -1.882   3.122  0.00  0.00    -0.010 C 
ATOM     14  C   UNL     1       0.733  -0.436  -1.274  0.00  0.00    -0.010 C 
ATOM     15  H   UNL     1       1.713  -0.290   1.042  0.00  0.00    -0.084 HD
ATOM     16  H   UNL     1       0.464   0.186   1.962  0.00  0.00    -0.084 HD
ENDBRANCH   1   8
BRANCH   2  17
ATOM     17  C   UNL     1      -4.657  -4.110  -0.149  0.00  0.00    +0.057 A 
ATOM     18  C   UNL     1      -5.670  -3.195   0.143  0.00  0.00    +0.043 A 
ATOM     19  C   UNL     1      -6.988  -3.600   0.121  0.00  0.00    +0.106 A 
ATOM     20  C   UNL     1      -7.309  -4.910  -0.190  0.00  0.00    +0.030 A 
ATOM     21  C   UNL     1      -6.311  -5.823  -0.479  0.00  0.00    +0.022 A 
ATOM     22  C   UNL     1      -4.987  -5.430  -0.467  0.00  0.00    +0.053 A 
ATOM     23 CL   UNL     1      -3.736  -6.575  -0.838  0.00  0.00    -0.083 Cl
BRANCH  19  24
ATOM     24  S   UNL     1      -8.268  -2.446   0.488  0.00  0.00    +0.058 S 
ATOM     25  O   UNL     1      -9.384  -3.205   0.934  0.00  0.00    -0.153 OA
ATOM     26  O   UNL     1      -7.678  -1.423   1.279  0.00  0.00    -0.153 OA
BRANCH  24  27
ATOM     27  N   UNL     1      -8.716  -1.739  -0.941  0.00  0.00    -0.193 NA
ATOM     28  C   UNL     1      -9.339  -2.546  -1.993  0.00  0.00    +0.127 C 
ATOM     29  H   UNL     1      -8.566  -0.791  -1.081  0.00  0.00    +0.148 HD
ENDBRANCH  24  27
ENDBRANCH  19  24
ENDBRANCH   2  17
TORSDOF 4
