REMARK  Name = ZINC35958311
REMARK  6 active torsions:
REMARK  status: ('A' for Active; 'I' for Inactive)
REMARK    1  A    between atoms: C_1  and  C_2
REMARK    2  A    between atoms: C_5  and  N_8
REMARK    3  A    between atoms: C_11  and  C_13
REMARK    4  A    between atoms: C_17  and  C_26
REMARK    5  A    between atoms: C_22  and  C_24
REMARK    6  A    between atoms: C_22  and  C_25
REMARK                            x       y       z     vdW  Elec       q    Type
REMARK                         _______ _______ _______ _____ _____    ______ ____
ROOT
ATOM      1  C   UNL     1       0.098  -7.356  -1.586  0.00  0.00    +0.286 C 
ATOM      2  O   UNL     1       0.096  -7.203  -2.792  0.00  0.00    -0.267 OA
ATOM      3  N   UNL     1       0.114  -8.599  -1.064  0.00  0.00    -0.291 N 
ATOM      4  C   UNL     1       0.131  -8.931   0.369  0.00  0.00    +0.115 C 
ATOM      5  C   UNL     1       0.099 -10.474   0.460  0.00  0.00    -0.014 C 
ATOM      6  C   UNL     1       0.773 -10.897  -0.872  0.00  0.00    +0.030 C 
ATOM      7  C   UNL     1       0.130  -9.862  -1.829  0.00  0.00    +0.078 C 
ATOM      8  C   UNL     1      -1.306 -10.311  -2.085  0.00  0.00    +0.029 C 
ATOM      9  C   UNL     1      -2.123 -10.522  -0.824  0.00  0.00    -0.033 C 
ATOM     10  C   UNL     1      -1.353 -10.944   0.412  0.00  0.00    +0.014 C 
ATOM     11  C   UNL     1      -3.151 -11.641  -1.128  0.00  0.00    +0.011 C 
ATOM     12  C   UNL     1      -2.940  -9.255  -0.523  0.00  0.00    +0.011 C 
ATOM     13  C   UNL     1       0.853 -11.001   1.691  0.00  0.00    +0.013 C 
ENDROOT
BRANCH   1  17
ATOM     14  N   UNL     1       0.057  -4.172  -0.021  0.00  0.00    -0.220 N 
ATOM     15  C   UNL     1       0.068  -4.966   1.069  0.00  0.00    +0.225 A 
ATOM     16  N   UNL     1       0.084  -6.207   0.654  0.00  0.00    -0.211 NA
ATOM     17  C   UNL     1       0.083  -6.179  -0.691  0.00  0.00    +0.237 A 
ATOM     18  N   UNL     1       0.061  -4.919  -1.071  0.00  0.00    -0.140 NA
BRANCH  14  23
ATOM     19  C   UNL     1      -0.018   1.503   0.010  0.00  0.00    +0.044 C 
ATOM     20  C   UNL     1       0.002  -0.004   0.002  0.00  0.00    -0.050 A 
ATOM     21  C   UNL     1       0.006  -0.688  -1.200  0.00  0.00    +0.005 A 
ATOM     22  C   UNL     1       0.024  -2.068  -1.211  0.00  0.00    +0.028 A 
ATOM     23  C   UNL     1       0.039  -2.771  -0.013  0.00  0.00    +0.067 A 
ATOM     24  C   UNL     1       0.036  -2.082   1.192  0.00  0.00    +0.028 A 
ATOM     25  C   UNL     1       0.023  -0.700   1.196  0.00  0.00    +0.005 A 
ENDBRANCH  14  23
ENDBRANCH   1  17
TORSDOF 2
