REMARK  Name = ZINC63589424
REMARK  11 active torsions:
REMARK  status: ('A' for Active; 'I' for Inactive)
REMARK    1  A    between atoms: C_1  and  C_2
REMARK    2  A    between atoms: C_6  and  C_8
REMARK    3  A    between atoms: C_8  and  N_10
REMARK    4  A    between atoms: N_12  and  C_13
REMARK    5  A    between atoms: C_15  and  O_21
REMARK    6  A    between atoms: C_17  and  O_19
REMARK    7  A    between atoms: O_19  and  C_20
REMARK    8  A    between atoms: O_21  and  C_22
REMARK    9  A    between atoms: N_23  and  C_24
REMARK   10  A    between atoms: C_24  and  C_25
REMARK   11  A    between atoms: C_25  and  C_26
REMARK                            x       y       z     vdW  Elec       q    Type
REMARK                         _______ _______ _______ _____ _____    ______ ____
ROOT
ATOM      1  N   UNL     1       0.320  -4.438   2.407  0.00  0.00    -0.143 NA
ATOM      2  C   UNL     1      -0.039  -4.859   3.610  0.00  0.00    +0.194 C 
ATOM      3  N   UNL     1       0.321  -4.147   4.718  0.00  0.00    -0.328 N 
ATOM      4  N   UNL     1      -0.769  -6.004   3.743  0.00  0.00    -0.357 N 
ATOM      5  H   UNL     1       0.514  -3.200   4.644  0.00  0.00    +0.169 HD
ATOM      6  H   UNL     1      -1.062  -6.294   4.621  0.00  0.00    +0.162 HD
ENDROOT
BRANCH   3   7
ATOM      7  C   UNL     1       0.411  -4.784   5.960  0.00  0.00    +0.049 A 
ATOM      8  C   UNL     1       0.676  -6.146   6.024  0.00  0.00    +0.071 A 
ATOM      9  C   UNL     1       0.766  -6.777   7.256  0.00  0.00    +0.126 A 
ATOM     10  C   UNL     1       0.591  -6.048   8.423  0.00  0.00    +0.091 A 
ATOM     11  C   UNL     1       0.326  -4.688   8.359  0.00  0.00    +0.126 A 
ATOM     12  C   UNL     1       0.242  -4.055   7.129  0.00  0.00    +0.071 A 
BRANCH  11  13
ATOM     13  O   UNL     1       0.155  -3.975   9.503  0.00  0.00    -0.495 OA
ATOM     14  C   UNL     1       0.262  -4.691  10.736  0.00  0.00    +0.277 C 
ENDBRANCH  11  13
BRANCH   9  15
ATOM     15  O   UNL     1       1.024  -8.109   7.319  0.00  0.00    -0.495 OA
ATOM     16  C   UNL     1       0.994  -8.715   8.613  0.00  0.00    +0.277 C 
ENDBRANCH   9  15
ENDBRANCH   3   7
BRANCH   1  17
ATOM     17  C   UNL     1       1.182  -3.421   2.283  0.00  0.00    +0.270 C 
ATOM     18  O   UNL     1       1.690  -2.929   3.275  0.00  0.00    -0.268 OA
BRANCH  17  24
ATOM     19  C   UNL     1       3.859  -0.356  -0.609  0.00  0.00    +0.044 C 
ATOM     20  C   UNL     1       2.803  -1.421  -0.455  0.00  0.00    -0.050 A 
ATOM     21  C   UNL     1       2.145  -1.908  -1.570  0.00  0.00    +0.003 A 
ATOM     22  C   UNL     1       1.175  -2.885  -1.436  0.00  0.00    +0.001 A 
ATOM     23  C   UNL     1       0.858  -3.381  -0.188  0.00  0.00    +0.013 A 
ATOM     24  C   UNL     1       1.518  -2.894   0.940  0.00  0.00    +0.039 A 
ATOM     25  C   UNL     1       2.499  -1.912   0.798  0.00  0.00    +0.016 A 
ENDBRANCH  17  24
ENDBRANCH   1  17
BRANCH   4  26
ATOM     26  C   UNL     1      -1.111  -6.795   2.558  0.00  0.00    +0.120 C 
BRANCH  26  27
ATOM     27  C   UNL     1      -1.927  -8.019   2.981  0.00  0.00    +0.054 C 
BRANCH  27  28
ATOM     28  C   UNL     1      -2.280  -8.833   1.762  0.00  0.00    -0.040 C 
ATOM     29  C   UNL     1      -1.609  -9.903   1.278  0.00  0.00    -0.001 A 
ATOM     30  C   UNL     1      -0.398 -10.603   1.723  0.00  0.00    +0.010 A 
ATOM     31  C   UNL     1       0.041 -11.668   1.016  0.00  0.00    +0.001 A 
ATOM     32  C   UNL     1      -0.629 -12.120  -0.129  0.00  0.00    +0.002 A 
ATOM     33  C   UNL     1      -1.748 -11.530  -0.599  0.00  0.00    +0.026 A 
ATOM     34  C   UNL     1      -2.299 -10.401   0.067  0.00  0.00    +0.043 A 
ATOM     35  N   UNL     1      -3.355  -9.666  -0.188  0.00  0.00    -0.380 N 
ATOM     36  C   UNL     1      -3.457  -8.622   0.838  0.00  0.00    +0.144 C 
ATOM     37  H   UNL     1      -3.968  -9.794  -0.929  0.00  0.00    +0.160 HD
ENDBRANCH  27  28
ENDBRANCH  26  27
ENDBRANCH   4  26
TORSDOF 8
