REMARK  Name = ZINC42952736
REMARK  8 active torsions:
REMARK  status: ('A' for Active; 'I' for Inactive)
REMARK    1  A    between atoms: C_1  and  C_2
REMARK    2  A    between atoms: C_2  and  C_3
REMARK    3  A    between atoms: C_3  and  C_5
REMARK    4  A    between atoms: C_3  and  N_22
REMARK    5  A    between atoms: C_5  and  C_7
REMARK    6  A    between atoms: C_5  and  N_14
REMARK    7  A    between atoms: C_17  and  C_20
REMARK    8  A    between atoms: C_20  and  O_21
REMARK                            x       y       z     vdW  Elec       q    Type
REMARK                         _______ _______ _______ _____ _____    ______ ____
ROOT
ATOM      1  C   UNL     1       0.872  -2.034   1.171  0.00  0.00    +0.072 C 
ENDROOT
BRANCH   1   2
ATOM      2  C   UNL     1       1.629  -2.258  -0.112  0.00  0.00    -0.032 A 
ATOM      3  C   UNL     1       2.409  -1.246  -0.641  0.00  0.00    +0.006 A 
ATOM      4  C   UNL     1       3.105  -1.452  -1.817  0.00  0.00    +0.015 A 
ATOM      5  C   UNL     1       3.020  -2.671  -2.466  0.00  0.00    +0.018 A 
ATOM      6  C   UNL     1       2.240  -3.683  -1.938  0.00  0.00    +0.015 A 
ATOM      7  C   UNL     1       1.549  -3.478  -0.758  0.00  0.00    +0.006 A 
ATOM      8 BR   UNL     1       3.971  -2.952  -4.077  0.00  0.00    -0.050 Br
ENDBRANCH   1   2
BRANCH   1   9
ATOM      9  N   UNL     1       1.819  -1.960   2.292  0.00  0.00    -0.297 NA
ATOM     10  C   UNL     1       2.800  -0.888   2.083  0.00  0.00    +0.085 C 
ATOM     11  C   UNL     1       3.675  -0.745   3.330  0.00  0.00    +0.021 C 
ATOM     12  C   UNL     1       4.391  -2.072   3.600  0.00  0.00    +0.017 C 
ATOM     13  C   UNL     1       3.348  -3.181   3.766  0.00  0.00    +0.021 C 
ATOM     14  C   UNL     1       2.482  -3.253   2.506  0.00  0.00    +0.085 C 
BRANCH  12  15
ATOM     15  C   UNL     1       5.220  -1.954   4.880  0.00  0.00    +0.159 C 
BRANCH  15  16
ATOM     16  O   UNL     1       5.978  -3.151   5.068  0.00  0.00    -0.395 OA
ATOM     17  H   UNL     1       6.529  -3.147   5.863  0.00  0.00    +0.209 HD
ENDBRANCH  15  16
ENDBRANCH  12  15
ENDBRANCH   1   9
BRANCH   1  18
ATOM     18  C   UNL     1       0.089  -0.723   1.078  0.00  0.00    -0.053 C 
BRANCH  18  19
ATOM     19  N   UNL     1      -0.650  -0.504   2.329  0.00  0.00    +0.381 N 
ATOM     20  H   UNL     1      -1.290  -1.268   2.479  0.00  0.00    -0.090 HD
ATOM     21  H   UNL     1       0.001  -0.453   3.099  0.00  0.00    -0.090 HD
ATOM     22  H   UNL     1      -1.166   0.361   2.268  0.00  0.00    -0.090 HD
ENDBRANCH  18  19
BRANCH  18  24
ATOM     23  C   UNL     1      -1.591   0.554  -0.260  0.00  0.00    +0.002 C 
ATOM     24  C   UNL     1      -0.897  -0.799  -0.089  0.00  0.00    -0.018 C 
ENDBRANCH  18  24
ENDBRANCH   1  18
TORSDOF 7
