REMARK  Name = ZINC26492970
REMARK  5 active torsions:
REMARK  status: ('A' for Active; 'I' for Inactive)
REMARK    1  A    between atoms: C_1  and  C_2
REMARK    2  A    between atoms: C_2  and  C_3
REMARK    3  A    between atoms: C_2  and  C_4
REMARK    4  A    between atoms: C_2  and  N_5
REMARK    5  A    between atoms: N_8  and  C_9
REMARK                            x       y       z     vdW  Elec       q    Type
REMARK                         _______ _______ _______ _____ _____    ______ ____
ROOT
ATOM      1  N   UNL     1       0.598  -0.445  -1.146  0.00  0.00    -0.353 N 
ATOM      2  C   UNL     1       1.836  -0.237  -1.495  0.00  0.00    +0.174 C 
ATOM      3  N   UNL     1       2.643   0.563  -0.720  0.00  0.00    -0.371 N 
ATOM      4  N   UNL     1       2.336  -0.818  -2.638  0.00  0.00    -0.327 N 
ATOM      5  H   UNL     1       2.313   0.914   0.122  0.00  0.00    +0.159 HD
ATOM      6  H   UNL     1       3.542   0.775  -1.015  0.00  0.00    +0.159 HD
ATOM      7  H   UNL     1       1.748  -1.316  -3.226  0.00  0.00    +0.169 HD
ATOM      8  H   UNL     1       0.003  -0.933  -1.737  0.00  0.00    +0.163 HD
ENDROOT
BRANCH   4   9
ATOM      9  C   UNL     1       3.693  -0.688  -2.952  0.00  0.00    +0.055 A 
ATOM     10  C   UNL     1       4.095   0.177  -3.962  0.00  0.00    +0.027 A 
ATOM     11  C   UNL     1       5.435   0.302  -4.269  0.00  0.00    +0.002 A 
ATOM     12  C   UNL     1       6.378  -0.433  -3.574  0.00  0.00    +0.001 A 
ATOM     13  C   UNL     1       5.982  -1.296  -2.569  0.00  0.00    +0.016 A 
ATOM     14  C   UNL     1       4.643  -1.421  -2.251  0.00  0.00    +0.037 A 
ATOM     15  I   UNL     1       4.045  -2.721  -0.721  0.00  0.00    -0.042 I 
ENDBRANCH   4   9
BRANCH   1  17
ATOM     16  C   UNL     1       0.162   1.585   0.145  0.00  0.00    +0.033 C 
ATOM     17  C   UNL     1       0.104   0.057   0.139  0.00  0.00    +0.033 C 
ATOM     18  C   UNL     1       0.976  -0.492   1.270  0.00  0.00    +0.033 C 
ATOM     19  C   UNL     1      -1.342  -0.400   0.343  0.00  0.00    +0.033 C 
ENDBRANCH   1  17
TORSDOF 2
