REMARK  Name = ZINC05084775
REMARK  15 active torsions:
REMARK  status: ('A' for Active; 'I' for Inactive)
REMARK    1  A    between atoms: C_1  and  C_2
REMARK    2  A    between atoms: C_2  and  C_3
REMARK    3  A    between atoms: C_2  and  C_4
REMARK    4  A    between atoms: C_4  and  C_6
REMARK    5  A    between atoms: C_4  and  N_10
REMARK    6  A    between atoms: C_6  and  O_8
REMARK    7  A    between atoms: O_8  and  C_9
REMARK    8  A    between atoms: C_11  and  C_13
REMARK    9  A    between atoms: C_13  and  C_15
REMARK   10  A    between atoms: C_13  and  N_66
REMARK   11  A    between atoms: C_15  and  S_16
REMARK   12  A    between atoms: S_16  and  C_17
REMARK   13  A    between atoms: C_17  and  C_18
REMARK   14  A    between atoms: C_17  and  C_24
REMARK   15  A    between atoms: C_17  and  C_30
REMARK                            x       y       z     vdW  Elec       q    Type
REMARK                         _______ _______ _______ _____ _____    ______ ____
ROOT
ATOM      1  S   UNL     1       5.862   3.053   2.048  0.00  0.00    -0.141 S 
ENDROOT
BRANCH   1   2
ATOM      2  C   UNL     1       4.276   2.176   2.126  0.00  0.00    +0.063 C 
BRANCH   2   3
ATOM      3  C   UNL     1       4.432   0.785   1.508  0.00  0.00    +0.023 C 
BRANCH   3   5
ATOM      4  N   UNL     1       2.214   0.405   0.481  0.00  0.00    -0.304 N 
ATOM      5  C   UNL     1       3.088   0.104   1.461  0.00  0.00    +0.200 C 
ATOM      6  O   UNL     1       2.794  -0.716   2.305  0.00  0.00    -0.278 OA
ATOM      7  H   UNL     1       2.449   1.060  -0.195  0.00  0.00    +0.149 HD
BRANCH   4   8
ATOM      8  C   UNL     1       0.908  -0.258   0.435  0.00  0.00    +0.184 C 
BRANCH   8  10
ATOM      9  C   UNL     1      -1.438  -0.203   1.292  0.00  0.00    +0.009 C 
ATOM     10  C   UNL     1      -0.074   0.488   1.339  0.00  0.00    +0.014 C 
ATOM     11  C   UNL     1       0.450   0.483   2.777  0.00  0.00    +0.009 C 
ENDBRANCH   8  10
BRANCH   8  12
ATOM     12  C   UNL     1       0.391  -0.252  -0.981  0.00  0.00    +0.328 C 
ATOM     13  O   UNL     1       1.046   0.253  -1.861  0.00  0.00    -0.249 OA
BRANCH  12  14
ATOM     14  O   UNL     1      -0.797  -0.809  -1.264  0.00  0.00    -0.467 OA
ATOM     15  C   UNL     1      -1.232  -0.767  -2.648  0.00  0.00    +0.280 C 
ENDBRANCH  12  14
ENDBRANCH   8  12
ENDBRANCH   4   8
ENDBRANCH   3   5
BRANCH   3  18
ATOM     16  H   UNL     1       5.013  -0.114   3.267  0.00  0.00    -0.089 HD
ATOM     17  H   UNL     1       5.527  -0.913   1.902  0.00  0.00    -0.089 HD
ATOM     18  N   UNL     1       5.378   0.002   2.323  0.00  0.00    +0.386 N 
ATOM     19  H   UNL     1       6.275   0.500   2.369  0.00  0.00    -0.089 HD
ENDBRANCH   3  18
ENDBRANCH   2   3
ENDBRANCH   1   2
BRANCH   1  20
ATOM     20  C   UNL     1       5.486   4.701   2.706  0.00  0.00    +0.091 C 
BRANCH  20  21
ATOM     21  C   UNL     1       4.312   5.283   1.961  0.00  0.00    -0.023 A 
ATOM     22  C   UNL     1       3.185   5.685   2.653  0.00  0.00    +0.005 A 
ATOM     23  C   UNL     1       2.110   6.223   1.970  0.00  0.00    +0.000 A 
ATOM     24  C   UNL     1       2.159   6.351   0.594  0.00  0.00    +0.000 A 
ATOM     25  C   UNL     1       3.284   5.944  -0.098  0.00  0.00    +0.000 A 
ATOM     26  C   UNL     1       4.361   5.410   0.585  0.00  0.00    +0.005 A 
ENDBRANCH  20  21
BRANCH  20  27
ATOM     27  C   UNL     1       5.147   4.592   4.170  0.00  0.00    -0.023 A 
ATOM     28  C   UNL     1       4.913   5.734   4.913  0.00  0.00    +0.005 A 
ATOM     29  C   UNL     1       4.598   5.634   6.255  0.00  0.00    +0.000 A 
ATOM     30  C   UNL     1       4.526   4.391   6.857  0.00  0.00    +0.000 A 
ATOM     31  C   UNL     1       4.766   3.249   6.116  0.00  0.00    +0.000 A 
ATOM     32  C   UNL     1       5.076   3.349   4.773  0.00  0.00    +0.005 A 
ENDBRANCH  20  27
BRANCH  20  33
ATOM     33  C   UNL     1       6.685   5.597   2.533  0.00  0.00    -0.023 A 
ATOM     34  C   UNL     1       6.510   6.947   2.290  0.00  0.00    +0.005 A 
ATOM     35  C   UNL     1       7.610   7.769   2.136  0.00  0.00    +0.000 A 
ATOM     36  C   UNL     1       8.885   7.241   2.216  0.00  0.00    +0.000 A 
ATOM     37  C   UNL     1       9.060   5.890   2.454  0.00  0.00    +0.000 A 
ATOM     38  C   UNL     1       7.960   5.068   2.613  0.00  0.00    +0.005 A 
ENDBRANCH  20  33
ENDBRANCH   1  20
TORSDOF 12
