REMARK  Name = ZINC13272386
REMARK  8 active torsions:
REMARK  status: ('A' for Active; 'I' for Inactive)
REMARK    1  A    between atoms: C_1  and  C_2
REMARK    2  A    between atoms: C_5  and  N_8
REMARK    3  A    between atoms: C_9  and  C_27
REMARK    4  A    between atoms: C_12  and  S_13
REMARK    5  A    between atoms: S_13  and  C_14
REMARK    6  A    between atoms: C_14  and  C_15
REMARK    7  A    between atoms: N_17  and  C_18
REMARK    8  A    between atoms: C_23  and  C_24
REMARK                            x       y       z     vdW  Elec       q    Type
REMARK                         _______ _______ _______ _____ _____    ______ ____
ROOT
ATOM      1  N   UNL     1      -1.756  -2.474   0.279  0.00  0.00    -0.270 N 
ATOM      2  C   UNL     1      -1.685  -1.099   0.211  0.00  0.00    +0.169 A 
ATOM      3  N   UNL     1      -2.896  -0.664  -0.051  0.00  0.00    -0.128 NA
ATOM      4  N   UNL     1      -3.709  -1.655  -0.145  0.00  0.00    -0.122 NA
ATOM      5  C   UNL     1      -3.067  -2.787   0.051  0.00  0.00    +0.197 A 
ENDROOT
BRANCH   1  10
ATOM      6  C   UNL     1       2.503  -6.082   1.305  0.00  0.00    +0.044 C 
ATOM      7  C   UNL     1       1.372  -5.124   1.032  0.00  0.00    -0.050 A 
ATOM      8  C   UNL     1       0.361  -4.968   1.962  0.00  0.00    +0.005 A 
ATOM      9  C   UNL     1      -0.677  -4.091   1.716  0.00  0.00    +0.026 A 
ATOM     10  C   UNL     1      -0.704  -3.365   0.532  0.00  0.00    +0.051 A 
ATOM     11  C   UNL     1       0.309  -3.528  -0.402  0.00  0.00    +0.026 A 
ATOM     12  C   UNL     1       1.348  -4.403  -0.147  0.00  0.00    +0.005 A 
ENDBRANCH   1  10
BRANCH   2  13
ATOM     13  C   UNL     1      -0.475  -0.272   0.393  0.00  0.00    +0.022 A 
ATOM     14  C   UNL     1       0.667  -0.794   1.013  0.00  0.00    +0.031 A 
ATOM     15  C   UNL     1       1.775   0.013   1.161  0.00  0.00    +0.111 A 
ATOM     16  N   UNL     1       1.768   1.260   0.728  0.00  0.00    -0.263 NA
ATOM     17  C   UNL     1       0.714   1.791   0.139  0.00  0.00    +0.111 A 
ATOM     18  C   UNL     1      -0.437   1.056  -0.051  0.00  0.00    +0.031 A 
ENDBRANCH   2  13
BRANCH   5  19
ATOM     19  S   UNL     1      -3.766  -4.404   0.018  0.00  0.00    -0.076 S 
BRANCH  19  20
ATOM     20  C   UNL     1      -5.492  -3.993  -0.343  0.00  0.00    +0.173 C 
BRANCH  20  21
ATOM     21  C   UNL     1      -6.304  -5.260  -0.419  0.00  0.00    +0.228 C 
ATOM     22  O   UNL     1      -5.769  -6.335  -0.247  0.00  0.00    -0.275 OA
ATOM     23  N   UNL     1      -7.625  -5.199  -0.680  0.00  0.00    -0.284 N 
ATOM     24  H   UNL     1      -8.040  -4.347  -0.886  0.00  0.00    +0.155 HD
BRANCH  23  25
ATOM     25  C   UNL     1      -8.395  -6.360  -0.653  0.00  0.00    +0.048 A 
ATOM     26  C   UNL     1      -7.864  -7.559  -1.107  0.00  0.00    +0.025 A 
ATOM     27  C   UNL     1      -8.627  -8.709  -1.079  0.00  0.00    +0.022 A 
ATOM     28  C   UNL     1      -9.928  -8.676  -0.598  0.00  0.00    +0.042 A 
ATOM     29  C   UNL     1     -10.472  -7.493  -0.143  0.00  0.00    +0.037 A 
ATOM     30  C   UNL     1      -9.708  -6.323  -0.161  0.00  0.00    +0.086 A 
ATOM     31 CL   UNL     1     -10.875 -10.130  -0.569  0.00  0.00    -0.084 Cl
BRANCH  30  32
ATOM     32  C   UNL     1     -10.281  -5.057   0.329  0.00  0.00    +0.388 C 
ATOM     33  O   UNL     1      -9.646  -4.025   0.233  0.00  0.00    -0.241 OA
ATOM     34  O   UNL     1     -11.509  -5.043   0.884  0.00  0.00    -0.241 OA
ENDBRANCH  30  32
ENDBRANCH  23  25
ENDBRANCH  20  21
ENDBRANCH  19  20
ENDBRANCH   5  19
TORSDOF 7
