REMARK  Name = ZINC61812676
REMARK  5 active torsions:
REMARK  status: ('A' for Active; 'I' for Inactive)
REMARK    1  A    between atoms: C_1  and  C_2
REMARK    2  A    between atoms: C_7  and  N_8
REMARK    3  A    between atoms: N_8  and  C_9
REMARK    4  A    between atoms: C_13  and  C_15
REMARK    5  A    between atoms: C_15  and  N_17
REMARK                            x       y       z     vdW  Elec       q    Type
REMARK                         _______ _______ _______ _____ _____    ______ ____
ROOT
ATOM      1  C   UNL     1      -0.060  -0.718   3.615  0.00  0.00    +0.035 A 
ATOM      2  C   UNL     1       0.964  -1.577   4.014  0.00  0.00    +0.041 A 
ATOM      3  C   UNL     1       0.848  -2.258   5.211  0.00  0.00    +0.085 A 
ATOM      4  N   UNL     1      -0.212  -2.107   5.977  0.00  0.00    -0.359 N 
ATOM      5  C   UNL     1      -1.212  -1.299   5.638  0.00  0.00    +0.069 A 
ATOM      6  C   UNL     1      -1.167  -0.575   4.450  0.00  0.00    +0.051 A 
ATOM      7  H   UNL     1      -0.266  -2.598   6.811  0.00  0.00    +0.165 HD
ENDROOT
BRANCH   1   8
ATOM      8  N   UNL     1       0.025  -0.016   2.416  0.00  0.00    -0.314 N 
ATOM      9  H   UNL     1      -0.250   0.914   2.378  0.00  0.00    +0.152 HD
BRANCH   8  16
ATOM     10  C   UNL     1       0.462   1.567   0.092  0.00  0.00    +0.045 C 
ATOM     11  C   UNL     1       0.733   0.085   0.110  0.00  0.00    -0.029 A 
ATOM     12  C   UNL     1       1.213  -0.544  -1.022  0.00  0.00    +0.006 A 
ATOM     13  C   UNL     1       1.462  -1.904  -1.007  0.00  0.00    +0.015 A 
ATOM     14  C   UNL     1       1.232  -2.640   0.142  0.00  0.00    +0.020 A 
ATOM     15  C   UNL     1       0.751  -2.017   1.278  0.00  0.00    +0.038 A 
ATOM     16  C   UNL     1       0.505  -0.650   1.267  0.00  0.00    +0.035 A 
ATOM     17 BR   UNL     1       1.574  -4.500   0.158  0.00  0.00    -0.050 Br
ENDBRANCH   8  16
ENDBRANCH   1   8
BRANCH   5  18
ATOM     18  C   UNL     1      -2.381  -1.165   6.534  0.00  0.00    +0.093 C 
ATOM     19  S   UNL     1      -3.179   0.343   6.679  0.00  0.00    -0.034 S 
BRANCH  18  20
ATOM     20  N   UNL     1      -2.819  -2.229   7.235  0.00  0.00    -0.351 N 
ATOM     21  H   UNL     1      -2.366  -3.083   7.153  0.00  0.00    +0.143 HD
ATOM     22  H   UNL     1      -3.585  -2.141   7.823  0.00  0.00    +0.143 HD
ENDBRANCH  18  20
ENDBRANCH   5  18
TORSDOF 4
