REMARK  Name = ZINC09193203
REMARK  9 active torsions:
REMARK  status: ('A' for Active; 'I' for Inactive)
REMARK    1  A    between atoms: C_6  and  C_7
REMARK    2  A    between atoms: C_6  and  N_47
REMARK    3  A    between atoms: C_7  and  C_8
REMARK    4  A    between atoms: C_8  and  N_9
REMARK    5  A    between atoms: C_13  and  N_20
REMARK    6  A    between atoms: C_14  and  N_16
REMARK    7  A    between atoms: N_16  and  C_17
REMARK    8  A    between atoms: C_17  and  C_18
REMARK    9  A    between atoms: C_18  and  O_19
REMARK                            x       y       z     vdW  Elec       q    Type
REMARK                         _______ _______ _______ _____ _____    ______ ____
ROOT
ATOM      1  N   UNL     1       2.497  -0.635   3.859  0.00  0.00    -0.313 N 
ATOM      2  C   UNL     1       1.359   0.147   3.777  0.00  0.00    +0.219 A 
ATOM      3  N   UNL     1       0.772   0.551   4.893  0.00  0.00    -0.197 NA
ATOM      4  C   UNL     1      -0.324   1.305   4.853  0.00  0.00    +0.154 A 
ATOM      5  C   UNL     1      -0.852   1.667   3.617  0.00  0.00    +0.205 A 
ATOM      6  C   UNL     1      -0.208   1.223   2.466  0.00  0.00    +0.156 A 
ATOM      7  N   UNL     1       0.882   0.468   2.584  0.00  0.00    -0.197 NA
ATOM      8  N   UNL     1      -0.933   1.724   6.026  0.00  0.00    -0.341 N 
ATOM      9  H   UNL     1       2.937  -0.938   3.049  0.00  0.00    +0.149 HD
ATOM     10  H   UNL     1      -1.732   2.272   5.989  0.00  0.00    +0.144 HD
ATOM     11  H   UNL     1      -0.559   1.468   6.884  0.00  0.00    +0.144 HD
ENDROOT
BRANCH   5  12
ATOM     12  N   UNL     1      -2.070   2.504   3.529  0.00  0.00    +0.063 N 
ATOM     13  O   UNL     1      -3.168   1.980   3.493  0.00  0.00    -0.126 OA
ATOM     14  O   UNL     1      -1.973   3.718   3.492  0.00  0.00    -0.126 OA
ENDBRANCH   5  12
BRANCH   6  15
ATOM     15  N   UNL     1      -0.698   1.558   1.213  0.00  0.00    -0.325 N 
ATOM     16  H   UNL     1      -1.495   2.106   1.135  0.00  0.00    +0.148 HD
BRANCH  15  17
ATOM     17  C   UNL     1      -0.013   1.086   0.008  0.00  0.00    +0.130 C 
BRANCH  17  18
ATOM     18  C   UNL     1      -0.753   1.593  -1.232  0.00  0.00    +0.174 C 
BRANCH  18  19
ATOM     19  O   UNL     1      -0.672   3.018  -1.285  0.00  0.00    -0.393 OA
ATOM     20  H   UNL     1      -1.120   3.410  -2.047  0.00  0.00    +0.209 HD
ENDBRANCH  18  19
ENDBRANCH  17  18
ENDBRANCH  15  17
ENDBRANCH   6  15
BRANCH   1  21
ATOM     21  C   UNL     1       3.038  -1.006   5.169  0.00  0.00    +0.102 C 
BRANCH  21  22
ATOM     22  C   UNL     1       4.289  -1.866   4.980  0.00  0.00    +0.000 C 
BRANCH  22  23
ATOM     23  C   UNL     1       4.854  -2.253   6.348  0.00  0.00    -0.077 C 
BRANCH  23  29
ATOM     24  C   UNL     1       5.717  -4.373   5.555  0.00  0.00    -0.050 C 
ATOM     25  C   UNL     1       7.002  -5.176   5.329  0.00  0.00    +0.141 C 
ATOM     26  O   UNL     1       7.688  -5.327   6.574  0.00  0.00    -0.383 OA
ATOM     27  C   UNL     1       8.033  -4.086   7.196  0.00  0.00    +0.141 C 
ATOM     28  C   UNL     1       6.760  -3.273   7.441  0.00  0.00    -0.050 C 
ATOM     29  N   UNL     1       6.073  -3.067   6.149  0.00  0.00    +0.383 N 
ATOM     30  H   UNL     1       6.705  -2.571   5.510  0.00  0.00    -0.082 HD
ENDBRANCH  23  29
ENDBRANCH  22  23
ENDBRANCH  21  22
ENDBRANCH   1  21
TORSDOF 9
