REMARK  Name = ZINC01835945
REMARK  6 active torsions:
REMARK  status: ('A' for Active; 'I' for Inactive)
REMARK    1  A    between atoms: C_1  and  O_2
REMARK    2  A    between atoms: O_2  and  C_3
REMARK    3  A    between atoms: C_3  and  C_5
REMARK    4  A    between atoms: C_5  and  N_49
REMARK    5  A    between atoms: C_6  and  C_25
REMARK    6  A    between atoms: C_15  and  C_17
REMARK                            x       y       z     vdW  Elec       q    Type
REMARK                         _______ _______ _______ _____ _____    ______ ____
ROOT
ATOM      1  C   UNL     1      -0.083   0.102  -0.002  0.00  0.00    -0.001 C 
ATOM      2  C   UNL     1      -0.268  -0.461   1.382  0.00  0.00    -0.035 A 
ATOM      3  C   UNL     1       0.212   0.239   2.474  0.00  0.00    +0.019 A 
ATOM      4  C   UNL     1       0.051  -0.268   3.750  0.00  0.00    +0.018 A 
ATOM      5  C   UNL     1      -0.591  -1.479   3.943  0.00  0.00    +0.017 A 
ATOM      6  C   UNL     1      -1.073  -2.183   2.857  0.00  0.00    +0.024 A 
ATOM      7  C   UNL     1      -0.913  -1.675   1.576  0.00  0.00    +0.028 A 
ATOM      8  N   UNL     1      -1.407  -2.386   0.475  0.00  0.00    -0.353 N 
ATOM      9  C   UNL     1      -0.977  -1.972  -0.869  0.00  0.00    +0.049 C 
ATOM     10 BR   UNL     1       0.710   0.696   5.237  0.00  0.00    -0.050 Br
ATOM     11  H   UNL     1      -2.017  -3.131   0.596  0.00  0.00    +0.145 HD
ATOM     12  N   UNL     1      -1.067  -0.495  -0.926  0.00  0.00    +0.409 N 
ATOM     13  H   UNL     1      -2.010  -0.207  -0.642  0.00  0.00    -0.076 HD
ENDROOT
BRANCH   9  14
ATOM     14  C   UNL     1       0.437  -2.432  -1.115  0.00  0.00    -0.044 A 
ATOM     15  C   UNL     1       0.821  -2.841  -2.379  0.00  0.00    +0.004 A 
ATOM     16  C   UNL     1       2.119  -3.258  -2.606  0.00  0.00    +0.015 A 
ATOM     17  C   UNL     1       3.032  -3.275  -1.567  0.00  0.00    +0.018 A 
ATOM     18  C   UNL     1       2.646  -2.870  -0.301  0.00  0.00    +0.015 A 
ATOM     19  C   UNL     1       1.349  -2.448  -0.076  0.00  0.00    +0.004 A 
ATOM     20 BR   UNL     1       4.806  -3.852  -1.875  0.00  0.00    -0.050 Br
ENDBRANCH   9  14
BRANCH   1  21
ATOM     21  C   UNL     1      -0.297   1.594   0.035  0.00  0.00    -0.057 A 
ATOM     22  C   UNL     1      -1.580   2.108   0.032  0.00  0.00    +0.002 A 
ATOM     23  C   UNL     1      -1.777   3.476   0.070  0.00  0.00    +0.000 A 
ATOM     24  C   UNL     1      -0.690   4.329   0.101  0.00  0.00    +0.000 A 
ATOM     25  C   UNL     1       0.593   3.815   0.099  0.00  0.00    +0.000 A 
ATOM     26  C   UNL     1       0.790   2.447   0.065  0.00  0.00    +0.002 A 
ENDBRANCH   1  21
BRANCH  12  27
ATOM     27  C   UNL     1      -0.816  -0.026  -2.305  0.00  0.00    +0.048 C 
BRANCH  27  28
ATOM     28  C   UNL     1      -1.805  -0.681  -3.234  0.00  0.00    +0.290 C 
ATOM     29  O   UNL     1      -2.699  -1.359  -2.784  0.00  0.00    -0.253 OA
BRANCH  28  31
ATOM     30  C   UNL     1      -2.680  -1.175  -5.395  0.00  0.00    +0.280 C 
ATOM     31  O   UNL     1      -1.693  -0.513  -4.561  0.00  0.00    -0.469 OA
ENDBRANCH  28  31
ENDBRANCH  27  28
ENDBRANCH  12  27
TORSDOF 5
