REMARK  Name = ZINC43290517
REMARK  8 active torsions:
REMARK  status: ('A' for Active; 'I' for Inactive)
REMARK    1  A    between atoms: C_1  and  C_2
REMARK    2  A    between atoms: C_2  and  C_3
REMARK    3  A    between atoms: C_3  and  C_5
REMARK    4  A    between atoms: C_3  and  N_20
REMARK    5  A    between atoms: C_5  and  C_7
REMARK    6  A    between atoms: C_5  and  S_13
REMARK    7  A    between atoms: S_13  and  C_14
REMARK    8  A    between atoms: N_18  and  C_19
REMARK                            x       y       z     vdW  Elec       q    Type
REMARK                         _______ _______ _______ _____ _____    ______ ____
ROOT
ATOM      1  C   UNL     1       0.701  -1.813  -1.383  0.00  0.00    +0.076 C 
ENDROOT
BRANCH   1   2
ATOM      2  C   UNL     1      -0.741  -2.252  -1.374  0.00  0.00    +0.003 A 
ATOM      3  C   UNL     1      -1.390  -3.033  -0.476  0.00  0.00    +0.027 A 
ATOM      4  C   UNL     1      -2.731  -3.307  -0.671  0.00  0.00    +0.025 A 
ATOM      5  C   UNL     1      -3.357  -2.787  -1.756  0.00  0.00    +0.060 A 
ATOM      6  S   UNL     1      -2.039  -1.871  -2.538  0.00  0.00    -0.099 S 
ATOM      7 BR   UNL     1      -3.677  -4.393   0.554  0.00  0.00    -0.050 Br
ENDBRANCH   1   2
BRANCH   1   8
ATOM      8  C   UNL     1       0.769  -0.285  -1.327  0.00  0.00    -0.057 C 
BRANCH   8   9
ATOM      9  N   UNL     1      -0.001   0.198  -0.174  0.00  0.00    +0.381 N 
ATOM     10  H   UNL     1      -0.955  -0.122  -0.248  0.00  0.00    -0.090 HD
ATOM     11  H   UNL     1       0.408  -0.159   0.677  0.00  0.00    -0.090 HD
ATOM     12  H   UNL     1       0.015   1.207  -0.157  0.00  0.00    -0.090 HD
ENDBRANCH   8   9
BRANCH   8  14
ATOM     13  C   UNL     1       0.363   1.818  -2.613  0.00  0.00    +0.002 C 
ATOM     14  C   UNL     1       0.182   0.299  -2.614  0.00  0.00    -0.018 C 
ENDBRANCH   8  14
ENDBRANCH   1   8
BRANCH   1  15
ATOM     15  S   UNL     1       1.502  -2.399  -2.901  0.00  0.00    -0.079 S 
BRANCH  15  16
ATOM     16  C   UNL     1       3.201  -1.994  -2.671  0.00  0.00    +0.192 A 
ATOM     17  N   UNL     1       3.716  -1.337  -1.658  0.00  0.00    -0.123 NA
ATOM     18  N   UNL     1       4.987  -1.220  -1.814  0.00  0.00    -0.137 NA
ATOM     19  C   UNL     1       5.355  -1.791  -2.926  0.00  0.00    +0.225 A 
ATOM     20  N   UNL     1       4.232  -2.309  -3.509  0.00  0.00    -0.312 N 
ATOM     21  C   UNL     1       4.151  -3.047  -4.772  0.00  0.00    +0.152 C 
ENDBRANCH  15  16
ENDBRANCH   1  15
TORSDOF 6
