REMARK  Name = ZINC56937897
REMARK  9 active torsions:
REMARK  status: ('A' for Active; 'I' for Inactive)
REMARK    1  A    between atoms: C_1  and  N_2
REMARK    2  A    between atoms: N_2  and  C_3
REMARK    3  A    between atoms: N_2  and  C_4
REMARK    4  A    between atoms: C_4  and  C_6
REMARK    5  A    between atoms: C_4  and  C_22
REMARK    6  A    between atoms: C_6  and  N_7
REMARK    7  A    between atoms: N_10  and  N_11
REMARK    8  A    between atoms: C_12  and  C_14
REMARK    9  A    between atoms: C_14  and  C_15
REMARK                            x       y       z     vdW  Elec       q    Type
REMARK                         _______ _______ _______ _____ _____    ______ ____
ROOT
ATOM      1  N   UNL     1       1.876   1.579  -0.913  0.00  0.00    -0.299 N 
ATOM      2  C   UNL     1       2.994   2.327  -0.816  0.00  0.00    +0.316 C 
ATOM      3  O   UNL     1       4.084   1.815  -0.983  0.00  0.00    -0.251 OA
ATOM      4  N   UNL     1       2.902   3.642  -0.535  0.00  0.00    -0.218 N 
ATOM      5  H   UNL     1       1.007   1.988  -0.779  0.00  0.00    +0.150 HD
ATOM      6  H   UNL     1       3.707   4.180  -0.466  0.00  0.00    +0.174 HD
ENDROOT
BRANCH   4   7
ATOM      7  N   UNL     1       1.646   4.231  -0.343  0.00  0.00    -0.233 N 
ATOM      8  C   UNL     1       1.555   5.546  -0.062  0.00  0.00    +0.233 C 
ATOM      9  O   UNL     1       2.561   6.219   0.024  0.00  0.00    -0.274 OA
ATOM     10  H   UNL     1       0.842   3.693  -0.412  0.00  0.00    +0.173 HD
BRANCH   8  11
ATOM     11  C   UNL     1       0.204   6.181   0.144  0.00  0.00    +0.132 C 
BRANCH  11  12
ATOM     12  C   UNL     1       0.378   7.648   0.443  0.00  0.00    -0.038 A 
ATOM     13  C   UNL     1       0.527   8.074   1.749  0.00  0.00    +0.005 A 
ATOM     14  C   UNL     1       0.687   9.419   2.023  0.00  0.00    +0.020 A 
ATOM     15  C   UNL     1       0.698  10.339   0.990  0.00  0.00    +0.041 A 
ATOM     16  C   UNL     1       0.548   9.912  -0.317  0.00  0.00    +0.020 A 
ATOM     17  C   UNL     1       0.394   8.566  -0.591  0.00  0.00    +0.005 A 
ATOM     18 CL   UNL     1       0.898  12.029   1.334  0.00  0.00    -0.084 Cl
ENDBRANCH  11  12
ENDBRANCH   8  11
ENDBRANCH   4   7
BRANCH   1  19
ATOM     19  C   UNL     1       1.975   0.150  -1.218  0.00  0.00    +0.095 C 
BRANCH  19  20
ATOM     20  C   UNL     1       0.583  -0.482  -1.159  0.00  0.00    -0.021 C 
BRANCH  20  21
ATOM     21  C   UNL     1      -0.284   0.110  -2.240  0.00  0.00    -0.059 A 
ATOM     22  C   UNL     1      -0.175  -0.347  -3.540  0.00  0.00    +0.005 A 
ATOM     23  C   UNL     1      -0.970   0.195  -4.532  0.00  0.00    +0.038 A 
ATOM     24  C   UNL     1      -1.875   1.196  -4.224  0.00  0.00    +0.123 A 
ATOM     25  C   UNL     1      -1.983   1.653  -2.921  0.00  0.00    +0.038 A 
ATOM     26  C   UNL     1      -1.191   1.106  -1.930  0.00  0.00    +0.005 A 
ATOM     27  F   UNL     1      -2.652   1.727  -5.193  0.00  0.00    -0.205 F 
ENDBRANCH  20  21
BRANCH  20  29
ATOM     28  C   UNL     1       1.539  -2.510  -0.306  0.00  0.00    -0.096 C 
ATOM     29  N   UNL     1       0.695  -1.933  -1.361  0.00  0.00    +0.382 N 
ATOM     30  C   UNL     1      -0.642  -2.539  -1.305  0.00  0.00    -0.096 C 
ATOM     31  H   UNL     1       1.110  -2.116  -2.262  0.00  0.00    -0.082 HD
ENDBRANCH  20  29
ENDBRANCH  19  20
ENDBRANCH   1  19
TORSDOF 7
