REMARK  Name = ZINC57958275
REMARK  8 active torsions:
REMARK  status: ('A' for Active; 'I' for Inactive)
REMARK    1  A    between atoms: C_1  and  C_2
REMARK    2  A    between atoms: C_2  and  C_4
REMARK    3  A    between atoms: C_2  and  N_11
REMARK    4  A    between atoms: N_9  and  C_10
REMARK    5  A    between atoms: N_11  and  C_12
REMARK    6  A    between atoms: C_15  and  C_18
REMARK    7  A    between atoms: C_18  and  C_19
REMARK    8  A    between atoms: C_19  and  N_20
REMARK                            x       y       z     vdW  Elec       q    Type
REMARK                         _______ _______ _______ _____ _____    ______ ____
ROOT
ATOM      1  C   UNL     1      -2.036  -0.603  -1.224  0.00  0.00    +0.028 A 
ATOM      2  C   UNL     1      -1.396  -0.342  -2.430  0.00  0.00    +0.023 A 
ATOM      3  C   UNL     1      -2.084  -0.483  -3.619  0.00  0.00    +0.005 A 
ATOM      4  C   UNL     1      -3.408  -0.882  -3.611  0.00  0.00    -0.049 A 
ATOM      5  C   UNL     1      -4.048  -1.142  -2.413  0.00  0.00    +0.005 A 
ATOM      6  C   UNL     1      -3.364  -1.009  -1.220  0.00  0.00    +0.023 A 
ENDROOT
BRANCH   1   7
ATOM      7  N   UNL     1      -1.343  -0.462  -0.020  0.00  0.00    -0.333 N 
ATOM      8  H   UNL     1      -1.789  -0.648   0.821  0.00  0.00    +0.147 HD
BRANCH   7  10
ATOM      9  C   UNL     1       0.124   1.495  -0.073  0.00  0.00    +0.038 C 
ATOM     10  C   UNL     1       0.058  -0.033  -0.026  0.00  0.00    +0.154 C 
BRANCH  10  11
ATOM     11  C   UNL     1       0.741  -0.527   1.223  0.00  0.00    +0.240 C 
ATOM     12  O   UNL     1       0.118  -1.173   2.039  0.00  0.00    -0.273 OA
ATOM     13  N   UNL     1       2.043  -0.251   1.434  0.00  0.00    -0.239 N 
ATOM     14  C   UNL     1       2.653  -0.692   2.552  0.00  0.00    +0.306 C 
ATOM     15  O   UNL     1       2.029  -1.340   3.369  0.00  0.00    -0.252 OA
ATOM     16  N   UNL     1       3.955  -0.416   2.763  0.00  0.00    -0.302 N 
ATOM     17  C   UNL     1       4.618  -0.896   3.978  0.00  0.00    +0.129 C 
ATOM     18  H   UNL     1       2.541   0.266   0.782  0.00  0.00    +0.159 HD
ATOM     19  H   UNL     1       4.453   0.101   2.110  0.00  0.00    +0.150 HD
ENDBRANCH  10  11
ENDBRANCH   7  10
ENDBRANCH   1   7
BRANCH   4  20
ATOM     20  C   UNL     1      -4.156  -1.034  -4.910  0.00  0.00    +0.016 C 
BRANCH  20  21
ATOM     21  C   UNL     1      -3.993  -2.464  -5.428  0.00  0.00    -0.074 C 
BRANCH  21  22
ATOM     22  N   UNL     1      -4.826  -2.649  -6.625  0.00  0.00    +0.381 N 
ATOM     23  C   UNL     1      -4.815  -4.064  -7.003  0.00  0.00    -0.068 C 
ATOM     24  C   UNL     1      -5.948  -4.346  -7.997  0.00  0.00    +0.050 C 
ATOM     25  S   UNL     1      -5.651  -3.357  -9.496  0.00  0.00    -0.164 S 
ATOM     26  C   UNL     1      -5.351  -1.693  -8.822  0.00  0.00    +0.050 C 
ATOM     27  C   UNL     1      -4.307  -1.808  -7.705  0.00  0.00    -0.068 C 
ATOM     28  H   UNL     1      -5.773  -2.371  -6.415  0.00  0.00    -0.082 HD
ENDBRANCH  21  22
ENDBRANCH  20  21
ENDBRANCH   4  20
TORSDOF 6
