REMARK  Name = ZINC67129130
REMARK  7 active torsions:
REMARK  status: ('A' for Active; 'I' for Inactive)
REMARK    1  A    between atoms: C_1  and  C_2
REMARK    2  A    between atoms: C_2  and  C_4
REMARK    3  A    between atoms: C_2  and  N_7
REMARK    4  A    between atoms: C_8  and  C_10
REMARK    5  A    between atoms: C_10  and  N_11
REMARK    6  A    between atoms: C_13  and  O_21
REMARK    7  A    between atoms: C_16  and  C_18
REMARK                            x       y       z     vdW  Elec       q    Type
REMARK                         _______ _______ _______ _____ _____    ______ ____
ROOT
ATOM      1  N   UNL     1       4.226  -1.127   2.125  0.00  0.00    +0.395 N 
ATOM      2  C   UNL     1       4.749   0.251   1.998  0.00  0.00    -0.045 C 
ATOM      3  C   UNL     1       6.164   0.255   2.605  0.00  0.00    +0.097 C 
ATOM      4  C   UNL     1       6.392  -1.188   3.108  0.00  0.00    +0.023 C 
ATOM      5  C   UNL     1       4.950  -1.730   3.274  0.00  0.00    +0.022 C 
ATOM      6  H   UNL     1       4.414  -1.651   1.283  0.00  0.00    -0.080 HD
ENDROOT
BRANCH   5   7
ATOM      7  C   UNL     1       4.933  -3.234   3.184  0.00  0.00    +0.197 C 
ATOM      8  O   UNL     1       4.375  -3.780   2.256  0.00  0.00    -0.278 OA
ATOM      9  N   UNL     1       5.538  -3.973   4.135  0.00  0.00    -0.331 N 
ATOM     10  H   UNL     1       5.984  -3.537   4.877  0.00  0.00    +0.145 HD
ATOM     11  H   UNL     1       5.527  -4.941   4.077  0.00  0.00    +0.145 HD
ENDBRANCH   5   7
BRANCH   3  12
ATOM     12  O   UNL     1       7.130   0.594   1.609  0.00  0.00    -0.394 OA
ATOM     13  H   UNL     1       8.041   0.613   1.934  0.00  0.00    +0.210 HD
ENDBRANCH   3  12
BRANCH   1  14
ATOM     14  C   UNL     1       2.783  -1.099   2.395  0.00  0.00    +0.020 C 
BRANCH  14  16
ATOM     15  N   UNL     1       0.711  -0.489   1.189  0.00  0.00    -0.314 N 
ATOM     16  C   UNL     1       2.054  -0.600   1.174  0.00  0.00    +0.197 C 
ATOM     17  O   UNL     1       2.676  -0.297   0.177  0.00  0.00    -0.278 OA
ATOM     18  H   UNL     1       0.213  -0.731   1.986  0.00  0.00    +0.149 HD
BRANCH  15  20
ATOM     19  C   UNL     1      -0.019   1.526   0.010  0.00  0.00    +0.028 C 
ATOM     20  C   UNL     1       0.002  -0.004   0.002  0.00  0.00    +0.073 C 
BRANCH  20  21
ATOM     21  C   UNL     1      -1.433  -0.534   0.013  0.00  0.00    +0.009 C 
ATOM     22  C   UNL     1      -1.813  -1.567  -1.049  0.00  0.00    +0.005 C 
ATOM     23  C   UNL     1      -2.342  -0.135  -1.152  0.00  0.00    +0.005 C 
ENDBRANCH  20  21
ENDBRANCH  15  20
ENDBRANCH  14  16
ENDBRANCH   1  14
TORSDOF 6
