REMARK  Name = ZINC32913421
REMARK  8 active torsions:
REMARK  status: ('A' for Active; 'I' for Inactive)
REMARK    1  A    between atoms: C_1  and  C_2
REMARK    2  A    between atoms: C_7  and  N_8
REMARK    3  A    between atoms: C_9  and  C_11
REMARK    4  A    between atoms: C_11  and  N_12
REMARK    5  A    between atoms: N_12  and  C_13
REMARK    6  A    between atoms: N_12  and  C_14
REMARK    7  A    between atoms: C_14  and  C_15
REMARK    8  A    between atoms: N_17  and  C_18
REMARK                            x       y       z     vdW  Elec       q    Type
REMARK                         _______ _______ _______ _____ _____    ______ ____
ROOT
ATOM      1  N   UNL     1       3.341   7.436  -0.302  0.00  0.00    +0.389 N 
ATOM      2  C   UNL     1       2.628   7.755  -1.546  0.00  0.00    -0.095 C 
ATOM      3  H   UNL     1       2.686   7.701   0.541  0.00  0.00    -0.081 HD
ENDROOT
BRANCH   1   4
ATOM      4  C   UNL     1       3.630   5.998  -0.215  0.00  0.00    +0.019 C 
BRANCH   4   6
ATOM      5  N   UNL     1       2.356   3.889   0.001  0.00  0.00    -0.287 N 
ATOM      6  C   UNL     1       2.337   5.233  -0.093  0.00  0.00    +0.201 C 
ATOM      7  O   UNL     1       1.280   5.827  -0.081  0.00  0.00    -0.278 OA
ATOM      8  H   UNL     1       3.316   3.356   0.081  0.00  0.00    +0.155 HD
BRANCH   5  15
ATOM      9  C   UNL     1       2.321   1.325   1.235  0.00  0.00    +0.046 C 
ATOM     10  C   UNL     1       1.094   1.915   0.589  0.00  0.00    -0.028 A 
ATOM     11  C   UNL     1      -0.093   1.208   0.584  0.00  0.00    +0.020 A 
ATOM     12  C   UNL     1      -1.218   1.746  -0.015  0.00  0.00    +0.018 A 
ATOM     13  C   UNL     1      -1.161   2.999  -0.600  0.00  0.00    +0.017 A 
ATOM     14  C   UNL     1       0.023   3.710  -0.598  0.00  0.00    +0.024 A 
ATOM     15  C   UNL     1       1.155   3.170  -0.003  0.00  0.00    +0.036 A 
ATOM     16 BR   UNL     1      -2.838   0.772  -0.026  0.00  0.00    -0.050 Br
ENDBRANCH   5  15
ENDBRANCH   4   6
ENDBRANCH   1   4
BRANCH   1  17
ATOM     17  C   UNL     1       4.573   8.228  -0.183  0.00  0.00    +0.019 C 
BRANCH  17  18
ATOM     18  C   UNL     1       4.220   9.685  -0.029  0.00  0.00    +0.197 C 
ATOM     19  O   UNL     1       3.057  10.030  -0.020  0.00  0.00    -0.278 OA
ATOM     20  N   UNL     1       5.196  10.605   0.098  0.00  0.00    -0.306 N 
ATOM     21  H   UNL     1       6.251  10.293   0.089  0.00  0.00    +0.149 HD
BRANCH  20  22
ATOM     22  C   UNL     1       4.853  12.022   0.246  0.00  0.00    +0.159 C 
ATOM     23  C   UNL     1       6.022  12.887  -0.232  0.00  0.00    +0.032 C 
ATOM     24  C   UNL     1       5.534  14.258  -0.663  0.00  0.00    +0.004 C 
ATOM     25  C   UNL     1       4.990  15.101   0.476  0.00  0.00    +0.019 C 
ATOM     26  C   UNL     1       3.701  14.497   1.034  0.00  0.00    +0.104 C 
ATOM     27  N   UNL     1       4.053  13.499   2.058  0.00  0.00    -0.314 N 
ATOM     28  C   UNL     1       4.587  12.330   1.705  0.00  0.00    +0.233 C 
ATOM     29  O   UNL     1       4.866  11.512   2.556  0.00  0.00    -0.274 OA
ATOM     30  H   UNL     1       3.877  13.717   3.122  0.00  0.00    +0.149 HD
ENDBRANCH  20  22
ENDBRANCH  17  18
ENDBRANCH   1  17
TORSDOF 6
