REMARK  Name = ZINC35427429
REMARK  5 active torsions:
REMARK  status: ('A' for Active; 'I' for Inactive)
REMARK    1  A    between atoms: C_1  and  C_2
REMARK    2  A    between atoms: C_2  and  N_3
REMARK    3  A    between atoms: C_17  and  C_31
REMARK    4  A    between atoms: N_23  and  C_24
REMARK    5  A    between atoms: C_27  and  C_30
REMARK                            x       y       z     vdW  Elec       q    Type
REMARK                         _______ _______ _______ _____ _____    ______ ____
ROOT
ATOM      1  N   UNL     1      -0.323  -0.775  -1.825  0.00  0.00    +0.383 N 
ATOM      2  C   UNL     1      -0.441  -2.226  -2.023  0.00  0.00    -0.074 C 
ATOM      3  C   UNL     1       0.248  -2.643  -3.325  0.00  0.00    +0.018 C 
ATOM      4  C   UNL     1       1.671  -2.090  -3.304  0.00  0.00    -0.034 A 
ATOM      5  C   UNL     1       2.691  -2.564  -4.151  0.00  0.00    +0.004 A 
ATOM      6  C   UNL     1       3.910  -1.972  -4.029  0.00  0.00    +0.090 A 
ATOM      7  S   UNL     1       3.699  -0.778  -2.744  0.00  0.00    -0.077 S 
ATOM      8  C   UNL     1       1.983  -1.095  -2.429  0.00  0.00    -0.021 A 
ATOM      9  C   UNL     1       1.065  -0.443  -1.449  0.00  0.00    -0.035 C 
ATOM     10  N   UNL     1       5.015  -2.296  -4.807  0.00  0.00    -0.312 N 
ATOM     11  C   UNL     1       6.308  -2.520  -4.478  0.00  0.00    +0.092 A 
ATOM     12  C   UNL     1       6.972  -2.871  -5.603  0.00  0.00    +0.020 A 
ATOM     13  C   UNL     1       6.047  -2.842  -6.669  0.00  0.00    +0.025 A 
ATOM     14  C   UNL     1       4.863  -2.464  -6.164  0.00  0.00    +0.049 A 
ATOM     15  C   UNL     1       3.567  -2.200  -6.870  0.00  0.00    +0.155 C 
ATOM     16  N   UNL     1       2.543  -3.222  -6.544  0.00  0.00    -0.268 N 
ATOM     17  C   UNL     1       2.486  -3.684  -5.146  0.00  0.00    +0.148 C 
ATOM     18  C   UNL     1       1.704  -3.704  -7.482  0.00  0.00    +0.308 C 
ATOM     19  O   UNL     1       1.776  -3.302  -8.627  0.00  0.00    -0.252 OA
ATOM     20  N   UNL     1       0.785  -4.633  -7.151  0.00  0.00    -0.269 N 
ATOM     21  H   UNL     1       0.678  -4.901  -6.224  0.00  0.00    +0.156 HD
ATOM     22  H   UNL     1      -0.564  -0.298  -2.680  0.00  0.00    -0.081 HD
ENDROOT
BRANCH  20  23
ATOM     23  C   UNL     1      -0.015  -5.212  -8.143  0.00  0.00    +0.035 A 
ATOM     24  C   UNL     1      -1.324  -5.575  -7.857  0.00  0.00    +0.023 A 
ATOM     25  C   UNL     1      -2.111  -6.145  -8.838  0.00  0.00    +0.005 A 
ATOM     26  C   UNL     1      -1.596  -6.354 -10.105  0.00  0.00    -0.050 A 
ATOM     27  C   UNL     1      -0.293  -5.994 -10.392  0.00  0.00    +0.005 A 
ATOM     28  C   UNL     1       0.498  -5.418  -9.417  0.00  0.00    +0.023 A 
ATOM     29  C   UNL     1      -2.458  -6.977 -11.173  0.00  0.00    +0.044 C 
ENDBRANCH  20  23
BRANCH  15  30
ATOM     30  C   UNL     1       3.052  -0.844  -6.460  0.00  0.00    -0.021 A 
ATOM     31  C   UNL     1       3.942   0.175  -6.172  0.00  0.00    +0.006 A 
ATOM     32  C   UNL     1       3.470   1.418  -5.795  0.00  0.00    +0.000 A 
ATOM     33  C   UNL     1       2.109   1.644  -5.707  0.00  0.00    +0.000 A 
ATOM     34  C   UNL     1       1.220   0.625  -5.996  0.00  0.00    +0.000 A 
ATOM     35  C   UNL     1       1.691  -0.617  -6.377  0.00  0.00    +0.006 A 
ENDBRANCH  15  30
BRANCH   1  37
ATOM     36  C   UNL     1      -1.203   1.173  -0.630  0.00  0.00    -0.017 C 
ATOM     37  C   UNL     1      -1.235  -0.351  -0.754  0.00  0.00    -0.082 C 
ENDBRANCH   1  37
TORSDOF 3
