REMARK  Name = ZINC37361436
REMARK  5 active torsions:
REMARK  status: ('A' for Active; 'I' for Inactive)
REMARK    1  A    between atoms: C_1  and  O_2
REMARK    2  A    between atoms: O_2  and  C_3
REMARK    3  A    between atoms: C_6  and  N_9
REMARK    4  A    between atoms: C_10  and  N_38
REMARK    5  A    between atoms: C_12  and  C_30
REMARK                            x       y       z     vdW  Elec       q    Type
REMARK                         _______ _______ _______ _____ _____    ______ ____
ROOT
ATOM      1  N   UNL     1       2.530  -2.164   4.500  0.00  0.00    -0.216 N 
ATOM      2  C   UNL     1       2.125  -3.375   4.928  0.00  0.00    +0.131 A 
ATOM      3  C   UNL     1       3.064  -3.830   5.845  0.00  0.00    +0.086 A 
ATOM      4  C   UNL     1       3.228  -4.989   6.637  0.00  0.00    +0.091 A 
ATOM      5  N   UNL     1       4.295  -5.068   7.423  0.00  0.00    -0.213 NA
ATOM      6  C   UNL     1       5.201  -4.097   7.484  0.00  0.00    +0.220 A 
ATOM      7  N   UNL     1       5.127  -2.985   6.782  0.00  0.00    -0.193 NA
ATOM      8  C   UNL     1       4.093  -2.778   5.944  0.00  0.00    +0.189 A 
ATOM      9  N   UNL     1       3.733  -1.816   5.123  0.00  0.00    -0.144 NA
ATOM     10  N   UNL     1       6.281  -4.264   8.332  0.00  0.00    -0.297 N 
ATOM     11  C   UNL     1       6.419  -5.487   9.136  0.00  0.00    +0.127 C 
ATOM     12  C   UNL     1       7.787  -6.116   8.841  0.00  0.00    +0.125 C 
ATOM     13  N   UNL     1       8.817  -5.074   8.953  0.00  0.00    -0.314 N 
ATOM     14  C   UNL     1       8.679  -3.852   8.150  0.00  0.00    +0.125 C 
ATOM     15  C   UNL     1       7.315  -3.225   8.441  0.00  0.00    +0.127 C 
ATOM     16  C   UNL     1       9.902  -5.242   9.805  0.00  0.00    +0.099 A 
ATOM     17  C   UNL     1      10.088  -6.459  10.454  0.00  0.00    +0.042 A 
ATOM     18  C   UNL     1      11.172  -6.612  11.299  0.00  0.00    +0.005 A 
ATOM     19  C   UNL     1      12.038  -5.540  11.468  0.00  0.00    +0.018 A 
ATOM     20  C   UNL     1      11.793  -4.361  10.793  0.00  0.00    +0.084 A 
ATOM     21  N   UNL     1      10.753  -4.245   9.989  0.00  0.00    -0.350 N 
ATOM     22  H   UNL     1      10.607  -3.406   9.523  0.00  0.00    +0.166 HD
ENDROOT
BRANCH   4  23
ATOM     23  C   UNL     1       2.236  -6.085   6.591  0.00  0.00    +0.039 A 
ATOM     24  C   UNL     1       1.945  -6.718   5.381  0.00  0.00    +0.013 A 
ATOM     25  C   UNL     1       1.020  -7.739   5.343  0.00  0.00    +0.004 A 
ATOM     26  C   UNL     1       0.378  -8.141   6.502  0.00  0.00    +0.041 A 
ATOM     27  C   UNL     1       0.658  -7.520   7.707  0.00  0.00    +0.159 A 
ATOM     28  C   UNL     1       1.590  -6.497   7.760  0.00  0.00    +0.168 A 
ATOM     29  F   UNL     1       1.869  -5.894   8.936  0.00  0.00    -0.202 F 
ATOM     30  F   UNL     1       0.027  -7.917   8.833  0.00  0.00    -0.202 F 
ENDBRANCH   4  23
BRANCH   1  34
ATOM     31  C   UNL     1       0.506   0.192   1.716  0.00  0.00    +0.120 A 
ATOM     32  C   UNL     1       1.190   0.790   2.765  0.00  0.00    +0.048 A 
ATOM     33  C   UNL     1       1.859   0.011   3.687  0.00  0.00    +0.031 A 
ATOM     34  C   UNL     1       1.849  -1.372   3.565  0.00  0.00    +0.068 A 
ATOM     35  C   UNL     1       1.165  -1.971   2.515  0.00  0.00    +0.031 A 
ATOM     36  C   UNL     1       0.491  -1.191   1.597  0.00  0.00    +0.048 A 
BRANCH  31  38
ATOM     37  C   UNL     1      -0.096   2.375   0.993  0.00  0.00    +0.277 C 
ATOM     38  O   UNL     1      -0.153   0.960   0.809  0.00  0.00    -0.495 OA
ENDBRANCH  31  38
ENDBRANCH   1  34
BRANCH   2  39
ATOM     39  N   UNL     1       0.983  -4.045   4.528  0.00  0.00    -0.342 N 
ATOM     40  H   UNL     1       0.358  -3.617   3.922  0.00  0.00    +0.144 HD
ATOM     41  H   UNL     1       0.807  -4.941   4.853  0.00  0.00    +0.144 HD
ENDBRANCH   2  39
TORSDOF 4
