REMARK  Name = ZINC14984394
REMARK  9 active torsions:
REMARK  status: ('A' for Active; 'I' for Inactive)
REMARK    1  A    between atoms: C_1  and  C_2
REMARK    2  A    between atoms: C_2  and  O_3
REMARK    3  A    between atoms: O_3  and  C_4
REMARK    4  A    between atoms: C_4  and  C_6
REMARK    5  A    between atoms: C_12  and  N_66
REMARK    6  A    between atoms: N_15  and  C_18
REMARK    7  A    between atoms: C_22  and  N_24
REMARK    8  A    between atoms: N_24  and  S_25
REMARK    9  A    between atoms: S_25  and  C_28
REMARK                            x       y       z     vdW  Elec       q    Type
REMARK                         _______ _______ _______ _____ _____    ______ ____
ROOT
ATOM      1  C   UNL     1       0.756   6.462  -0.847  0.00  0.00    -0.066 C 
ATOM      2  C   UNL     1       1.655   5.931   0.273  0.00  0.00    +0.004 C 
ATOM      3  C   UNL     1       1.882   4.431   0.071  0.00  0.00    +0.103 C 
ATOM      4  N   UNL     1       0.590   3.734   0.085  0.00  0.00    -0.330 N 
ATOM      5  C   UNL     1      -0.273   4.193  -1.011  0.00  0.00    +0.103 C 
ATOM      6  C   UNL     1      -0.564   5.686  -0.842  0.00  0.00    +0.004 C 
ENDROOT
BRANCH   1  12
ATOM      7  C   UNL     1      -0.659   9.905  -1.415  0.00  0.00    +0.081 C 
ATOM      8  C   UNL     1       0.611  10.723  -1.169  0.00  0.00    +0.011 C 
ATOM      9  C   UNL     1       1.411  10.080  -0.032  0.00  0.00    -0.018 C 
ATOM     10  C   UNL     1       1.736   8.630  -0.401  0.00  0.00    -0.078 C 
ATOM     11  C   UNL     1      -0.274   8.461  -1.744  0.00  0.00    -0.064 C 
ATOM     12  N   UNL     1       0.472   7.891  -0.601  0.00  0.00    +0.382 N 
ATOM     13  H   UNL     1      -0.102   7.976   0.246  0.00  0.00    -0.081 HD
BRANCH   7  14
ATOM     14  C   UNL     1      -1.422  10.498  -2.572  0.00  0.00    +0.308 C 
ATOM     15  O   UNL     1      -1.637   9.833  -3.558  0.00  0.00    -0.251 OA
BRANCH  14  16
ATOM     16  O   UNL     1      -1.864  11.763  -2.506  0.00  0.00    -0.465 OA
BRANCH  16  18
ATOM     17  C   UNL     1      -3.012  13.716  -3.399  0.00  0.00    +0.048 C 
ATOM     18  C   UNL     1      -2.592  12.268  -3.657  0.00  0.00    +0.229 C 
ENDBRANCH  16  18
ENDBRANCH  14  16
ENDBRANCH   7  14
ENDBRANCH   1  12
BRANCH   4  19
ATOM     19  C   UNL     1       0.768   2.349   0.034  0.00  0.00    +0.031 A 
ATOM     20  C   UNL     1       2.050   1.814  -0.019  0.00  0.00    +0.023 A 
ATOM     21  C   UNL     1       2.228   0.445  -0.070  0.00  0.00    +0.004 A 
ATOM     22  C   UNL     1       1.132  -0.397  -0.066  0.00  0.00    +0.024 A 
ATOM     23  C   UNL     1      -0.152   0.131  -0.013  0.00  0.00    +0.050 A 
ATOM     24  C   UNL     1      -0.334   1.506   0.037  0.00  0.00    +0.047 A 
BRANCH  23  25
ATOM     25  N   UNL     1      -1.259  -0.721  -0.009  0.00  0.00    -0.216 N 
ATOM     26  H   UNL     1      -1.802  -0.814  -0.808  0.00  0.00    +0.174 HD
BRANCH  25  27
ATOM     27  S   UNL     1      -1.644  -1.572   1.358  0.00  0.00    +0.072 S 
ATOM     28  O   UNL     1      -2.834  -2.292   1.066  0.00  0.00    -0.150 OA
ATOM     29  O   UNL     1      -0.451  -2.214   1.786  0.00  0.00    -0.150 OA
BRANCH  27  30
ATOM     30  C   UNL     1      -2.059  -0.398   2.604  0.00  0.00    +0.109 A 
ATOM     31  C   UNL     1      -1.068   0.138   3.406  0.00  0.00    +0.031 A 
ATOM     32  C   UNL     1      -1.392   1.063   4.380  0.00  0.00    +0.040 A 
ATOM     33  C   UNL     1      -2.711   1.446   4.560  0.00  0.00    +0.124 A 
ATOM     34  C   UNL     1      -3.703   0.905   3.759  0.00  0.00    +0.040 A 
ATOM     35  C   UNL     1      -3.376  -0.016   2.782  0.00  0.00    +0.031 A 
ATOM     36  F   UNL     1      -3.029   2.346   5.515  0.00  0.00    -0.205 F 
ENDBRANCH  27  30
ENDBRANCH  25  27
ENDBRANCH  23  25
ENDBRANCH   4  19
TORSDOF 8
