REMARK  Name = ZINC36643644
REMARK  10 active torsions:
REMARK  status: ('A' for Active; 'I' for Inactive)
REMARK    1  A    between atoms: C_1  and  C_2
REMARK    2  A    between atoms: C_7  and  C_8
REMARK    3  A    between atoms: N_12  and  C_13
REMARK    4  A    between atoms: C_13  and  C_14
REMARK    5  A    between atoms: C_14  and  C_15
REMARK    6  A    between atoms: C_15  and  N_16
REMARK    7  A    between atoms: N_16  and  C_17
REMARK    8  A    between atoms: N_16  and  C_18
REMARK    9  A    between atoms: C_19  and  C_21
REMARK   10  A    between atoms: C_23  and  C_31
REMARK                            x       y       z     vdW  Elec       q    Type
REMARK                         _______ _______ _______ _____ _____    ______ ____
ROOT
ATOM      1  C   UNL     1      -0.205   1.956   0.882  0.00  0.00    +0.044 C 
ATOM      2  C   UNL     1      -0.110   0.470   0.651  0.00  0.00    -0.045 A 
ATOM      3  C   UNL     1      -0.060  -0.012  -0.650  0.00  0.00    +0.005 A 
ATOM      4  C   UNL     1       0.028  -1.375  -0.864  0.00  0.00    +0.017 A 
ATOM      5  C   UNL     1       0.064  -2.229   0.210  0.00  0.00    +0.041 A 
ATOM      6  C   UNL     1       0.015  -1.774   1.548  0.00  0.00    +0.083 A 
ATOM      7  C   UNL     1      -0.069  -0.374   1.729  0.00  0.00    -0.021 A 
ATOM      8  C   UNL     1      -0.119   0.195   3.123  0.00  0.00    +0.046 C 
ATOM      9  N   UNL     1       0.059  -2.736   2.495  0.00  0.00    -0.224 NA
ATOM     10  C   UNL     1       0.143  -4.013   2.200  0.00  0.00    +0.168 A 
ATOM     11  S   UNL     1       0.170  -3.991   0.413  0.00  0.00    -0.052 S 
ATOM     12  N   UNL     1       0.197  -5.100   3.056  0.00  0.00    -0.246 N 
ATOM     13  C   UNL     1       0.165  -4.910   4.389  0.00  0.00    +0.253 C 
ATOM     14  O   UNL     1       0.004  -3.793   4.840  0.00  0.00    -0.270 OA
ENDROOT
BRANCH  13  15
ATOM     15  C   UNL     1       0.326  -6.060   5.304  0.00  0.00    +0.048 A 
ATOM     16  C   UNL     1      -0.542  -7.141   5.263  0.00  0.00    +0.042 A 
ATOM     17  C   UNL     1      -0.351  -8.213   6.152  0.00  0.00    +0.079 A 
ATOM     18  N   UNL     1       0.632  -8.230   7.032  0.00  0.00    -0.246 NA
ATOM     19  C   UNL     1       1.511  -7.233   7.139  0.00  0.00    +0.072 A 
ATOM     20  C   UNL     1       1.412  -6.106   6.285  0.00  0.00    +0.013 A 
ATOM     21  C   UNL     1       2.340  -5.065   6.397  0.00  0.00    +0.011 A 
ATOM     22  C   UNL     1       3.336  -5.147   7.324  0.00  0.00    +0.001 A 
ATOM     23  C   UNL     1       3.442  -6.255   8.162  0.00  0.00    +0.002 A 
ATOM     24  C   UNL     1       2.549  -7.279   8.088  0.00  0.00    +0.028 A 
BRANCH  17  25
ATOM     25  C   UNL     1      -1.281  -9.357   6.099  0.00  0.00    +0.038 A 
ATOM     26  C   UNL     1      -1.351 -10.452   6.921  0.00  0.00    +0.017 A 
ATOM     27  C   UNL     1      -2.314 -11.403   6.674  0.00  0.00    +0.008 A 
ATOM     28  C   UNL     1      -3.164 -11.230   5.628  0.00  0.00    +0.046 A 
ATOM     29  S   UNL     1      -2.613  -9.672   4.952  0.00  0.00    -0.095 S 
ENDBRANCH  17  25
ENDBRANCH  13  15
BRANCH  12  30
ATOM     30  C   UNL     1       0.289  -6.457   2.511  0.00  0.00    +0.114 C 
BRANCH  30  31
ATOM     31  C   UNL     1       1.757  -6.804   2.252  0.00  0.00    +0.001 C 
BRANCH  31  32
ATOM     32  C   UNL     1       1.845  -8.170   1.569  0.00  0.00    -0.078 C 
BRANCH  32  33
ATOM     33  N   UNL     1       3.245  -8.457   1.228  0.00  0.00    +0.376 N 
ATOM     34  C   UNL     1       3.346  -9.817   0.682  0.00  0.00    -0.097 C 
ATOM     35  C   UNL     1       3.712  -7.491   0.224  0.00  0.00    -0.097 C 
ATOM     36  H   UNL     1       3.815  -8.384   2.056  0.00  0.00    -0.083 HD
ENDBRANCH  32  33
ENDBRANCH  31  32
ENDBRANCH  30  31
ENDBRANCH  12  30
TORSDOF 6
