REMARK  Name = ZINC64539535
REMARK  13 active torsions:
REMARK  status: ('A' for Active; 'I' for Inactive)
REMARK    1  A    between atoms: C_1  and  C_2
REMARK    2  A    between atoms: C_2  and  O_3
REMARK    3  A    between atoms: O_3  and  C_4
REMARK    4  A    between atoms: C_5  and  C_22
REMARK    5  A    between atoms: C_6  and  C_21
REMARK    6  A    between atoms: C_8  and  C_20
REMARK    7  A    between atoms: N_10  and  C_13
REMARK    8  A    between atoms: C_17  and  C_19
REMARK    9  A    between atoms: C_22  and  C_23
REMARK   10  A    between atoms: C_23  and  C_24
REMARK   11  A    between atoms: N_26  and  C_27
REMARK   12  A    between atoms: C_27  and  C_28
REMARK   13  A    between atoms: C_28  and  C_29
REMARK                            x       y       z     vdW  Elec       q    Type
REMARK                         _______ _______ _______ _____ _____    ______ ____
ROOT
ATOM      1  C   UNL     1       1.040  -1.822  -1.172  0.00  0.00    +0.220 A 
ATOM      2  C   UNL     1       1.763  -2.328  -2.252  0.00  0.00    +0.018 A 
ATOM      3  C   UNL     1       1.918  -3.680  -2.388  0.00  0.00    -0.030 A 
ATOM      4  C   UNL     1       1.334  -4.514  -1.424  0.00  0.00    +0.045 A 
ATOM      5  C   UNL     1       1.280  -5.959  -1.231  0.00  0.00    +0.070 A 
ATOM      6  N   UNL     1       0.590  -6.188  -0.149  0.00  0.00    -0.169 NA
ATOM      7  N   UNL     1       0.167  -4.981   0.414  0.00  0.00    -0.214 N 
ATOM      8  C   UNL     1       0.616  -3.941  -0.358  0.00  0.00    +0.167 A 
ATOM      9  N   UNL     1       0.501  -2.621  -0.270  0.00  0.00    -0.193 NA
ATOM     10  C   UNL     1       1.907  -7.000  -2.122  0.00  0.00    +0.068 C 
ATOM     11  C   UNL     1       2.693  -4.257  -3.543  0.00  0.00    +0.045 C 
ENDROOT
BRANCH   7  12
ATOM     12  C   UNL     1      -0.596  -4.853   1.582  0.00  0.00    +0.068 A 
ATOM     13  C   UNL     1      -0.386  -3.779   2.437  0.00  0.00    +0.028 A 
ATOM     14  C   UNL     1      -1.139  -3.657   3.588  0.00  0.00    +0.002 A 
ATOM     15  C   UNL     1      -2.102  -4.603   3.890  0.00  0.00    +0.003 A 
ATOM     16  C   UNL     1      -2.313  -5.673   3.041  0.00  0.00    -0.048 A 
ATOM     17  C   UNL     1      -1.567  -5.798   1.885  0.00  0.00    +0.031 A 
ATOM     18  C   UNL     1      -3.363  -6.702   3.374  0.00  0.00    +0.044 C 
ENDBRANCH   7  12
BRANCH   1  19
ATOM     19  O   UNL     1       0.891  -0.480  -1.043  0.00  0.00    -0.476 OA
BRANCH  19  21
ATOM     20  C   UNL     1       0.086   1.513   0.061  0.00  0.00    +0.048 C 
ATOM     21  C   UNL     1       0.146  -0.015   0.085  0.00  0.00    +0.227 C 
ENDBRANCH  19  21
ENDBRANCH   1  19
BRANCH   2  22
ATOM     22  C   UNL     1       2.372  -1.390  -3.262  0.00  0.00    +0.050 C 
BRANCH  22  23
ATOM     23  C   UNL     1       3.787  -1.013  -2.821  0.00  0.00    +0.100 C 
BRANCH  23  24
ATOM     24  C   UNL     1       4.395  -0.075  -3.832  0.00  0.00    +0.213 C 
ATOM     25  O   UNL     1       3.759   0.259  -4.809  0.00  0.00    -0.276 OA
ATOM     26  N   UNL     1       5.646   0.393  -3.650  0.00  0.00    -0.315 N 
ATOM     27  H   UNL     1       6.155   0.126  -2.869  0.00  0.00    +0.149 HD
BRANCH  26  28
ATOM     28  C   UNL     1       6.237   1.304  -4.633  0.00  0.00    +0.108 C 
BRANCH  28  29
ATOM     29  C   UNL     1       7.653   1.681  -4.192  0.00  0.00    +0.052 C 
BRANCH  29  30
ATOM     30  C   UNL     1       8.261   2.619  -5.202  0.00  0.00    -0.040 C 
ATOM     31  C   UNL     1       8.280   3.971  -5.150  0.00  0.00    -0.001 A 
ATOM     32  C   UNL     1       7.758   4.935  -4.174  0.00  0.00    +0.010 A 
ATOM     33  C   UNL     1       7.933   6.257  -4.400  0.00  0.00    +0.001 A 
ATOM     34  C   UNL     1       8.598   6.728  -5.540  0.00  0.00    +0.002 A 
ATOM     35  C   UNL     1       9.105   5.904  -6.481  0.00  0.00    +0.026 A 
ATOM     36  C   UNL     1       8.979   4.494  -6.345  0.00  0.00    +0.043 A 
ATOM     37  N   UNL     1       9.377   3.504  -7.107  0.00  0.00    -0.380 N 
ATOM     38  C   UNL     1       8.980   2.240  -6.478  0.00  0.00    +0.144 C 
ATOM     39  H   UNL     1       9.857   3.593  -7.946  0.00  0.00    +0.160 HD
ENDBRANCH  29  30
ENDBRANCH  28  29
ENDBRANCH  26  28
ENDBRANCH  23  24
ENDBRANCH  22  23
ENDBRANCH   2  22
TORSDOF 9
