REMARK  Name = ZINC38558296
REMARK  9 active torsions:
REMARK  status: ('A' for Active; 'I' for Inactive)
REMARK    1  A    between atoms: C_1  and  O_2
REMARK    2  A    between atoms: O_2  and  C_3
REMARK    3  A    between atoms: C_6  and  C_11
REMARK    4  A    between atoms: C_8  and  O_9
REMARK    5  A    between atoms: O_9  and  C_10
REMARK    6  A    between atoms: C_11  and  C_12
REMARK    7  A    between atoms: C_12  and  N_13
REMARK    8  A    between atoms: C_14  and  C_16
REMARK    9  A    between atoms: C_28  and  C_30
REMARK                            x       y       z     vdW  Elec       q    Type
REMARK                         _______ _______ _______ _____ _____    ______ ____
ROOT
ATOM      1  C   UNL     1      -8.651  -4.551  -2.545  0.00  0.00    +0.126 C 
ATOM      2  C   UNL     1      -9.269  -4.856  -3.759  0.00  0.00    +0.039 C 
ATOM      3  C   UNL     1     -10.398  -5.660  -3.682  0.00  0.00    -0.008 C 
ATOM      4  C   UNL     1     -11.446  -5.923  -4.523  0.00  0.00    +0.004 A 
ATOM      5  C   UNL     1     -11.642  -5.671  -5.900  0.00  0.00    +0.010 A 
ATOM      6  C   UNL     1     -12.850  -6.026  -6.426  0.00  0.00    +0.001 A 
ATOM      7  C   UNL     1     -13.871  -6.613  -5.678  0.00  0.00    +0.002 A 
ATOM      8  C   UNL     1     -13.756  -6.909  -4.354  0.00  0.00    +0.026 A 
ATOM      9  C   UNL     1     -12.517  -6.590  -3.729  0.00  0.00    +0.044 A 
ATOM     10  N   UNL     1     -12.113  -6.815  -2.503  0.00  0.00    -0.372 N 
ATOM     11  C   UNL     1     -10.719  -6.443  -2.419  0.00  0.00    +0.160 C 
ATOM     12  C   UNL     1     -10.250  -5.669  -1.239  0.00  0.00    +0.076 C 
ATOM     13  N   UNL     1      -9.227  -4.858  -1.373  0.00  0.00    -0.244 NA
ATOM     14  H   UNL     1     -12.654  -7.169  -1.780  0.00  0.00    +0.161 HD
ENDROOT
BRANCH  12  15
ATOM     15  C   UNL     1     -10.920  -5.815   0.060  0.00  0.00    +0.000 A 
ATOM     16  C   UNL     1     -11.600  -6.999   0.372  0.00  0.00    +0.010 A 
ATOM     17  C   UNL     1     -12.226  -7.128   1.594  0.00  0.00    +0.002 A 
ATOM     18  C   UNL     1     -12.184  -6.092   2.511  0.00  0.00    +0.020 A 
ATOM     19  C   UNL     1     -11.513  -4.918   2.211  0.00  0.00    +0.042 A 
ATOM     20  C   UNL     1     -10.877  -4.774   0.996  0.00  0.00    +0.029 A 
ATOM     21 CL   UNL     1     -11.468  -3.626   3.370  0.00  0.00    -0.084 Cl
ENDBRANCH  12  15
BRANCH   1  23
ATOM     22  N   UNL     1      -6.720  -3.586  -1.387  0.00  0.00    -0.310 N 
ATOM     23  C   UNL     1      -7.331  -3.882  -2.551  0.00  0.00    +0.262 C 
ATOM     24  O   UNL     1      -6.798  -3.599  -3.606  0.00  0.00    -0.269 OA
ATOM     25  H   UNL     1      -7.145  -3.812  -0.545  0.00  0.00    +0.149 HD
BRANCH  22  26
ATOM     26  C   UNL     1      -5.413  -2.924  -1.393  0.00  0.00    +0.109 C 
BRANCH  26  27
ATOM     27  C   UNL     1      -4.946  -2.705   0.048  0.00  0.00    +0.054 C 
BRANCH  27  31
ATOM     28  C   UNL     1      -1.134  -0.765   0.030  0.00  0.00    +0.161 A 
ATOM     29  C   UNL     1      -2.298  -0.013   0.046  0.00  0.00    +0.049 A 
ATOM     30  C   UNL     1      -3.528  -0.643   0.052  0.00  0.00    +0.007 A 
ATOM     31  C   UNL     1      -3.602  -2.023   0.041  0.00  0.00    -0.042 A 
ATOM     32  C   UNL     1      -2.445  -2.780   0.026  0.00  0.00    +0.053 A 
ATOM     33  C   UNL     1      -1.208  -2.155   0.014  0.00  0.00    +0.162 A 
BRANCH  28  35
ATOM     34  C   UNL     1       0.076   1.282   0.042  0.00  0.00    +0.277 C 
ATOM     35  O   UNL     1       0.077  -0.147   0.025  0.00  0.00    -0.491 OA
ENDBRANCH  28  35
BRANCH  33  36
ATOM     36  O   UNL     1      -0.069  -2.897  -0.007  0.00  0.00    -0.491 OA
ATOM     37  C   UNL     1      -0.222  -4.318  -0.023  0.00  0.00    +0.277 C 
ENDBRANCH  33  36
ENDBRANCH  27  31
ENDBRANCH  26  27
ENDBRANCH  22  26
ENDBRANCH   1  23
TORSDOF 7
