REMARK  Name = ZINC38670319
REMARK  10 active torsions:
REMARK  status: ('A' for Active; 'I' for Inactive)
REMARK    1  A    between atoms: C_1  and  C_2
REMARK    2  A    between atoms: C_5  and  N_9
REMARK    3  A    between atoms: C_7  and  C_8
REMARK    4  A    between atoms: N_12  and  C_13
REMARK    5  A    between atoms: C_13  and  C_14
REMARK    6  A    between atoms: C_14  and  C_16
REMARK    7  A    between atoms: C_14  and  N_27
REMARK    8  A    between atoms: N_25  and  C_26
REMARK    9  A    between atoms: N_27  and  C_28
REMARK   10  A    between atoms: N_27  and  C_29
REMARK                            x       y       z     vdW  Elec       q    Type
REMARK                         _______ _______ _______ _____ _____    ______ ____
ROOT
ATOM      1  C   UNL     1       0.271  -8.592  -2.652  0.00  0.00    -0.021 C 
ENDROOT
BRANCH   1   2
ATOM      2  C   UNL     1       0.294  -9.116  -4.065  0.00  0.00    -0.059 A 
ATOM      3  C   UNL     1       1.435  -8.974  -4.834  0.00  0.00    +0.004 A 
ATOM      4  C   UNL     1       1.455  -9.453  -6.128  0.00  0.00    +0.023 A 
ATOM      5  C   UNL     1       0.331 -10.078  -6.658  0.00  0.00    +0.033 A 
ATOM      6  C   UNL     1      -0.810 -10.222  -5.885  0.00  0.00    -0.026 A 
ATOM      7  C   UNL     1      -0.822  -9.742  -4.586  0.00  0.00    +0.007 A 
ATOM      8  C   UNL     1      -2.042 -10.903  -6.421  0.00  0.00    +0.038 C 
ATOM      9  C   UNL     1      -2.029 -10.907  -7.949  0.00  0.00    +0.024 C 
ATOM     10  C   UNL     1      -0.684 -11.465  -8.432  0.00  0.00    +0.105 C 
ATOM     11  N   UNL     1       0.371 -10.551  -7.974  0.00  0.00    -0.333 N 
ATOM     12  C   UNL     1       1.448 -10.143  -8.880  0.00  0.00    +0.129 C 
ENDBRANCH   1   2
BRANCH   1  13
ATOM     13  N   UNL     1       1.563  -8.863  -2.007  0.00  0.00    +0.382 N 
ATOM     14  C   UNL     1       1.515  -8.418  -0.608  0.00  0.00    -0.096 C 
ATOM     15  C   UNL     1       1.840 -10.305  -2.054  0.00  0.00    -0.096 C 
ATOM     16  H   UNL     1       2.292  -8.365  -2.494  0.00  0.00    -0.082 HD
ENDBRANCH   1  13
BRANCH   1  17
ATOM     17  C   UNL     1       0.017  -7.083  -2.671  0.00  0.00    +0.095 C 
BRANCH  17  21
ATOM     18  N   UNL     1      -2.927  -5.305  -3.971  0.00  0.00    -0.269 N 
ATOM     19  C   UNL     1      -1.708  -5.549  -3.452  0.00  0.00    +0.304 C 
ATOM     20  O   UNL     1      -0.967  -4.624  -3.178  0.00  0.00    -0.253 OA
ATOM     21  N   UNL     1      -1.308  -6.818  -3.236  0.00  0.00    -0.300 N 
ATOM     22  H   UNL     1      -3.545  -6.037  -4.122  0.00  0.00    +0.156 HD
ATOM     23  H   UNL     1      -1.899  -7.556  -3.455  0.00  0.00    +0.150 HD
BRANCH  18  28
ATOM     24  C   UNL     1      -4.444   0.003  -5.278  0.00  0.00    +0.044 C 
ATOM     25  C   UNL     1      -4.041  -1.407  -4.931  0.00  0.00    -0.047 A 
ATOM     26  C   UNL     1      -2.727  -1.808  -5.091  0.00  0.00    +0.005 A 
ATOM     27  C   UNL     1      -2.355  -3.100  -4.774  0.00  0.00    +0.023 A 
ATOM     28  C   UNL     1      -3.301  -3.996  -4.293  0.00  0.00    +0.035 A 
ATOM     29  C   UNL     1      -4.619  -3.590  -4.134  0.00  0.00    +0.027 A 
ATOM     30  C   UNL     1      -4.984  -2.295  -4.448  0.00  0.00    -0.046 A 
ATOM     31  C   UNL     1      -6.414  -1.851  -4.269  0.00  0.00    +0.044 C 
ENDBRANCH  18  28
ENDBRANCH  17  21
ENDBRANCH   1  17
TORSDOF 5
