REMARK  Name = ZINC39701911
REMARK  6 active torsions:
REMARK  status: ('A' for Active; 'I' for Inactive)
REMARK    1  A    between atoms: C_4  and  C_7
REMARK    2  A    between atoms: C_7  and  C_8
REMARK    3  A    between atoms: C_7  and  C_14
REMARK    4  A    between atoms: C_7  and  O_28
REMARK    5  A    between atoms: N_16  and  N_17
REMARK    6  A    between atoms: C_18  and  C_19
REMARK                            x       y       z     vdW  Elec       q    Type
REMARK                         _______ _______ _______ _____ _____    ______ ____
ROOT
ATOM      1  C   UNL     1       4.426  -1.005  -1.330  0.00  0.00    +0.273 C 
ATOM      2  O   UNL     1       3.790  -1.243  -2.334  0.00  0.00    -0.270 OA
ATOM      3  N   UNL     1       5.774  -1.006  -1.370  0.00  0.00    -0.204 N 
ATOM      4  H   UNL     1       6.283  -0.816  -0.567  0.00  0.00    +0.177 HD
ENDROOT
BRANCH   3   5
ATOM      5  N   UNL     1       6.439  -1.283  -2.572  0.00  0.00    -0.188 NA
ATOM      6  C   UNL     1       7.747  -1.284  -2.611  0.00  0.00    +0.136 C 
BRANCH   6   7
ATOM      7  C   UNL     1       8.413  -1.561  -3.813  0.00  0.00    +0.000 C 
ATOM      8  C   UNL     1       9.789  -1.608  -4.023  0.00  0.00    +0.004 A 
ATOM      9  C   UNL     1      10.892  -1.408  -3.164  0.00  0.00    +0.010 A 
ATOM     10  C   UNL     1      12.153  -1.518  -3.652  0.00  0.00    +0.001 A 
ATOM     11  C   UNL     1      12.395  -1.828  -4.994  0.00  0.00    +0.002 A 
ATOM     12  C   UNL     1      11.386  -2.033  -5.874  0.00  0.00    +0.026 A 
ATOM     13  C   UNL     1      10.038  -1.935  -5.438  0.00  0.00    +0.043 A 
ATOM     14  N   UNL     1       8.901  -2.085  -6.083  0.00  0.00    -0.380 N 
ATOM     15  C   UNL     1       7.786  -1.879  -5.153  0.00  0.00    +0.150 C 
ATOM     16  H   UNL     1       8.814  -2.303  -7.024  0.00  0.00    +0.160 HD
ENDBRANCH   6   7
ENDBRANCH   3   5
BRANCH   1  17
ATOM     17  C   UNL     1       3.711  -0.707  -0.038  0.00  0.00    +0.194 C 
BRANCH  17  21
ATOM     18  C   UNL     1      -0.188   0.819  -0.884  0.00  0.00    +0.000 A 
ATOM     19  C   UNL     1       0.132  -0.484  -1.218  0.00  0.00    +0.000 A 
ATOM     20  C   UNL     1       1.394  -0.978  -0.944  0.00  0.00    +0.007 A 
ATOM     21  C   UNL     1       2.336  -0.169  -0.337  0.00  0.00    -0.003 A 
ATOM     22  C   UNL     1       2.016   1.134  -0.004  0.00  0.00    +0.007 A 
ATOM     23  C   UNL     1       0.754   1.628  -0.276  0.00  0.00    +0.000 A 
ENDBRANCH  17  21
BRANCH  17  24
ATOM     24  C   UNL     1       3.590  -1.972   0.772  0.00  0.00    -0.003 A 
ATOM     25  C   UNL     1       3.295  -3.168   0.146  0.00  0.00    +0.007 A 
ATOM     26  C   UNL     1       3.184  -4.329   0.889  0.00  0.00    +0.000 A 
ATOM     27  C   UNL     1       3.368  -4.293   2.258  0.00  0.00    +0.000 A 
ATOM     28  C   UNL     1       3.663  -3.097   2.885  0.00  0.00    +0.000 A 
ATOM     29  C   UNL     1       3.779  -1.937   2.141  0.00  0.00    +0.007 A 
ENDBRANCH  17  24
BRANCH  17  30
ATOM     30  O   UNL     1       4.452   0.264   0.704  0.00  0.00    -0.371 OA
ATOM     31  H   UNL     1       4.569   1.106   0.242  0.00  0.00    +0.212 HD
ENDBRANCH  17  30
ENDBRANCH   1  17
TORSDOF 6
