REMARK  Name = ZINC12877012
REMARK  16 active torsions:
REMARK  status: ('A' for Active; 'I' for Inactive)
REMARK    1  A    between atoms: C_1  and  C_2
REMARK    2  A    between atoms: C_2  and  C_3
REMARK    3  A    between atoms: C_2  and  C_4
REMARK    4  A    between atoms: C_4  and  C_6
REMARK    5  A    between atoms: C_4  and  N_18
REMARK    6  A    between atoms: N_8  and  C_9
REMARK    7  A    between atoms: C_9  and  C_10
REMARK    8  A    between atoms: C_15  and  O_16
REMARK    9  A    between atoms: O_16  and  C_17
REMARK   10  A    between atoms: C_19  and  C_21
REMARK   11  A    between atoms: C_27  and  C_29
REMARK   12  A    between atoms: C_29  and  C_31
REMARK   13  A    between atoms: C_29  and  N_71
REMARK   14  A    between atoms: C_31  and  C_32
REMARK   15  A    between atoms: C_32  and  S_33
REMARK   16  A    between atoms: S_33  and  C_34
REMARK                            x       y       z     vdW  Elec       q    Type
REMARK                         _______ _______ _______ _____ _____    ______ ____
ROOT
ATOM      1  N   UNL     1       0.566   0.130   0.300  0.00  0.00    -0.304 N 
ATOM      2  C   UNL     1       1.653  -0.289  -0.379  0.00  0.00    +0.217 C 
ATOM      3  O   UNL     1       2.145   0.419  -1.232  0.00  0.00    -0.275 OA
ATOM      4  H   UNL     1       0.173  -0.437   0.982  0.00  0.00    +0.149 HD
ENDROOT
BRANCH   2   5
ATOM      5  C   UNL     1       2.257  -1.637  -0.077  0.00  0.00    +0.078 C 
ATOM      6  C   UNL     1       2.693  -1.683   1.388  0.00  0.00    +0.032 C 
ATOM      7  C   UNL     1       3.275  -3.066   1.700  0.00  0.00    +0.108 C 
ATOM      8  N   UNL     1       4.349  -3.354   0.740  0.00  0.00    -0.303 N 
ATOM      9  C   UNL     1       4.061  -3.250  -0.696  0.00  0.00    +0.108 C 
ATOM     10  C   UNL     1       3.471  -1.865  -0.981  0.00  0.00    +0.032 C 
ATOM     11  C   UNL     1       5.577  -3.709   1.170  0.00  0.00    +0.201 C 
ATOM     12  O   UNL     1       6.455  -3.945   0.368  0.00  0.00    -0.277 OA
BRANCH  11  13
ATOM     13  C   UNL     1       5.857  -3.812   2.647  0.00  0.00    +0.014 C 
BRANCH  13  16
ATOM     14  H   UNL     1       7.855  -4.246   2.407  0.00  0.00    -0.089 HD
ATOM     15  H   UNL     1       7.220  -4.783   3.847  0.00  0.00    -0.089 HD
ATOM     16  N   UNL     1       7.041  -4.666   2.851  0.00  0.00    +0.386 N 
ATOM     17  H   UNL     1       6.868  -5.587   2.432  0.00  0.00    -0.089 HD
ENDBRANCH  13  16
BRANCH  13  18
ATOM     18  C   UNL     1       6.103  -2.414   3.219  0.00  0.00    +0.003 C 
BRANCH  18  19
ATOM     19  C   UNL     1       6.264  -2.505   4.737  0.00  0.00    +0.068 C 
BRANCH  19  20
ATOM     20  S   UNL     1       6.555  -0.848   5.415  0.00  0.00    -0.164 S 
ATOM     21  C   UNL     1       6.722  -1.126   7.199  0.00  0.00    +0.084 C 
ENDBRANCH  19  20
ENDBRANCH  18  19
ENDBRANCH  13  18
ENDBRANCH  11  13
ENDBRANCH   2   5
BRANCH   1  22
ATOM     22  C   UNL     1      -0.020   1.440   0.007  0.00  0.00    +0.161 C 
BRANCH  22  23
ATOM     23  C   UNL     1      -0.768   1.937   1.218  0.00  0.00    +0.234 C 
ATOM     24  O   UNL     1      -1.119   1.156   2.077  0.00  0.00    -0.274 OA
ATOM     25  N   UNL     1      -1.046   3.250   1.345  0.00  0.00    -0.310 N 
ATOM     26  H   UNL     1      -0.703   3.884   0.696  0.00  0.00    +0.149 HD
BRANCH  25  27
ATOM     27  C   UNL     1      -1.865   3.719   2.465  0.00  0.00    +0.143 C 
BRANCH  27  28
ATOM     28  C   UNL     1      -2.026   5.215   2.378  0.00  0.00    +0.011 A 
ATOM     29  C   UNL     1      -1.248   6.041   3.166  0.00  0.00    +0.009 A 
ATOM     30  C   UNL     1      -1.391   7.414   3.083  0.00  0.00    +0.001 A 
ATOM     31  C   UNL     1      -2.321   7.963   2.219  0.00  0.00    +0.004 A 
ATOM     32  C   UNL     1      -3.105   7.141   1.433  0.00  0.00    +0.046 A 
ATOM     33  C   UNL     1      -2.959   5.763   1.510  0.00  0.00    +0.125 A 
BRANCH  33  34
ATOM     34  O   UNL     1      -3.730   4.953   0.738  0.00  0.00    -0.495 OA
ATOM     35  C   UNL     1      -4.669   5.587  -0.132  0.00  0.00    +0.277 C 
ENDBRANCH  33  34
ENDBRANCH  27  28
ENDBRANCH  25  27
ENDBRANCH  22  23
BRANCH  22  37
ATOM     36  C   UNL     1      -0.208   0.921  -2.430  0.00  0.00    +0.009 C 
ATOM     37  C   UNL     1      -0.987   1.314  -1.173  0.00  0.00    +0.012 C 
ATOM     38  C   UNL     1      -2.031   0.239  -0.864  0.00  0.00    +0.009 C 
ENDBRANCH  22  37
ENDBRANCH   1  22
TORSDOF 12
