REMARK  Name = ZINC63323619
REMARK  11 active torsions:
REMARK  status: ('A' for Active; 'I' for Inactive)
REMARK    1  A    between atoms: C_1  and  C_2
REMARK    2  A    between atoms: C_2  and  O_3
REMARK    3  A    between atoms: O_3  and  C_4
REMARK    4  A    between atoms: C_8  and  C_10
REMARK    5  A    between atoms: C_10  and  C_11
REMARK    6  A    between atoms: C_10  and  N_12
REMARK    7  A    between atoms: N_15  and  C_16
REMARK    8  A    between atoms: C_18  and  C_24
REMARK    9  A    between atoms: C_18  and  C_25
REMARK   10  A    between atoms: C_20  and  C_22
REMARK   11  A    between atoms: C_20  and  C_23
REMARK                            x       y       z     vdW  Elec       q    Type
REMARK                         _______ _______ _______ _____ _____    ______ ____
ROOT
ATOM      1  N   UNL     1      -4.435  -5.252   1.071  0.00  0.00    -0.293 N 
ATOM      2  C   UNL     1      -5.591  -5.619   1.660  0.00  0.00    +0.300 C 
ATOM      3  O   UNL     1      -6.594  -4.951   1.499  0.00  0.00    -0.253 OA
ATOM      4  N   UNL     1      -5.634  -6.726   2.427  0.00  0.00    -0.297 N 
ATOM      5  H   UNL     1      -3.635  -5.785   1.200  0.00  0.00    +0.151 HD
ATOM      6  H   UNL     1      -4.834  -7.259   2.555  0.00  0.00    +0.151 HD
ENDROOT
BRANCH   4   7
ATOM      7  C   UNL     1      -6.893  -7.126   3.068  0.00  0.00    +0.072 C 
ATOM      8  C   UNL     1      -7.022  -6.408   4.413  0.00  0.00    +0.009 C 
ATOM      9  C   UNL     1      -8.323  -6.824   5.100  0.00  0.00    -0.072 C 
ATOM     10  N   UNL     1      -8.439  -8.269   5.225  0.00  0.00    +0.386 N 
ATOM     11  C   UNL     1      -8.137  -9.075   4.053  0.00  0.00    -0.072 C 
ATOM     12  C   UNL     1      -6.871  -8.632   3.328  0.00  0.00    +0.009 C 
ATOM     13  C   UNL     1      -9.313  -9.113   3.073  0.00  0.00    -0.010 C 
ATOM     14  C   UNL     1      -7.905 -10.527   4.535  0.00  0.00    -0.010 C 
ATOM     15  C   UNL     1      -9.521  -6.210   4.377  0.00  0.00    -0.010 C 
ATOM     16  C   UNL     1      -8.296  -6.232   6.528  0.00  0.00    -0.010 C 
ATOM     17  H   UNL     1      -7.833  -8.574   5.991  0.00  0.00    -0.084 HD
ATOM     18  H   UNL     1      -9.390  -8.489   5.532  0.00  0.00    -0.084 HD
ENDBRANCH   4   7
BRANCH   1  19
ATOM     19  C   UNL     1      -4.388  -4.048   0.237  0.00  0.00    +0.102 C 
ATOM     20  C   UNL     1      -4.832  -4.396  -1.185  0.00  0.00    +0.033 C 
BRANCH  19  25
ATOM     21  C   UNL     1      -1.461  -1.659   0.236  0.00  0.00    +0.121 A 
ATOM     22  C   UNL     1      -0.390  -2.537   0.151  0.00  0.00    +0.045 A 
ATOM     23  C   UNL     1      -0.617  -3.898   0.095  0.00  0.00    +0.004 A 
ATOM     24  C   UNL     1      -1.911  -4.386   0.123  0.00  0.00    +0.006 A 
ATOM     25  C   UNL     1      -2.979  -3.513   0.207  0.00  0.00    -0.024 A 
ATOM     26  C   UNL     1      -2.757  -2.151   0.269  0.00  0.00    +0.051 A 
BRANCH  21  27
ATOM     27  O   UNL     1      -1.240  -0.319   0.292  0.00  0.00    -0.492 OA
BRANCH  27  29
ATOM     28  C   UNL     1       0.170   1.644   0.326  0.00  0.00    +0.048 C 
ATOM     29  C   UNL     1       0.121   0.116   0.253  0.00  0.00    +0.225 C 
ENDBRANCH  27  29
ENDBRANCH  21  27
ENDBRANCH  19  25
ENDBRANCH   1  19
TORSDOF 5
