REMARK  Name = ZINC15946152
REMARK  9 active torsions:
REMARK  status: ('A' for Active; 'I' for Inactive)
REMARK    1  A    between atoms: C_1  and  C_2
REMARK    2  A    between atoms: C_2  and  O_3
REMARK    3  A    between atoms: O_3  and  C_4
REMARK    4  A    between atoms: C_12  and  N_24
REMARK    5  A    between atoms: C_13  and  C_14
REMARK    6  A    between atoms: N_16  and  C_17
REMARK    7  A    between atoms: C_25  and  C_27
REMARK    8  A    between atoms: C_27  and  N_66
REMARK    9  A    between atoms: C_31  and  C_34
REMARK                            x       y       z     vdW  Elec       q    Type
REMARK                         _______ _______ _______ _____ _____    ______ ____
ROOT
ATOM      1  C   UNL     1      -4.314   3.913 -10.698  0.00  0.00    +0.403 C 
ATOM      2  O   UNL     1      -4.005   3.904 -11.873  0.00  0.00    -0.226 OA
ATOM      3  N   UNL     1      -4.119   2.814  -9.942  0.00  0.00    -0.262 N 
ATOM      4  C   UNL     1      -3.536   1.590 -10.511  0.00  0.00    +0.116 C 
ATOM      5  C   UNL     1      -2.188   1.307  -9.845  0.00  0.00    +0.056 C 
ATOM      6  C   UNL     1      -2.342   1.424  -8.333  0.00  0.00    -0.020 A 
ATOM      7  C   UNL     1      -3.376   2.096  -7.783  0.00  0.00    +0.013 A 
ATOM      8  S   UNL     1      -3.128   1.962  -6.036  0.00  0.00    -0.076 S 
ATOM      9  C   UNL     1      -1.671   1.024  -6.032  0.00  0.00    +0.084 A 
ATOM     10  C   UNL     1      -1.409   0.843  -7.382  0.00  0.00    +0.069 A 
ATOM     11  C   UNL     1      -4.484   2.795  -8.511  0.00  0.00    +0.153 C 
ENDROOT
BRANCH  10  12
ATOM     12  C   UNL     1      -0.235   0.089  -7.833  0.00  0.00    +0.251 C 
ATOM     13  O   UNL     1      -0.315  -1.113  -8.012  0.00  0.00    -0.270 OA
ATOM     14  N   UNL     1       0.933   0.726  -8.050  0.00  0.00    -0.281 N 
ATOM     15  H   UNL     1       0.978   1.692  -7.982  0.00  0.00    +0.155 HD
BRANCH  14  16
ATOM     16  C   UNL     1       2.080  -0.007  -8.373  0.00  0.00    +0.035 A 
ATOM     17  C   UNL     1       3.030   0.530  -9.232  0.00  0.00    +0.023 A 
ATOM     18  C   UNL     1       4.163  -0.193  -9.546  0.00  0.00    +0.003 A 
ATOM     19  C   UNL     1       4.349  -1.456  -9.014  0.00  0.00    +0.020 A 
ATOM     20  C   UNL     1       3.403  -1.996  -8.161  0.00  0.00    +0.043 A 
ATOM     21  C   UNL     1       2.268  -1.275  -7.839  0.00  0.00    +0.043 A 
ATOM     22 CL   UNL     1       3.640  -3.582  -7.495  0.00  0.00    -0.083 Cl
ENDBRANCH  14  16
ENDBRANCH  10  12
BRANCH   9  23
ATOM     23  N   UNL     1      -0.942   0.570  -4.943  0.00  0.00    -0.281 N 
ATOM     24  C   UNL     1      -1.353   0.852  -3.691  0.00  0.00    +0.201 C 
ATOM     25  O   UNL     1      -2.361   1.503  -3.516  0.00  0.00    -0.278 OA
ATOM     26  H   UNL     1      -0.136   0.049  -5.083  0.00  0.00    +0.155 HD
BRANCH  24  27
ATOM     27  C   UNL     1      -0.560   0.359  -2.508  0.00  0.00    +0.019 C 
BRANCH  27  34
ATOM     28  C   UNL     1      -1.170   2.257  -1.136  0.00  0.00    -0.078 C 
ATOM     29  C   UNL     1      -1.981   2.685   0.090  0.00  0.00    -0.018 C 
ATOM     30  C   UNL     1      -1.392   2.025   1.340  0.00  0.00    -0.001 C 
ATOM     31  C   UNL     1      -1.403   0.505   1.159  0.00  0.00    -0.031 C 
ATOM     32  C   UNL     1      -0.609   0.141  -0.098  0.00  0.00    -0.075 C 
ATOM     33  C   UNL     1      -0.762  -0.160   2.379  0.00  0.00    +0.005 C 
ATOM     34  N   UNL     1      -1.240   0.786  -1.268  0.00  0.00    +0.386 N 
ATOM     35  H   UNL     1      -2.226   0.503  -1.313  0.00  0.00    -0.081 HD
ENDBRANCH  27  34
ENDBRANCH  24  27
ENDBRANCH   9  23
BRANCH   1  36
ATOM     36  O   UNL     1      -4.849   5.020 -10.151  0.00  0.00    -0.451 OA
BRANCH  36  38
ATOM     37  C   UNL     1      -5.646   7.320 -10.232  0.00  0.00    +0.048 C 
ATOM     38  C   UNL     1      -5.030   6.166 -11.025  0.00  0.00    +0.230 C 
ENDBRANCH  36  38
ENDBRANCH   1  36
TORSDOF 7
