REMARK  Name = ZINC67642530
REMARK  6 active torsions:
REMARK  status: ('A' for Active; 'I' for Inactive)
REMARK    1  A    between atoms: C_1  and  N_2
REMARK    2  A    between atoms: C_3  and  C_5
REMARK    3  A    between atoms: C_5  and  C_6
REMARK    4  A    between atoms: N_13  and  C_14
REMARK    5  A    between atoms: C_14  and  C_15
REMARK    6  A    between atoms: N_23  and  C_25
REMARK                            x       y       z     vdW  Elec       q    Type
REMARK                         _______ _______ _______ _____ _____    ______ ____
ROOT
ATOM      1  C   UNL     1       1.428  -2.760  -2.245  0.00  0.00    +0.152 C 
ATOM      2  C   UNL     1       1.457  -4.259  -2.138  0.00  0.00    +0.231 C 
ATOM      3  O   UNL     1       1.715  -4.760  -1.064  0.00  0.00    -0.274 OA
ATOM      4  N   UNL     1       1.209  -5.063  -3.177  0.00  0.00    -0.313 N 
ATOM      5  C   UNL     1       0.854  -4.562  -4.501  0.00  0.00    +0.119 C 
ATOM      6  C   UNL     1       1.245  -3.088  -4.627  0.00  0.00    +0.104 C 
ATOM      7  N   UNL     1       0.714  -2.360  -3.464  0.00  0.00    -0.284 NA
ATOM      8  H   UNL     1       1.269  -6.022  -3.045  0.00  0.00    +0.149 HD
ENDROOT
BRANCH   1   9
ATOM      9  C   UNL     1       0.714  -2.177  -1.023  0.00  0.00    +0.124 C 
BRANCH   9  12
ATOM     10  C   UNL     1      -2.902  -2.812   0.062  0.00  0.00    +0.128 C 
ATOM     11  N   UNL     1      -1.512  -2.348   0.041  0.00  0.00    -0.318 N 
ATOM     12  C   UNL     1      -0.715  -2.654  -1.002  0.00  0.00    +0.215 C 
ATOM     13  O   UNL     1      -1.149  -3.313  -1.924  0.00  0.00    -0.276 OA
ATOM     14  H   UNL     1      -1.165  -1.821   0.778  0.00  0.00    +0.148 HD
ENDBRANCH   9  12
ENDBRANCH   1   9
BRANCH   7  15
ATOM     15  C   UNL     1       0.799  -0.908  -3.672  0.00  0.00    +0.143 C 
BRANCH  15  16
ATOM     16  C   UNL     1      -0.182  -0.495  -4.738  0.00  0.00    +0.086 A 
ATOM     17  C   UNL     1       0.083  -0.430  -6.172  0.00  0.00    +0.042 A 
ATOM     18  C   UNL     1      -1.113   0.002  -6.776  0.00  0.00    +0.070 A 
ATOM     19  C   UNL     1      -1.164   0.158  -8.159  0.00  0.00    +0.028 A 
ATOM     20  C   UNL     1      -0.048  -0.110  -8.919  0.00  0.00    +0.004 A 
ATOM     21  C   UNL     1       1.130  -0.537  -8.320  0.00  0.00    +0.021 A 
ATOM     22  C   UNL     1       1.205  -0.697  -6.966  0.00  0.00    +0.052 A 
ATOM     23 CL   UNL     1       2.685  -1.230  -6.231  0.00  0.00    -0.083 Cl
ATOM     24  N   UNL     1      -2.023   0.181  -5.767  0.00  0.00    -0.266 N 
ATOM     25  N   UNL     1      -1.419  -0.136  -4.546  0.00  0.00    -0.174 NA
ATOM     26  C   UNL     1      -3.408   0.628  -5.940  0.00  0.00    +0.173 C 
ENDBRANCH  15  16
ENDBRANCH   7  15
TORSDOF 4
