REMARK  Name = ZINC03097996
REMARK  10 active torsions:
REMARK  status: ('A' for Active; 'I' for Inactive)
REMARK    1  A    between atoms: C_1  and  C_2
REMARK    2  A    between atoms: N_9  and  C_10
REMARK    3  A    between atoms: C_10  and  C_12
REMARK    4  A    between atoms: C_10  and  C_22
REMARK    5  A    between atoms: C_13  and  C_14
REMARK    6  A    between atoms: C_22  and  C_23
REMARK    7  A    between atoms: C_22  and  C_24
REMARK    8  A    between atoms: C_22  and  C_25
REMARK    9  A    between atoms: N_29  and  C_30
REMARK   10  A    between atoms: C_30  and  C_31
REMARK                            x       y       z     vdW  Elec       q    Type
REMARK                         _______ _______ _______ _____ _____    ______ ____
ROOT
ATOM      1  C   UNL     1       9.022   3.176  -6.596  0.00  0.00    +0.007 C 
ATOM      2  C   UNL     1       8.238   3.005  -5.293  0.00  0.00    -0.014 C 
ATOM      3  C   UNL     1       6.846   2.452  -5.605  0.00  0.00    +0.006 C 
ATOM      4  C   UNL     1       6.058   2.292  -4.302  0.00  0.00    +0.033 C 
ATOM      5  C   UNL     1       6.803   1.343  -3.369  0.00  0.00    +0.089 C 
ATOM      6  C   UNL     1       8.201   1.870  -3.068  0.00  0.00    +0.033 C 
ATOM      7  C   UNL     1       8.981   2.032  -4.375  0.00  0.00    +0.006 C 
ATOM      8  C   UNL     1       6.026   1.149  -2.087  0.00  0.00    +0.090 C 
ATOM      9  N   UNL     1       5.703   2.051  -1.220  0.00  0.00    -0.327 N 
ATOM     10  N   UNL     1       5.730  -0.196  -2.045  0.00  0.00    -0.287 N 
ATOM     11  C   UNL     1       6.225  -0.830  -3.115  0.00  0.00    +0.139 C 
ATOM     12  S   UNL     1       6.047  -2.510  -3.390  0.00  0.00    -0.018 S 
ATOM     13  N   UNL     1       6.877  -0.002  -3.952  0.00  0.00    -0.287 N 
ATOM     14  H   UNL     1       6.004   3.098  -1.377  0.00  0.00    +0.148 HD
ATOM     15  H   UNL     1       5.157  -0.607  -1.200  0.00  0.00    +0.155 HD
ENDROOT
BRANCH   9  16
ATOM     16  C   UNL     1       4.936   1.681  -0.028  0.00  0.00    +0.100 C 
BRANCH  16  17
ATOM     17  C   UNL     1       5.743   2.025   1.225  0.00  0.00    -0.016 C 
ATOM     18  C   UNL     1       4.942   1.639   2.470  0.00  0.00    +0.013 C 
ATOM     19  C   UNL     1       7.064   1.254   1.209  0.00  0.00    +0.013 C 
ATOM     20  C   UNL     1       6.031   3.528   1.250  0.00  0.00    +0.013 C 
ENDBRANCH  16  17
BRANCH  16  21
ATOM     21  C   UNL     1       3.635   2.441  -0.012  0.00  0.00    -0.004 C 
ATOM     22  C   UNL     1       2.483   1.784  -0.020  0.00  0.00    +0.007 C 
BRANCH  22  23
ATOM     23  C   UNL     1       1.207   2.530  -0.004  0.00  0.00    -0.007 A 
ATOM     24  C   UNL     1       1.211   3.925   0.020  0.00  0.00    +0.011 A 
ATOM     25  C   UNL     1       0.017   4.615   0.035  0.00  0.00    +0.020 A 
ATOM     26  C   UNL     1      -1.185   3.927   0.026  0.00  0.00    +0.042 A 
ATOM     27  C   UNL     1      -1.196   2.543  -0.004  0.00  0.00    +0.040 A 
ATOM     28  C   UNL     1      -0.007   1.841  -0.013  0.00  0.00    +0.049 A 
ATOM     29 CL   UNL     1      -0.023   0.105  -0.043  0.00  0.00    -0.083 Cl
ATOM     30 CL   UNL     1      -2.683   4.804   0.045  0.00  0.00    -0.083 Cl
ENDBRANCH  22  23
ENDBRANCH  16  21
ENDBRANCH   9  16
BRANCH  13  31
ATOM     31  C   UNL     1       7.533  -0.372  -5.209  0.00  0.00    +0.226 C 
BRANCH  31  32
ATOM     32  C   UNL     1       8.686  -1.241  -4.923  0.00  0.00    +0.082 C 
ATOM     33  N   UNL     1       9.576  -1.912  -4.703  0.00  0.00    -0.195 NA
ENDBRANCH  31  32
ENDBRANCH  13  31
TORSDOF 6
