REMARK  Name = ZINC15682395
REMARK  9 active torsions:
REMARK  status: ('A' for Active; 'I' for Inactive)
REMARK    1  A    between atoms: C_1  and  C_2
REMARK    2  A    between atoms: C_2  and  O_3
REMARK    3  A    between atoms: O_3  and  C_4
REMARK    4  A    between atoms: C_7  and  C_13
REMARK    5  A    between atoms: C_9  and  O_10
REMARK    6  A    between atoms: O_10  and  C_11
REMARK    7  A    between atoms: C_11  and  C_12
REMARK    8  A    between atoms: C_18  and  S_25
REMARK    9  A    between atoms: S_25  and  N_28
REMARK                            x       y       z     vdW  Elec       q    Type
REMARK                         _______ _______ _______ _____ _____    ______ ____
ROOT
ATOM      1  C   UNL     1       6.314  -1.631  -4.557  0.00  0.00    +0.146 C 
ATOM      2  N   UNL     1       5.310  -2.153  -3.926  0.00  0.00    -0.229 NA
ATOM      3  C   UNL     1       4.858  -1.835  -2.686  0.00  0.00    +0.093 A 
ATOM      4  C   UNL     1       3.945  -2.669  -2.030  0.00  0.00    +0.032 A 
ATOM      5  C   UNL     1       3.513  -2.352  -0.760  0.00  0.00    +0.031 A 
ATOM      6  C   UNL     1       3.966  -1.208  -0.126  0.00  0.00    +0.107 A 
ATOM      7  C   UNL     1       4.867  -0.371  -0.766  0.00  0.00    +0.059 A 
ATOM      8  C   UNL     1       5.301  -0.680  -2.029  0.00  0.00    +0.136 A 
ATOM      9  S   UNL     1       6.434   0.367  -2.896  0.00  0.00    +0.076 S 
ATOM     10  O   UNL     1       5.660   1.311  -3.624  0.00  0.00    -0.150 OA
ATOM     11  O   UNL     1       7.448   0.743  -1.975  0.00  0.00    -0.150 OA
ATOM     12  N   UNL     1       7.136  -0.661  -4.011  0.00  0.00    -0.199 N 
ATOM     13  H   UNL     1       8.070  -0.582  -4.262  0.00  0.00    +0.175 HD
ENDROOT
BRANCH   1  17
ATOM     14  C   UNL     1       7.129  -2.962  -8.511  0.00  0.00    +0.162 A 
ATOM     15  C   UNL     1       7.930  -1.990  -7.927  0.00  0.00    +0.050 A 
ATOM     16  C   UNL     1       7.668  -1.556  -6.645  0.00  0.00    +0.015 A 
ATOM     17  C   UNL     1       6.595  -2.094  -5.930  0.00  0.00    +0.020 A 
ATOM     18  C   UNL     1       5.793  -3.076  -6.516  0.00  0.00    +0.060 A 
ATOM     19  C   UNL     1       6.057  -3.503  -7.803  0.00  0.00    +0.163 A 
BRANCH  14  20
ATOM     20  O   UNL     1       7.390  -3.386  -9.774  0.00  0.00    -0.489 OA
BRANCH  20  22
ATOM     21  C   UNL     1       8.640  -3.389 -11.843  0.00  0.00    +0.048 C 
ATOM     22  C   UNL     1       8.504  -2.789 -10.442  0.00  0.00    +0.226 C 
ENDBRANCH  20  22
ENDBRANCH  14  20
BRANCH  19  23
ATOM     23  O   UNL     1       5.273  -4.454  -8.379  0.00  0.00    -0.489 OA
BRANCH  23  24
ATOM     24  C   UNL     1       4.192  -4.965  -7.596  0.00  0.00    +0.226 C 
ATOM     25  C   UNL     1       3.430  -6.017  -8.404  0.00  0.00    +0.048 C 
ENDBRANCH  23  24
ENDBRANCH  19  23
ENDBRANCH   1  17
BRANCH   6  26
ATOM     26  S   UNL     1       3.402  -0.819   1.497  0.00  0.00    +0.061 S 
ATOM     27  O   UNL     1       4.396   0.011   2.084  0.00  0.00    -0.153 OA
ATOM     28  O   UNL     1       2.987  -2.043   2.087  0.00  0.00    -0.153 OA
BRANCH  26  29
ATOM     29  N   UNL     1       2.043   0.113   1.334  0.00  0.00    -0.177 NA
ATOM     30  C   UNL     1       0.714  -0.508   1.262  0.00  0.00    +0.109 C 
ATOM     31  C   UNL     1       0.002  -0.004   0.002  0.00  0.00    +0.017 C 
ATOM     32  C   UNL     1      -0.019   1.526   0.010  0.00  0.00    +0.003 C 
ATOM     33  C   UNL     1       1.417   2.058  -0.000  0.00  0.00    +0.017 C 
ATOM     34  C   UNL     1       2.144   1.577   1.259  0.00  0.00    +0.109 C 
ENDBRANCH  26  29
ENDBRANCH   6  26
TORSDOF 7
