REMARK  Name = ZINC39663301
REMARK  7 active torsions:
REMARK  status: ('A' for Active; 'I' for Inactive)
REMARK    1  A    between atoms: C_1  and  C_2
REMARK    2  A    between atoms: C_2  and  C_3
REMARK    3  A    between atoms: C_3  and  C_5
REMARK    4  A    between atoms: C_3  and  C_6
REMARK    5  A    between atoms: C_6  and  C_7
REMARK    6  A    between atoms: C_11  and  C_20
REMARK    7  A    between atoms: N_22  and  C_23
REMARK                            x       y       z     vdW  Elec       q    Type
REMARK                         _______ _______ _______ _____ _____    ______ ____
ROOT
ATOM      1  C   UNL     1      -2.950  -2.589   0.246  0.00  0.00    +0.216 C 
ATOM      2  O   UNL     1      -3.892  -1.826   0.292  0.00  0.00    -0.276 OA
ATOM      3  N   UNL     1      -3.148  -3.914   0.390  0.00  0.00    -0.300 N 
ATOM      4  C   UNL     1      -2.132  -4.992   0.370  0.00  0.00    +0.121 C 
ATOM      5  C   UNL     1      -2.586  -5.978   1.470  0.00  0.00    +0.100 C 
ATOM      6  C   UNL     1      -4.097  -5.731   1.618  0.00  0.00    -0.004 C 
ATOM      7  C   UNL     1      -4.432  -4.622   0.611  0.00  0.00    +0.115 C 
ATOM      8  C   UNL     1      -4.420  -5.265   3.034  0.00  0.00    -0.010 C 
ATOM      9  C   UNL     1      -5.934  -5.082   3.173  0.00  0.00    -0.082 C 
ATOM     10  N   UNL     1      -6.611  -6.353   2.889  0.00  0.00    +0.379 N 
ATOM     11  C   UNL     1      -6.370  -6.747   1.496  0.00  0.00    -0.082 C 
ATOM     12  C   UNL     1      -4.875  -7.001   1.286  0.00  0.00    -0.010 C 
ATOM     13  H   UNL     1      -6.254  -7.067   3.506  0.00  0.00    -0.086 HD
ATOM     14  H   UNL     1      -7.603  -6.245   3.040  0.00  0.00    -0.086 HD
ENDROOT
BRANCH   5  15
ATOM     15  C   UNL     1      -2.323  -7.399   1.043  0.00  0.00    +0.218 C 
ATOM     16  O   UNL     1      -2.379  -7.699  -0.131  0.00  0.00    -0.275 OA
ATOM     17  N   UNL     1      -2.026  -8.335   1.965  0.00  0.00    -0.314 N 
ATOM     18  H   UNL     1      -1.982  -8.095   2.904  0.00  0.00    +0.149 HD
BRANCH  17  19
ATOM     19  C   UNL     1      -1.770  -9.717   1.550  0.00  0.00    +0.059 C 
ATOM     20  C   UNL     1      -3.097 -10.472   1.435  0.00  0.00    -0.056 C 
ATOM     21  N   UNL     1      -3.107 -11.611   2.355  0.00  0.00    +0.381 N 
ATOM     22  C   UNL     1      -2.036 -12.553   2.021  0.00  0.00    -0.078 C 
ATOM     23  C   UNL     1      -0.674 -11.868   2.155  0.00  0.00    -0.014 C 
ATOM     24  C   UNL     1      -0.890 -10.414   2.596  0.00  0.00    +0.004 C 
ATOM     25  C   UNL     1      -1.643 -10.424   3.933  0.00  0.00    -0.014 C 
ATOM     26  C   UNL     1      -2.980 -11.156   3.741  0.00  0.00    -0.078 C 
ATOM     27  H   UNL     1      -3.988 -12.093   2.257  0.00  0.00    -0.082 HD
ENDBRANCH  17  19
ENDBRANCH   5  15
BRANCH   1  28
ATOM     28  C   UNL     1      -1.558  -2.055   0.028  0.00  0.00    +0.099 C 
BRANCH  28  29
ATOM     29  C   UNL     1      -1.610  -0.531  -0.103  0.00  0.00    -0.006 C 
ATOM     30  C   UNL     1      -2.391  -0.155  -1.365  0.00  0.00    +0.008 C 
BRANCH  29  32
ATOM     31  C   UNL     1      -0.234   1.551  -0.206  0.00  0.00    +0.004 C 
ATOM     32  C   UNL     1      -0.187   0.022  -0.200  0.00  0.00    +0.000 C 
ENDBRANCH  29  32
ENDBRANCH  28  29
ENDBRANCH   1  28
TORSDOF 5
