REMARK  Name = ZINC27531189
REMARK  12 active torsions:
REMARK  status: ('A' for Active; 'I' for Inactive)
REMARK    1  A    between atoms: C_1  and  C_2
REMARK    2  A    between atoms: C_2  and  C_3
REMARK    3  A    between atoms: C_9  and  C_10
REMARK    4  A    between atoms: C_15  and  O_16
REMARK    5  A    between atoms: O_16  and  C_17
REMARK    6  A    between atoms: C_17  and  C_18
REMARK    7  A    between atoms: C_18  and  O_19
REMARK    8  A    between atoms: O_19  and  C_20
REMARK    9  A    between atoms: C_22  and  C_29
REMARK   10  A    between atoms: C_25  and  C_26
REMARK   11  A    between atoms: C_26  and  C_27
REMARK   12  A    between atoms: C_26  and  C_28
REMARK                            x       y       z     vdW  Elec       q    Type
REMARK                         _______ _______ _______ _____ _____    ______ ____
ROOT
ATOM      1  C   UNL     1       2.843  -0.762  -8.025  0.00  0.00    +0.019 A 
ATOM      2  C   UNL     1       2.936  -2.159  -7.965  0.00  0.00    +0.031 A 
ATOM      3  C   UNL     1       3.117  -2.885  -9.121  0.00  0.00    +0.042 A 
ATOM      4  C   UNL     1       3.207  -2.240 -10.346  0.00  0.00    +0.023 A 
ATOM      5  C   UNL     1       3.118  -0.864 -10.421  0.00  0.00    +0.047 A 
ATOM      6  C   UNL     1       2.930  -0.114  -9.271  0.00  0.00    +0.128 A 
ATOM      7 CL   UNL     1       3.232  -4.616  -9.046  0.00  0.00    -0.084 Cl
ENDROOT
BRANCH   1  14
ATOM      8  C   UNL     1       2.907  -1.182  -1.015  0.00  0.00    +0.100 C 
ATOM      9  N   UNL     1       2.624  -0.379  -2.000  0.00  0.00    -0.169 NA
ATOM     10  N   UNL     1       3.207  -0.534  -3.240  0.00  0.00    -0.152 N 
ATOM     11  C   UNL     1       3.039   0.328  -4.345  0.00  0.00    +0.153 C 
ATOM     12  N   UNL     1       2.667   1.575  -4.232  0.00  0.00    -0.283 NA
ATOM     13  C   UNL     1       3.330  -0.325  -5.653  0.00  0.00    +0.081 C 
ATOM     14  C   UNL     1       2.651   0.018  -6.801  0.00  0.00    +0.028 C 
ATOM     15  C   UNL     1       4.390  -1.363  -5.652  0.00  0.00    +0.273 C 
ATOM     16  O   UNL     1       5.012  -1.626  -6.668  0.00  0.00    -0.268 OA
ATOM     17  N   UNL     1       4.644  -2.008  -4.496  0.00  0.00    -0.152 NA
ATOM     18  C   UNL     1       4.049  -1.614  -3.398  0.00  0.00    +0.181 C 
ATOM     19  S   UNL     1       4.083  -2.300  -1.763  0.00  0.00    -0.038 S 
ATOM     20  H   UNL     1       2.490   1.951  -3.355  0.00  0.00    +0.188 HD
BRANCH   8  22
ATOM     21  C   UNL     1       1.391  -0.013   0.562  0.00  0.00    +0.011 C 
ATOM     22  C   UNL     1       2.383  -1.167   0.398  0.00  0.00    +0.061 C 
ENDBRANCH   8  22
ENDBRANCH   1  14
BRANCH   6  23
ATOM     23  O   UNL     1       2.837   1.237  -9.345  0.00  0.00    -0.488 OA
BRANCH  23  24
ATOM     24  C   UNL     1       2.934   1.824 -10.644  0.00  0.00    +0.270 C 
BRANCH  24  25
ATOM     25  C   UNL     1       2.807   3.344 -10.527  0.00  0.00    +0.270 C 
BRANCH  25  26
ATOM     26  O   UNL     1       3.920   3.861  -9.795  0.00  0.00    -0.488 OA
BRANCH  26  27
ATOM     27  C   UNL     1       3.960   5.205  -9.600  0.00  0.00    +0.124 A 
ATOM     28  C   UNL     1       2.946   6.010 -10.099  0.00  0.00    +0.049 A 
ATOM     29  C   UNL     1       2.989   7.376  -9.900  0.00  0.00    -0.047 A 
ATOM     30  C   UNL     1       4.041   7.942  -9.204  0.00  0.00    +0.004 A 
ATOM     31  C   UNL     1       5.053   7.142  -8.706  0.00  0.00    +0.008 A 
ATOM     32  C   UNL     1       5.012   5.774  -8.898  0.00  0.00    -0.003 A 
ATOM     33  C   UNL     1       1.888   8.251 -10.442  0.00  0.00    +0.044 C 
BRANCH  32  34
ATOM     34  C   UNL     1       6.112   4.902  -8.349  0.00  0.00    +0.016 C 
ATOM     35  C   UNL     1       7.450   5.325  -8.959  0.00  0.00    +0.012 C 
ATOM     36  C   UNL     1       6.173   5.055  -6.828  0.00  0.00    +0.012 C 
ENDBRANCH  32  34
ENDBRANCH  26  27
ENDBRANCH  25  26
ENDBRANCH  24  25
ENDBRANCH  23  24
ENDBRANCH   6  23
TORSDOF 8
