REMARK  Name = ZINC39688621
REMARK  10 active torsions:
REMARK  status: ('A' for Active; 'I' for Inactive)
REMARK    1  A    between atoms: C_1  and  C_2
REMARK    2  A    between atoms: C_3  and  C_12
REMARK    3  A    between atoms: C_7  and  O_8
REMARK    4  A    between atoms: O_8  and  C_9
REMARK    5  A    between atoms: C_9  and  C_11
REMARK    6  A    between atoms: C_16  and  C_25
REMARK    7  A    between atoms: N_27  and  C_28
REMARK    8  A    between atoms: C_28  and  C_30
REMARK    9  A    between atoms: C_28  and  C_31
REMARK   10  A    between atoms: C_31  and  C_32
REMARK                            x       y       z     vdW  Elec       q    Type
REMARK                         _______ _______ _______ _____ _____    ______ ____
ROOT
ATOM      1  C   UNL     1      -0.312  -0.002  -2.823  0.00  0.00    +0.247 C 
ATOM      2  O   UNL     1      -0.255   1.204  -2.967  0.00  0.00    -0.270 OA
ATOM      3  N   UNL     1      -0.511  -0.798  -3.892  0.00  0.00    -0.296 N 
ATOM      4  C   UNL     1      -0.734  -2.263  -3.904  0.00  0.00    +0.121 C 
ATOM      5  C   UNL     1      -1.807  -2.486  -4.993  0.00  0.00    +0.100 C 
ATOM      6  C   UNL     1      -1.683  -1.266  -5.921  0.00  0.00    -0.004 C 
ATOM      7  C   UNL     1      -0.561  -0.406  -5.321  0.00  0.00    +0.115 C 
ATOM      8  C   UNL     1      -1.312  -1.711  -7.332  0.00  0.00    -0.010 C 
ATOM      9  C   UNL     1      -1.251  -0.486  -8.250  0.00  0.00    -0.082 C 
ATOM     10  N   UNL     1      -2.554   0.188  -8.255  0.00  0.00    +0.379 N 
ATOM     11  C   UNL     1      -2.861   0.695  -6.912  0.00  0.00    -0.082 C 
ATOM     12  C   UNL     1      -2.990  -0.479  -5.938  0.00  0.00    -0.010 C 
ATOM     13  H   UNL     1      -2.530   0.959  -8.906  0.00  0.00    -0.086 HD
ATOM     14  H   UNL     1      -3.269  -0.465  -8.538  0.00  0.00    -0.086 HD
ENDROOT
BRANCH   1  17
ATOM     15  C   UNL     1      -1.389   1.387  -0.525  0.00  0.00    +0.048 C 
ATOM     16  C   UNL     1      -0.681   0.067  -0.361  0.00  0.00    +0.004 A 
ATOM     17  C   UNL     1      -0.165  -0.594  -1.477  0.00  0.00    +0.043 A 
ATOM     18  C   UNL     1       0.489  -1.816  -1.317  0.00  0.00    +0.013 A 
ATOM     19  C   UNL     1       0.625  -2.366  -0.058  0.00  0.00    +0.004 A 
ATOM     20  C   UNL     1       0.113  -1.710   1.046  0.00  0.00    +0.047 A 
ATOM     21  C   UNL     1      -0.535  -0.492   0.897  0.00  0.00    +0.135 A 
BRANCH  21  22
ATOM     22  O   UNL     1      -1.032   0.151   1.987  0.00  0.00    -0.426 OA
BRANCH  22  23
ATOM     23  C   UNL     1      -0.350   1.206   2.462  0.00  0.00    +0.309 C 
ATOM     24  O   UNL     1       0.718   1.501   1.980  0.00  0.00    -0.251 OA
ATOM     25  C   UNL     1      -0.918   2.022   3.594  0.00  0.00    +0.136 C 
ENDBRANCH  22  23
ENDBRANCH  21  22
ENDBRANCH   1  17
BRANCH   5  26
ATOM     26  C   UNL     1      -3.180  -2.539  -4.374  0.00  0.00    +0.218 C 
ATOM     27  O   UNL     1      -3.439  -1.847  -3.413  0.00  0.00    -0.275 OA
ATOM     28  N   UNL     1      -4.120  -3.357  -4.888  0.00  0.00    -0.312 N 
ATOM     29  H   UNL     1      -3.913  -3.911  -5.657  0.00  0.00    +0.149 HD
BRANCH  28  30
ATOM     30  C   UNL     1      -5.455  -3.409  -4.287  0.00  0.00    +0.074 C 
ATOM     31  C   UNL     1      -5.449  -4.394  -3.116  0.00  0.00    +0.028 C 
BRANCH  30  32
ATOM     32  C   UNL     1      -6.470  -3.869  -5.335  0.00  0.00    +0.057 C 
BRANCH  32  33
ATOM     33  C   UNL     1      -6.565  -2.837  -6.429  0.00  0.00    -0.045 A 
ATOM     34  C   UNL     1      -7.479  -1.804  -6.326  0.00  0.00    +0.006 A 
ATOM     35  C   UNL     1      -7.567  -0.857  -7.328  0.00  0.00    +0.038 A 
ATOM     36  C   UNL     1      -6.740  -0.942  -8.435  0.00  0.00    +0.123 A 
ATOM     37  C   UNL     1      -5.826  -1.976  -8.537  0.00  0.00    +0.038 A 
ATOM     38  C   UNL     1      -5.735  -2.920  -7.531  0.00  0.00    +0.006 A 
ATOM     39  F   UNL     1      -6.826  -0.017  -9.416  0.00  0.00    -0.205 F 
ENDBRANCH  32  33
ENDBRANCH  30  32
ENDBRANCH  28  30
ENDBRANCH   5  26
TORSDOF 7
