REMARK  Name = ZINC19112816
REMARK  7 active torsions:
REMARK  status: ('A' for Active; 'I' for Inactive)
REMARK    1  A    between atoms: C_6  and  C_7
REMARK    2  A    between atoms: C_7  and  N_55
REMARK    3  A    between atoms: C_13  and  C_15
REMARK    4  A    between atoms: C_15  and  C_16
REMARK    5  A    between atoms: N_18  and  C_19
REMARK    6  A    between atoms: C_19  and  C_20
REMARK    7  A    between atoms: C_20  and  O_26
REMARK                            x       y       z     vdW  Elec       q    Type
REMARK                         _______ _______ _______ _____ _____    ______ ____
ROOT
ATOM      1  C   UNL     1      -4.612   3.571   1.254  0.00  0.00    -0.058 C 
ATOM      2  C   UNL     1      -4.330   4.594   0.152  0.00  0.00    +0.085 C 
ATOM      3  N   UNL     1      -3.912   3.912  -1.069  0.00  0.00    -0.318 N 
ATOM      4  C   UNL     1      -3.467   2.651  -1.081  0.00  0.00    +0.200 C 
ATOM      5  O   UNL     1      -3.111   2.171  -2.136  0.00  0.00    -0.278 OA
ATOM      6  C   UNL     1      -3.391   1.804   0.157  0.00  0.00    +0.028 C 
ATOM      7  H   UNL     1      -3.959   4.395  -1.909  0.00  0.00    +0.149 HD
ATOM      8  N   UNL     1      -3.446   2.670   1.350  0.00  0.00    +0.391 N 
ATOM      9  H   UNL     1      -2.589   3.233   1.395  0.00  0.00    -0.080 HD
ENDROOT
BRANCH   8  10
ATOM     10  C   UNL     1      -3.542   1.842   2.574  0.00  0.00    -0.042 C 
BRANCH  10  16
ATOM     11  C   UNL     1      -2.601   3.219   4.439  0.00  0.00    +0.004 A 
ATOM     12  C   UNL     1      -2.755   4.051   5.532  0.00  0.00    +0.038 A 
ATOM     13  C   UNL     1      -4.024   4.401   5.961  0.00  0.00    +0.123 A 
ATOM     14  C   UNL     1      -5.137   3.921   5.291  0.00  0.00    +0.038 A 
ATOM     15  C   UNL     1      -4.980   3.093   4.196  0.00  0.00    +0.004 A 
ATOM     16  C   UNL     1      -3.712   2.744   3.768  0.00  0.00    -0.064 A 
ATOM     17  F   UNL     1      -4.177   5.210   7.032  0.00  0.00    -0.205 F 
ENDBRANCH  10  16
ENDBRANCH   8  10
BRANCH   6  18
ATOM     18  C   UNL     1      -2.070   1.031   0.164  0.00  0.00    +0.089 C 
BRANCH  18  19
ATOM     19  C   UNL     1      -0.919   2.004   0.156  0.00  0.00    +0.212 C 
ATOM     20  O   UNL     1      -1.131   3.195   0.244  0.00  0.00    -0.276 OA
ATOM     21  N   UNL     1       0.345   1.550   0.051  0.00  0.00    -0.313 N 
ATOM     22  H   UNL     1       0.515   0.598  -0.019  0.00  0.00    +0.149 HD
BRANCH  21  23
ATOM     23  C   UNL     1       1.464   2.496   0.038  0.00  0.00    +0.138 C 
BRANCH  23  24
ATOM     24  C   UNL     1       2.780   1.728  -0.096  0.00  0.00    +0.081 C 
ATOM     25  C   UNL     1       2.877   0.684   1.020  0.00  0.00    +0.036 C 
ATOM     26  C   UNL     1       4.193  -0.084   0.886  0.00  0.00    +0.003 C 
ATOM     27  C   UNL     1       5.367   0.891   0.997  0.00  0.00    +0.000 C 
ATOM     28  C   UNL     1       5.270   1.935  -0.118  0.00  0.00    +0.003 C 
ATOM     29  C   UNL     1       3.954   2.703   0.015  0.00  0.00    +0.036 C 
BRANCH  24  30
ATOM     30  O   UNL     1       2.823   1.073  -1.365  0.00  0.00    -0.387 OA
ATOM     31  H   UNL     1       2.107   0.439  -1.505  0.00  0.00    +0.210 HD
ENDBRANCH  24  30
ENDBRANCH  23  24
ENDBRANCH  21  23
ENDBRANCH  18  19
ENDBRANCH   6  18
TORSDOF 7
