REMARK  Name = ZINC63150958
REMARK  7 active torsions:
REMARK  status: ('A' for Active; 'I' for Inactive)
REMARK    1  A    between atoms: C_1  and  O_2
REMARK    2  A    between atoms: O_2  and  C_3
REMARK    3  A    between atoms: C_6  and  C_9
REMARK    4  A    between atoms: C_13  and  S_15
REMARK    5  A    between atoms: S_15  and  C_16
REMARK    6  A    between atoms: C_16  and  C_17
REMARK    7  A    between atoms: C_32  and  C_34
REMARK                            x       y       z     vdW  Elec       q    Type
REMARK                         _______ _______ _______ _____ _____    ______ ____
ROOT
ATOM      1  C   UNL     1       5.813  -1.925   9.856  0.00  0.00    +0.226 C 
ATOM      2  O   UNL     1       5.805  -0.713   9.896  0.00  0.00    -0.275 OA
ATOM      3  N   UNL     1       6.407  -2.628  10.841  0.00  0.00    -0.287 N 
ATOM      4  C   UNL     1       6.418  -4.093  10.782  0.00  0.00    +0.113 C 
ATOM      5  C   UNL     1       5.754  -4.662  12.049  0.00  0.00    +0.052 C 
ATOM      6  C   UNL     1       6.320  -3.894  13.217  0.00  0.00    -0.035 C 
ATOM      7  C   UNL     1       6.881  -4.304  14.348  0.00  0.00    -0.001 A 
ATOM      8  C   UNL     1       7.057  -5.647  14.924  0.00  0.00    +0.010 A 
ATOM      9  C   UNL     1       7.708  -5.708  16.116  0.00  0.00    +0.001 A 
ATOM     10  C   UNL     1       8.196  -4.580  16.784  0.00  0.00    +0.002 A 
ATOM     11  C   UNL     1       8.071  -3.307  16.332  0.00  0.00    +0.026 A 
ATOM     12  C   UNL     1       7.397  -3.114  15.091  0.00  0.00    +0.043 A 
ATOM     13  N   UNL     1       7.120  -2.020  14.446  0.00  0.00    -0.375 N 
ATOM     14  C   UNL     1       6.347  -2.371  13.254  0.00  0.00    +0.135 C 
ATOM     15  C   UNL     1       7.043  -1.916  11.961  0.00  0.00    +0.206 C 
ATOM     16  H   UNL     1       7.382  -1.124  14.709  0.00  0.00    +0.160 HD
ENDROOT
BRANCH  15  17
ATOM     17  C   UNL     1       8.531  -2.267  12.020  0.00  0.00    +0.410 C 
ATOM     18  F   UNL     1       9.147  -1.888  10.822  0.00  0.00    -0.169 F 
ATOM     19  F   UNL     1       9.129  -1.587  13.086  0.00  0.00    -0.169 F 
ATOM     20  F   UNL     1       8.679  -3.646  12.204  0.00  0.00    -0.169 F 
ENDBRANCH  15  17
BRANCH   1  21
ATOM     21  C   UNL     1       5.160  -2.646   8.706  0.00  0.00    +0.173 C 
BRANCH  21  22
ATOM     22  S   UNL     1       4.455  -1.434   7.555  0.00  0.00    -0.077 S 
BRANCH  22  27
ATOM     23  C   UNL     1       2.577  -2.540   4.293  0.00  0.00    +0.075 A 
ATOM     24  C   UNL     1       2.649  -3.935   4.354  0.00  0.00    +0.048 A 
ATOM     25  C   UNL     1       3.294  -4.516   5.430  0.00  0.00    +0.116 A 
ATOM     26  N   UNL     1       3.821  -3.740   6.365  0.00  0.00    -0.230 NA
ATOM     27  C   UNL     1       3.738  -2.420   6.283  0.00  0.00    +0.189 A 
ATOM     28  N   UNL     1       3.134  -1.823   5.266  0.00  0.00    -0.222 NA
BRANCH  23  32
ATOM     29  C   UNL     1       0.625  -0.618   1.041  0.00  0.00    +0.120 A 
ATOM     30  C   UNL     1       1.202   0.142   2.050  0.00  0.00    +0.046 A 
ATOM     31  C   UNL     1       1.835  -0.478   3.106  0.00  0.00    +0.013 A 
ATOM     32  C   UNL     1       1.896  -1.870   3.160  0.00  0.00    +0.001 A 
ATOM     33  C   UNL     1       1.317  -2.631   2.145  0.00  0.00    +0.013 A 
ATOM     34  C   UNL     1       0.680  -2.005   1.094  0.00  0.00    +0.046 A 
BRANCH  29  36
ATOM     35  C   UNL     1      -0.017   1.425   0.010  0.00  0.00    +0.277 C 
ATOM     36  O   UNL     1       0.002  -0.004   0.002  0.00  0.00    -0.495 OA
ENDBRANCH  29  36
ENDBRANCH  23  32
ENDBRANCH  22  27
ENDBRANCH  21  22
ENDBRANCH   1  21
TORSDOF 6
