REMARK  Name = ZINC20503598
REMARK  5 active torsions:
REMARK  status: ('A' for Active; 'I' for Inactive)
REMARK    1  A    between atoms: C_1  and  C_2
REMARK    2  A    between atoms: C_3  and  N_9
REMARK    3  A    between atoms: C_18  and  C_20
REMARK    4  A    between atoms: C_20  and  S_21
REMARK    5  A    between atoms: S_21  and  C_22
REMARK                            x       y       z     vdW  Elec       q    Type
REMARK                         _______ _______ _______ _____ _____    ______ ____
ROOT
ATOM      1  N   UNL     1      -3.568   1.902  -0.183  0.00  0.00    -0.327 N 
ATOM      2  C   UNL     1      -2.438   1.254   0.262  0.00  0.00    +0.180 C 
ATOM      3  N   UNL     1      -2.452  -0.037   0.430  0.00  0.00    -0.371 N 
ATOM      4  N   UNL     1      -1.291   1.973   0.529  0.00  0.00    -0.298 N 
ATOM      5  C   UNL     1      -0.163   1.327   0.973  0.00  0.00    +0.212 A 
ATOM      6  N   UNL     1       0.963   2.046   1.228  0.00  0.00    -0.175 NA
ATOM      7  C   UNL     1       2.077   1.418   1.659  0.00  0.00    +0.275 A 
ATOM      8  O   UNL     1       3.095   2.048   1.893  0.00  0.00    -0.266 OA
ATOM      9  C   UNL     1       2.041   0.023   1.835  0.00  0.00    +0.094 A 
ATOM     10  C   UNL     1       0.882  -0.646   1.563  0.00  0.00    +0.034 A 
ATOM     11  N   UNL     1      -0.190   0.021   1.140  0.00  0.00    -0.328 N 
ATOM     12  H   UNL     1      -3.570   2.997  -0.287  0.00  0.00    +0.169 HD
ATOM     13  H   UNL     1      -1.549  -0.554   0.786  0.00  0.00    +0.159 HD
ATOM     14  H   UNL     1      -1.280   3.064   0.387  0.00  0.00    +0.172 HD
ATOM     15  H   UNL     1      -3.366  -0.610   0.217  0.00  0.00    +0.159 HD
ATOM     16  H   UNL     1      -1.111  -0.542   0.928  0.00  0.00    +0.168 HD
ENDROOT
BRANCH   1  19
ATOM     17  C   UNL     1      -3.540   0.332  -2.556  0.00  0.00    +0.047 C 
ATOM     18  C   UNL     1      -4.744   0.388  -1.652  0.00  0.00    -0.009 A 
ATOM     19  C   UNL     1      -4.715   1.168  -0.503  0.00  0.00    +0.046 A 
ATOM     20  C   UNL     1      -5.829   1.222   0.325  0.00  0.00    +0.026 A 
ATOM     21  C   UNL     1      -6.960   0.495   0.007  0.00  0.00    +0.003 A 
ATOM     22  C   UNL     1      -6.985  -0.285  -1.134  0.00  0.00    +0.020 A 
ATOM     23  C   UNL     1      -5.876  -0.341  -1.962  0.00  0.00    +0.046 A 
ATOM     24 CL   UNL     1      -5.912  -1.323  -3.393  0.00  0.00    -0.083 Cl
ENDBRANCH   1  19
BRANCH  10  25
ATOM     25  C   UNL     1       0.817  -2.140   1.744  0.00  0.00    +0.129 C 
BRANCH  25  26
ATOM     26  S   UNL     1      -0.118  -2.527   3.245  0.00  0.00    -0.093 S 
BRANCH  26  27
ATOM     27  C   UNL     1      -0.040  -4.287   3.210  0.00  0.00    +0.136 A 
ATOM     28  N   UNL     1      -0.547  -5.152   4.059  0.00  0.00    -0.233 NA
ATOM     29  C   UNL     1      -0.408  -6.486   3.905  0.00  0.00    +0.079 A 
ATOM     30  C   UNL     1      -0.901  -7.517   4.738  0.00  0.00    +0.029 A 
ATOM     31  C   UNL     1      -0.670  -8.834   4.434  0.00  0.00    +0.002 A 
ATOM     32  C   UNL     1       0.051  -9.202   3.308  0.00  0.00    +0.001 A 
ATOM     33  C   UNL     1       0.549  -8.219   2.471  0.00  0.00    +0.017 A 
ATOM     34  C   UNL     1       0.321  -6.899   2.767  0.00  0.00    +0.040 A 
ATOM     35  S   UNL     1       0.744  -5.350   2.006  0.00  0.00    -0.061 S 
ENDBRANCH  26  27
ENDBRANCH  25  26
ENDBRANCH  10  25
TORSDOF 4
