REMARK  Name = ZINC32542227
REMARK  9 active torsions:
REMARK  status: ('A' for Active; 'I' for Inactive)
REMARK    1  A    between atoms: C_1  and  C_2
REMARK    2  A    between atoms: C_2  and  C_4
REMARK    3  A    between atoms: C_2  and  N_14
REMARK    4  A    between atoms: C_7  and  S_10
REMARK    5  A    between atoms: S_10  and  N_13
REMARK    6  A    between atoms: N_14  and  C_15
REMARK    7  A    between atoms: N_14  and  C_16
REMARK    8  A    between atoms: C_16  and  C_17
REMARK    9  A    between atoms: N_19  and  C_20
REMARK                            x       y       z     vdW  Elec       q    Type
REMARK                         _______ _______ _______ _____ _____    ______ ____
ROOT
ATOM      1  N   UNL     1      -2.561   5.024   2.223  0.00  0.00    +0.388 N 
ATOM      2  C   UNL     1      -1.487   6.008   2.033  0.00  0.00    -0.095 C 
ATOM      3  H   UNL     1      -3.151   4.986   1.295  0.00  0.00    -0.081 HD
ENDROOT
BRANCH   1   5
ATOM      4  C   UNL     1      -4.617   4.434   3.415  0.00  0.00    -0.008 C 
ATOM      5  C   UNL     1      -3.459   5.428   3.312  0.00  0.00    -0.041 C 
BRANCH   5   6
ATOM      6  C   UNL     1      -4.003   6.805   3.031  0.00  0.00    -0.061 A 
ATOM      7  C   UNL     1      -4.365   7.156   1.744  0.00  0.00    +0.004 A 
ATOM      8  C   UNL     1      -4.868   8.417   1.486  0.00  0.00    +0.029 A 
ATOM      9  C   UNL     1      -5.000   9.332   2.514  0.00  0.00    +0.105 A 
ATOM     10  C   UNL     1      -4.634   8.983   3.801  0.00  0.00    +0.029 A 
ATOM     11  C   UNL     1      -4.135   7.720   4.059  0.00  0.00    +0.004 A 
BRANCH   9  12
ATOM     12  S   UNL     1      -5.636  10.942   2.185  0.00  0.00    +0.056 S 
ATOM     13  O   UNL     1      -6.415  10.837   1.001  0.00  0.00    -0.153 OA
ATOM     14  O   UNL     1      -6.171  11.425   3.409  0.00  0.00    -0.153 OA
BRANCH  12  15
ATOM     15  N   UNL     1      -4.345  11.912   1.817  0.00  0.00    -0.204 NA
ATOM     16  H   UNL     1      -4.701  12.931   1.604  0.00  0.00    +0.144 HD
ATOM     17  H   UNL     1      -3.826  11.512   0.933  0.00  0.00    +0.144 HD
ENDBRANCH  12  15
ENDBRANCH   9  12
ENDBRANCH   5   6
ENDBRANCH   1   5
BRANCH   1  18
ATOM     18  C   UNL     1      -2.011   3.684   2.463  0.00  0.00    +0.019 C 
BRANCH  18  19
ATOM     19  C   UNL     1      -1.298   3.203   1.225  0.00  0.00    +0.197 C 
ATOM     20  O   UNL     1      -1.254   3.908   0.239  0.00  0.00    -0.278 OA
ATOM     21  N   UNL     1      -0.711   1.990   1.214  0.00  0.00    -0.310 N 
ATOM     22  H   UNL     1      -0.752   1.351   2.108  0.00  0.00    +0.149 HD
BRANCH  21  23
ATOM     23  C   UNL     1      -0.019   1.523   0.010  0.00  0.00    +0.103 C 
ATOM     24  C   UNL     1       0.002  -0.004   0.002  0.00  0.00    +0.027 C 
ATOM     25  C   UNL     1       0.911  -0.469  -1.142  0.00  0.00    +0.007 C 
ATOM     26  C   UNL     1       2.355  -0.131  -0.777  0.00  0.00    +0.035 C 
ATOM     27  C   UNL     1       2.474   1.313  -0.365  0.00  0.00    -0.042 A 
ATOM     28  C   UNL     1       1.384   2.072   0.000  0.00  0.00    -0.024 A 
ATOM     29  C   UNL     1       1.563   3.396   0.376  0.00  0.00    +0.006 A 
ATOM     30  C   UNL     1       2.823   3.959   0.383  0.00  0.00    +0.000 A 
ATOM     31  C   UNL     1       3.916   3.199   0.012  0.00  0.00    +0.000 A 
ATOM     32  C   UNL     1       3.741   1.882  -0.360  0.00  0.00    +0.004 A 
ENDBRANCH  21  23
ENDBRANCH  18  19
ENDBRANCH   1  18
TORSDOF 7
