REMARK  Name = ZINC08869064
REMARK  10 active torsions:
REMARK  status: ('A' for Active; 'I' for Inactive)
REMARK    1  A    between atoms: C_1  and  O_2
REMARK    2  A    between atoms: O_2  and  C_3
REMARK    3  A    between atoms: C_6  and  N_9
REMARK    4  A    between atoms: C_14  and  C_32
REMARK    5  A    between atoms: C_17  and  C_22
REMARK    6  A    between atoms: C_17  and  C_29
REMARK    7  A    between atoms: C_22  and  C_23
REMARK    8  A    between atoms: C_35  and  O_39
REMARK    9  A    between atoms: C_37  and  O_38
REMARK   10  A    between atoms: O_39  and  C_40
REMARK                            x       y       z     vdW  Elec       q    Type
REMARK                         _______ _______ _______ _____ _____    ______ ____
ROOT
ATOM      1  N   UNL     1      -5.236  -2.534   0.216  0.00  0.00    -0.210 N 
ATOM      2  C   UNL     1      -6.481  -2.040  -0.085  0.00  0.00    +0.229 C 
ATOM      3  O   UNL     1      -6.764  -0.917  -0.446  0.00  0.00    -0.275 OA
ATOM      4  C   UNL     1      -7.378  -3.150   0.123  0.00  0.00    +0.077 C 
ATOM      5  C   UNL     1      -8.723  -3.612  -0.260  0.00  0.00    -0.023 C 
ATOM      6  N   UNL     1      -8.721  -5.031   0.237  0.00  0.00    +0.396 N 
ATOM      7  C   UNL     1      -7.300  -5.479   0.338  0.00  0.00    +0.052 C 
ATOM      8  C   UNL     1      -6.487  -4.369  -0.346  0.00  0.00    +0.086 C 
ATOM      9  C   UNL     1      -5.217  -3.897   0.305  0.00  0.00    +0.229 C 
ATOM     10  O   UNL     1      -4.355  -4.586   0.808  0.00  0.00    -0.275 OA
ATOM     11  H   UNL     1      -9.159  -5.075   1.145  0.00  0.00    -0.083 HD
ATOM     12  H   UNL     1      -9.220  -5.621  -0.412  0.00  0.00    -0.083 HD
ENDROOT
BRANCH   1  16
ATOM     13  C   UNL     1      -1.870  -0.135   0.777  0.00  0.00    +0.120 A 
ATOM     14  C   UNL     1      -3.094   0.447   0.481  0.00  0.00    +0.047 A 
ATOM     15  C   UNL     1      -4.208  -0.347   0.295  0.00  0.00    +0.027 A 
ATOM     16  C   UNL     1      -4.103  -1.727   0.404  0.00  0.00    +0.044 A 
ATOM     17  C   UNL     1      -2.878  -2.308   0.701  0.00  0.00    +0.027 A 
ATOM     18  C   UNL     1      -1.763  -1.514   0.881  0.00  0.00    +0.047 A 
BRANCH  13  20
ATOM     19  C   UNL     1      -0.955   2.060   0.839  0.00  0.00    +0.277 C 
ATOM     20  O   UNL     1      -0.773   0.647   0.960  0.00  0.00    -0.495 OA
ENDBRANCH  13  20
ENDBRANCH   1  16
BRANCH   5  21
ATOM     21  C   UNL     1      -9.788  -2.800   0.431  0.00  0.00    -0.019 A 
ATOM     22  C   UNL     1      -9.460  -2.019   1.523  0.00  0.00    +0.009 A 
ATOM     23  C   UNL     1     -10.435  -1.274   2.158  0.00  0.00    +0.046 A 
ATOM     24  C   UNL     1     -11.745  -1.308   1.701  0.00  0.00    +0.124 A 
ATOM     25  C   UNL     1     -12.075  -2.091   0.606  0.00  0.00    +0.091 A 
ATOM     26  C   UNL     1     -11.095  -2.833  -0.033  0.00  0.00    +0.122 A 
BRANCH  26  27
ATOM     27  O   UNL     1     -11.415  -3.597  -1.111  0.00  0.00    -0.506 OA
ATOM     28  H   UNL     1     -11.680  -4.500  -0.888  0.00  0.00    +0.292 HD
ENDBRANCH  26  27
BRANCH  24  29
ATOM     29  O   UNL     1     -12.703  -0.575   2.327  0.00  0.00    -0.495 OA
ATOM     30  C   UNL     1     -12.291   0.209   3.449  0.00  0.00    +0.277 C 
ENDBRANCH  24  29
ENDBRANCH   5  21
BRANCH   7  31
ATOM     31  C   UNL     1      -7.109  -6.779  -0.401  0.00  0.00    +0.347 C 
ATOM     32  O   UNL     1      -8.059  -7.317  -0.943  0.00  0.00    -0.248 OA
ATOM     33  O   UNL     1      -6.004  -7.292  -0.455  0.00  0.00    -0.248 OA
ENDBRANCH   7  31
BRANCH   7  34
ATOM     34  C   UNL     1      -6.897  -5.637   1.805  0.00  0.00    +0.035 C 
BRANCH  34  35
ATOM     35  C   UNL     1      -7.799  -6.648   2.467  0.00  0.00    -0.048 A 
ATOM     36  C   UNL     1      -8.911  -6.226   3.170  0.00  0.00    +0.003 A 
ATOM     37  C   UNL     1      -9.738  -7.153   3.777  0.00  0.00    +0.000 A 
ATOM     38  C   UNL     1      -9.452  -8.502   3.680  0.00  0.00    +0.000 A 
ATOM     39  C   UNL     1      -8.340  -8.924   2.976  0.00  0.00    +0.000 A 
ATOM     40  C   UNL     1      -7.516  -7.997   2.365  0.00  0.00    +0.003 A 
ENDBRANCH  34  35
ENDBRANCH   7  34
TORSDOF 8
