REMARK  Name = ZINC03235934
REMARK  1 active torsions:
REMARK  status: ('A' for Active; 'I' for Inactive)
REMARK    1  A    between atoms: C_13  and  C_15
REMARK                            x       y       z     vdW  Elec       q    Type
REMARK                         _______ _______ _______ _____ _____    ______ ____
ROOT
ATOM      1  C   UNL     1      -0.017   1.372   0.010  0.00  0.00    +0.001 A 
ATOM      2  C   UNL     1       1.161   2.099   0.002  0.00  0.00    +0.002 A 
ATOM      3  C   UNL     1       2.377   1.432  -0.013  0.00  0.00    +0.029 A 
ATOM      4  C   UNL     1       2.400   0.067  -0.021  0.00  0.00    +0.121 A 
ATOM      5  C   UNL     1       1.225  -0.698  -0.013  0.00  0.00    +0.065 A 
ATOM      6  C   UNL     1       0.002  -0.004   0.002  0.00  0.00    +0.015 A 
ATOM      7  C   UNL     1       1.491  -2.142  -0.025  0.00  0.00    +0.275 C 
ATOM      8  O   UNL     1       0.579  -2.945  -0.021  0.00  0.00    -0.268 OA
ATOM      9  N   UNL     1       2.769  -2.550  -0.040  0.00  0.00    -0.097 N 
ATOM     10  S   UNL     1       3.687  -1.151  -0.040  0.00  0.00    +0.085 S 
ATOM     11  O   UNL     1       4.368  -1.080   1.205  0.00  0.00    -0.149 OA
ATOM     12  O   UNL     1       4.343  -1.066  -1.298  0.00  0.00    -0.149 OA
ATOM     13  C   UNL     1       3.219  -3.821  -0.051  0.00  0.00    +0.279 C 
ATOM     14  O   UNL     1       2.429  -4.746  -0.048  0.00  0.00    -0.267 OA
ENDROOT
BRANCH  13  15
ATOM     15  C   UNL     1       4.659  -4.087  -0.066  0.00  0.00    +0.077 A 
ATOM     16  C   UNL     1       5.320  -5.299  -0.084  0.00  0.00    +0.024 A 
ATOM     17  C   UNL     1       6.715  -5.256  -0.095  0.00  0.00    -0.036 A 
ATOM     18  C   UNL     1       7.287  -4.024  -0.085  0.00  0.00    -0.006 A 
ATOM     19  S   UNL     1       6.016  -2.932  -0.074  0.00  0.00    -0.088 S 
ATOM     20  C   UNL     1       8.791  -4.106  -0.091  0.00  0.00    +0.043 C 
ATOM     21  C   UNL     1       9.105  -5.558   0.330  0.00  0.00    +0.010 C 
ATOM     22  C   UNL     1       7.833  -6.303  -0.120  0.00  0.00    +0.036 C 
ENDBRANCH  13  15
TORSDOF 1
