REMARK  Name = ZINC59170435
REMARK  12 active torsions:
REMARK  status: ('A' for Active; 'I' for Inactive)
REMARK    1  A    between atoms: C_1  and  C_2
REMARK    2  A    between atoms: C_5  and  S_8
REMARK    3  A    between atoms: S_8  and  N_11
REMARK    4  A    between atoms: N_11  and  N_12
REMARK    5  A    between atoms: C_14  and  C_28
REMARK    6  A    between atoms: C_18  and  C_24
REMARK    7  A    between atoms: C_20  and  O_23
REMARK    8  A    between atoms: C_24  and  C_25
REMARK    9  A    between atoms: C_24  and  C_26
REMARK   10  A    between atoms: C_24  and  C_27
REMARK   11  A    between atoms: N_30  and  C_31
REMARK   12  A    between atoms: C_35  and  C_37
REMARK                            x       y       z     vdW  Elec       q    Type
REMARK                         _______ _______ _______ _____ _____    ______ ____
ROOT
ATOM      1  N   UNL     1       3.298  -3.612  -0.170  0.00  0.00    -0.260 N 
ATOM      2  C   UNL     1       4.390  -4.286   0.055  0.00  0.00    +0.225 A 
ATOM      3  C   UNL     1       5.050  -4.253   1.381  0.00  0.00    +0.099 A 
ATOM      4  C   UNL     1       5.809  -5.343   1.733  0.00  0.00    +0.030 A 
ATOM      5  C   UNL     1       5.902  -6.447   0.769  0.00  0.00    +0.022 A 
ATOM      6  C   UNL     1       6.423  -7.687   1.154  0.00  0.00    +0.016 A 
ATOM      7  C   UNL     1       6.500  -8.711   0.234  0.00  0.00    -0.038 A 
ATOM      8  C   UNL     1       6.063  -8.520  -1.067  0.00  0.00    +0.053 A 
ATOM      9  C   UNL     1       5.545  -7.297  -1.463  0.00  0.00    +0.160 A 
ATOM     10  C   UNL     1       5.462  -6.252  -0.550  0.00  0.00    +0.179 A 
ATOM     11  O   UNL     1       4.960  -5.050  -0.922  0.00  0.00    -0.434 OA
ATOM     12  H   UNL     1       2.860  -3.142   0.557  0.00  0.00    +0.189 HD
ENDROOT
BRANCH   7  13
ATOM     13  C   UNL     1       7.062 -10.047   0.647  0.00  0.00    -0.013 C 
ATOM     14  C   UNL     1       6.217 -10.628   1.782  0.00  0.00    +0.015 C 
ATOM     15  C   UNL     1       7.036 -11.002  -0.548  0.00  0.00    +0.015 C 
ATOM     16  C   UNL     1       8.504  -9.868   1.125  0.00  0.00    +0.015 C 
ENDBRANCH   7  13
BRANCH   3  17
ATOM     17  C   UNL     1       4.898  -3.100   2.284  0.00  0.00    +0.253 C 
ATOM     18  O   UNL     1       4.157  -2.184   1.982  0.00  0.00    -0.270 OA
ATOM     19  N   UNL     1       5.580  -3.060   3.446  0.00  0.00    -0.281 N 
ATOM     20  H   UNL     1       6.240  -3.743   3.645  0.00  0.00    +0.155 HD
BRANCH  19  21
ATOM     21  C   UNL     1       5.338  -2.034   4.364  0.00  0.00    +0.034 A 
ATOM     22  C   UNL     1       4.065  -1.490   4.480  0.00  0.00    +0.023 A 
ATOM     23  C   UNL     1       3.828  -0.477   5.388  0.00  0.00    +0.002 A 
ATOM     24  C   UNL     1       4.857  -0.004   6.182  0.00  0.00    +0.003 A 
ATOM     25  C   UNL     1       6.125  -0.543   6.069  0.00  0.00    -0.049 A 
ATOM     26  C   UNL     1       6.367  -1.560   5.166  0.00  0.00    +0.026 A 
ATOM     27  C   UNL     1       7.244  -0.024   6.936  0.00  0.00    +0.044 C 
ENDBRANCH  19  21
ENDBRANCH   3  17
BRANCH   1  28
ATOM     28  N   UNL     1       2.756  -3.566  -1.460  0.00  0.00    -0.157 N 
ATOM     29  H   UNL     1       3.151  -4.095  -2.171  0.00  0.00    +0.194 HD
BRANCH  28  30
ATOM     30  S   UNL     1       1.440  -2.610  -1.773  0.00  0.00    +0.085 S 
ATOM     31  O   UNL     1       0.399  -3.059  -0.916  0.00  0.00    -0.149 OA
ATOM     32  O   UNL     1       1.297  -2.565  -3.186  0.00  0.00    -0.149 OA
BRANCH  30  37
ATOM     33  C   UNL     1       2.837   2.986  -0.001  0.00  0.00    +0.044 C 
ATOM     34  C   UNL     1       2.488   1.588  -0.444  0.00  0.00    -0.050 A 
ATOM     35  C   UNL     1       2.856   1.149  -1.702  0.00  0.00    +0.005 A 
ATOM     36  C   UNL     1       2.537  -0.133  -2.107  0.00  0.00    +0.029 A 
ATOM     37  C   UNL     1       1.849  -0.977  -1.255  0.00  0.00    +0.110 A 
ATOM     38  C   UNL     1       1.481  -0.538   0.003  0.00  0.00    +0.029 A 
ATOM     39  C   UNL     1       1.805   0.743   0.411  0.00  0.00    +0.005 A 
ENDBRANCH  30  37
ENDBRANCH  28  30
ENDBRANCH   1  28
BRANCH   9  40
ATOM     40  O   UNL     1       5.120  -7.119  -2.742  0.00  0.00    -0.503 OA
ATOM     41  H   UNL     1       4.187  -7.335  -2.880  0.00  0.00    +0.292 HD
ENDBRANCH   9  40
TORSDOF 7
