REMARK  Name = ZINC19946718
REMARK  12 active torsions:
REMARK  status: ('A' for Active; 'I' for Inactive)
REMARK    1  A    between atoms: C_1  and  C_2
REMARK    2  A    between atoms: C_7  and  N_8
REMARK    3  A    between atoms: C_9  and  C_11
REMARK    4  A    between atoms: C_11  and  S_12
REMARK    5  A    between atoms: S_12  and  C_13
REMARK    6  A    between atoms: C_14  and  C_37
REMARK    7  A    between atoms: C_15  and  C_32
REMARK    8  A    between atoms: C_17  and  C_21
REMARK    9  A    between atoms: C_18  and  C_20
REMARK   10  A    between atoms: N_23  and  C_24
REMARK   11  A    between atoms: C_29  and  O_30
REMARK   12  A    between atoms: O_30  and  C_31
REMARK                            x       y       z     vdW  Elec       q    Type
REMARK                         _______ _______ _______ _____ _____    ______ ____
ROOT
ATOM      1  C   UNL     1      -1.050  -0.490  -0.326  0.00  0.00    +0.080 C 
ATOM      2  C   UNL     1       0.071  -1.203  -0.034  0.00  0.00    +0.072 C 
ATOM      3  C   UNL     1       1.349  -0.518   0.360  0.00  0.00    +0.134 C 
ATOM      4  C   UNL     1       1.307   0.939   0.001  0.00  0.00    +0.047 C 
ATOM      5  C   UNL     1       0.153   1.562  -0.288  0.00  0.00    +0.015 C 
ATOM      6  N   UNL     1      -1.036   0.885  -0.276  0.00  0.00    -0.312 N 
ATOM      7  C   UNL     1       0.168   3.029  -0.632  0.00  0.00    +0.061 C 
ATOM      8  H   UNL     1      -1.983   1.444  -0.225  0.00  0.00    +0.152 HD
ENDROOT
BRANCH   3   9
ATOM      9  C   UNL     1       1.548  -0.656   1.847  0.00  0.00    +0.118 A 
ATOM     10  C   UNL     1       2.592  -1.253   2.450  0.00  0.00    +0.045 A 
ATOM     11  C   UNL     1       2.372  -1.155   3.843  0.00  0.00    +0.041 A 
ATOM     12  C   UNL     1       1.207  -0.503   4.008  0.00  0.00    +0.195 A 
ATOM     13  O   UNL     1       0.715  -0.199   2.796  0.00  0.00    -0.467 OA
ENDBRANCH   3   9
BRANCH   4  14
ATOM     14  C   UNL     1       2.515   1.676  -0.033  0.00  0.00    +0.247 C 
ATOM     15  O   UNL     1       2.499   2.859  -0.322  0.00  0.00    -0.270 OA
ATOM     16  N   UNL     1       3.683   1.068   0.254  0.00  0.00    -0.279 N 
ATOM     17  H   UNL     1       3.691   0.019   0.586  0.00  0.00    +0.155 HD
BRANCH  16  18
ATOM     18  C   UNL     1       4.888   1.771   0.129  0.00  0.00    +0.076 A 
ATOM     19  C   UNL     1       4.936   3.126   0.423  0.00  0.00    +0.027 A 
ATOM     20  C   UNL     1       6.127   3.817   0.304  0.00  0.00    +0.002 A 
ATOM     21  C   UNL     1       7.270   3.163  -0.117  0.00  0.00    +0.004 A 
ATOM     22  C   UNL     1       7.229   1.814  -0.417  0.00  0.00    +0.047 A 
ATOM     23  C   UNL     1       6.040   1.113  -0.295  0.00  0.00    +0.141 A 
BRANCH  23  24
ATOM     24  O   UNL     1       5.998  -0.213  -0.590  0.00  0.00    -0.493 OA
ATOM     25  C   UNL     1       7.218  -0.822  -1.020  0.00  0.00    +0.277 C 
ENDBRANCH  23  24
ENDBRANCH  16  18
ENDBRANCH   4  14
BRANCH   2  26
ATOM     26  C   UNL     1       0.032  -2.633  -0.103  0.00  0.00    +0.098 C 
ATOM     27  N   UNL     1       0.002  -3.767  -0.157  0.00  0.00    -0.191 NA
ENDBRANCH   2  26
BRANCH   1  28
ATOM     28  S   UNL     1      -2.531  -1.334  -0.773  0.00  0.00    -0.100 S 
BRANCH  28  29
ATOM     29  C   UNL     1      -3.631   0.079  -1.035  0.00  0.00    +0.171 C 
BRANCH  29  31
ATOM     30  N   UNL     1      -5.986   0.466  -1.687  0.00  0.00    -0.285 N 
ATOM     31  C   UNL     1      -4.997  -0.415  -1.437  0.00  0.00    +0.227 C 
ATOM     32  O   UNL     1      -5.206  -1.606  -1.537  0.00  0.00    -0.275 OA
ATOM     33  H   UNL     1      -5.778   1.546  -1.669  0.00  0.00    +0.155 HD
BRANCH  30  40
ATOM     34  C   UNL     1      -8.192   2.003  -0.755  0.00  0.00    +0.045 C 
ATOM     35  C   UNL     1      -8.382   0.726  -1.532  0.00  0.00    -0.029 A 
ATOM     36  C   UNL     1      -9.655   0.273  -1.817  0.00  0.00    +0.005 A 
ATOM     37  C   UNL     1      -9.831  -0.902  -2.525  0.00  0.00    +0.000 A 
ATOM     38  C   UNL     1      -8.733  -1.624  -2.955  0.00  0.00    +0.002 A 
ATOM     39  C   UNL     1      -7.457  -1.173  -2.679  0.00  0.00    +0.023 A 
ATOM     40  C   UNL     1      -7.277   0.006  -1.968  0.00  0.00    +0.036 A 
ENDBRANCH  30  40
ENDBRANCH  29  31
ENDBRANCH  28  29
ENDBRANCH   1  28
TORSDOF 9
