REMARK  Name = ZINC18461517
REMARK  9 active torsions:
REMARK  status: ('A' for Active; 'I' for Inactive)
REMARK    1  A    between atoms: C_1  and  C_2
REMARK    2  A    between atoms: C_2  and  C_4
REMARK    3  A    between atoms: C_2  and  O_15
REMARK    4  A    between atoms: N_6  and  C_7
REMARK    5  A    between atoms: C_8  and  C_12
REMARK    6  A    between atoms: O_15  and  C_16
REMARK    7  A    between atoms: C_16  and  C_18
REMARK    8  A    between atoms: C_21  and  O_37
REMARK    9  A    between atoms: C_25  and  C_27
REMARK                            x       y       z     vdW  Elec       q    Type
REMARK                         _______ _______ _______ _____ _____    ______ ____
ROOT
ATOM      1  C   UNL     1      -0.093  -0.569   2.231  0.00  0.00    +0.329 C 
ATOM      2  O   UNL     1      -1.268  -0.290   2.244  0.00  0.00    -0.249 OA
ENDROOT
BRANCH   1   3
ATOM      3  C   UNL     1       0.547  -1.195   3.443  0.00  0.00    +0.187 C 
ATOM      4  C   UNL     1       1.093  -2.593   3.086  0.00  0.00    +0.066 C 
ATOM      5  C   UNL     1       0.775  -3.426   4.356  0.00  0.00    +0.134 C 
ATOM      6  C   UNL     1      -0.579  -2.816   4.796  0.00  0.00    +0.140 C 
ATOM      7  N   UNL     1      -0.458  -1.373   4.502  0.00  0.00    -0.285 N 
ATOM      8  C   UNL     1      -1.150  -0.384   5.103  0.00  0.00    +0.223 C 
ATOM      9  O   UNL     1      -0.909   0.774   4.835  0.00  0.00    -0.275 OA
BRANCH   8  10
ATOM     10  C   UNL     1      -2.223  -0.718   6.106  0.00  0.00    +0.048 C 
ATOM     11  C   UNL     1      -1.578  -1.271   7.378  0.00  0.00    +0.019 C 
ATOM     12  C   UNL     1      -2.667  -1.610   8.398  0.00  0.00    -0.009 C 
ATOM     13  C   UNL     1      -3.461  -0.346   8.736  0.00  0.00    +0.007 C 
ATOM     14  C   UNL     1      -4.106   0.207   7.463  0.00  0.00    -0.009 C 
ATOM     15  C   UNL     1      -3.016   0.546   6.444  0.00  0.00    +0.019 C 
ATOM     16  C   UNL     1      -5.048  -0.844   6.872  0.00  0.00    +0.007 C 
ATOM     17  C   UNL     1      -4.255  -2.107   6.534  0.00  0.00    -0.009 C 
ATOM     18  C   UNL     1      -3.610  -2.660   7.806  0.00  0.00    +0.007 C 
ATOM     19  C   UNL     1      -3.166  -1.768   5.515  0.00  0.00    +0.019 C 
ENDBRANCH   8  10
BRANCH   5  20
ATOM     20  O   UNL     1       1.775  -3.234   5.358  0.00  0.00    -0.390 OA
ATOM     21  H   UNL     1       1.619  -3.734   6.170  0.00  0.00    +0.210 HD
ENDBRANCH   5  20
ENDBRANCH   1   3
BRANCH   1  22
ATOM     22  O   UNL     1       0.644  -0.320   1.137  0.00  0.00    -0.451 OA
BRANCH  22  24
ATOM     23  C   UNL     1       0.050   1.798   0.137  0.00  0.00    +0.062 C 
ATOM     24  C   UNL     1      -0.027   0.275   0.024  0.00  0.00    +0.259 C 
BRANCH  24  25
ATOM     25  C   UNL     1       0.634  -0.168  -1.256  0.00  0.00    +0.258 C 
ATOM     26  O   UNL     1       1.639  -0.845  -1.217  0.00  0.00    -0.271 OA
ATOM     27  N   UNL     1       0.107   0.188  -2.445  0.00  0.00    -0.276 N 
ATOM     28  H   UNL     1      -0.698   0.730  -2.476  0.00  0.00    +0.155 HD
BRANCH  27  29
ATOM     29  C   UNL     1       0.715  -0.219  -3.622  0.00  0.00    +0.084 A 
ATOM     30  C   UNL     1       0.321   0.055  -4.924  0.00  0.00    +0.065 A 
ATOM     31  C   UNL     1       1.142  -0.497  -5.977  0.00  0.00    +0.022 A 
ATOM     32  C   UNL     1       2.203  -1.221  -5.575  0.00  0.00    +0.048 A 
ATOM     33  S   UNL     1       2.099  -1.150  -3.800  0.00  0.00    -0.081 S 
BRANCH  30  34
ATOM     34  C   UNL     1      -0.867   0.863  -5.216  0.00  0.00    +0.244 C 
ATOM     35  O   UNL     1      -1.537   1.313  -4.305  0.00  0.00    -0.270 OA
ATOM     36  N   UNL     1      -1.218   1.108  -6.494  0.00  0.00    -0.325 N 
ATOM     37  H   UNL     1      -0.685   0.749  -7.221  0.00  0.00    +0.145 HD
ATOM     38  H   UNL     1      -2.004   1.642  -6.688  0.00  0.00    +0.145 HD
ENDBRANCH  30  34
ENDBRANCH  27  29
ENDBRANCH  24  25
ENDBRANCH  22  24
ENDBRANCH   1  22
TORSDOF 8
