REMARK  Name = ZINC63192151
REMARK  4 active torsions:
REMARK  status: ('A' for Active; 'I' for Inactive)
REMARK    1  A    between atoms: C_1  and  C_2
REMARK    2  A    between atoms: C_2  and  C_4
REMARK    3  A    between atoms: C_2  and  N_23
REMARK    4  A    between atoms: N_10  and  C_11
REMARK                            x       y       z     vdW  Elec       q    Type
REMARK                         _______ _______ _______ _____ _____    ______ ____
ROOT
ATOM      1  C   UNL     1       0.713  -0.371   1.528  0.00  0.00    +0.043 C 
ATOM      2  C   UNL     1       0.824  -1.896   1.582  0.00  0.00    +0.017 C 
ATOM      3  C   UNL     1       1.751  -2.295   2.734  0.00  0.00    +0.003 C 
ATOM      4  C   UNL     1       3.118  -1.637   2.530  0.00  0.00    +0.015 C 
ATOM      5  C   UNL     1       2.941  -0.119   2.449  0.00  0.00    +0.085 C 
ATOM      6  N   UNL     1       2.047   0.211   1.331  0.00  0.00    -0.286 NA
ENDROOT
BRANCH   6   7
ATOM      7  C   UNL     1       1.964   1.665   1.136  0.00  0.00    +0.176 C 
ATOM      8  C   UNL     1       3.332   2.241   0.853  0.00  0.00    +0.001 A 
ATOM      9  C   UNL     1       4.246   2.031  -0.156  0.00  0.00    +0.007 A 
ATOM     10  C   UNL     1       5.447   2.717  -0.153  0.00  0.00    +0.002 A 
ATOM     11  C   UNL     1       5.726   3.613   0.864  0.00  0.00    +0.017 A 
ATOM     12  C   UNL     1       4.811   3.825   1.876  0.00  0.00    +0.039 A 
ATOM     13  C   UNL     1       3.599   3.137   1.879  0.00  0.00    +0.053 A 
ATOM     14  N   UNL     1       2.530   3.177   2.775  0.00  0.00    -0.283 N 
ATOM     15  C   UNL     1       1.531   2.348   2.415  0.00  0.00    +0.239 C 
ATOM     16  O   UNL     1       0.484   2.179   3.004  0.00  0.00    -0.273 OA
ATOM     17 BR   UNL     1       5.205   5.052   3.260  0.00  0.00    -0.048 Br
ATOM     18  H   UNL     1       2.508   3.737   3.567  0.00  0.00    +0.155 HD
ENDBRANCH   6   7
BRANCH   1  20
ATOM     19  C   UNL     1      -1.579  -0.591   0.559  0.00  0.00    -0.013 C 
ATOM     20  C   UNL     1      -0.196   0.033   0.365  0.00  0.00    -0.061 C 
BRANCH  20  21
ATOM     21  N   UNL     1       0.384  -0.442  -0.898  0.00  0.00    +0.381 N 
ATOM     22  H   UNL     1       0.469  -1.447  -0.871  0.00  0.00    -0.090 HD
ATOM     23  H   UNL     1      -0.216  -0.176  -1.664  0.00  0.00    -0.090 HD
ATOM     24  H   UNL     1       1.296  -0.030  -1.026  0.00  0.00    -0.090 HD
ENDBRANCH  20  21
ENDBRANCH   1  20
TORSDOF 3
