REMARK  Name = ZINC35965569
REMARK  11 active torsions:
REMARK  status: ('A' for Active; 'I' for Inactive)
REMARK    1  A    between atoms: C_1  and  C_2
REMARK    2  A    between atoms: C_2  and  N_3
REMARK    3  A    between atoms: C_6  and  C_11
REMARK    4  A    between atoms: C_14  and  O_17
REMARK    5  A    between atoms: O_17  and  C_18
REMARK    6  A    between atoms: N_21  and  C_23
REMARK    7  A    between atoms: C_23  and  C_24
REMARK    8  A    between atoms: C_29  and  C_32
REMARK    9  A    between atoms: C_32  and  O_34
REMARK   10  A    between atoms: O_34  and  C_35
REMARK   11  A    between atoms: C_35  and  C_36
REMARK                            x       y       z     vdW  Elec       q    Type
REMARK                         _______ _______ _______ _____ _____    ______ ____
ROOT
ATOM      1  N   UNL     1       0.688  -0.476  -1.203  0.00  0.00    -0.257 N 
ATOM      2  C   UNL     1      -0.057  -0.690  -2.328  0.00  0.00    +0.042 C 
ATOM      3  C   UNL     1       0.512  -1.125  -3.471  0.00  0.00    +0.058 C 
ATOM      4  C   UNL     1       2.007  -1.367  -3.465  0.00  0.00    +0.142 C 
ATOM      5  N   UNL     1       2.720  -1.107  -2.203  0.00  0.00    -0.288 N 
ATOM      6  C   UNL     1       2.012  -0.670  -1.144  0.00  0.00    +0.307 C 
ATOM      7  O   UNL     1       2.592  -0.448  -0.099  0.00  0.00    -0.252 OA
ATOM      8  C   UNL     1      -0.463  -1.267  -4.480  0.00  0.00    +0.247 C 
ATOM      9  O   UNL     1      -0.229  -1.644  -5.614  0.00  0.00    -0.270 OA
ATOM     10  N   UNL     1      -1.684  -0.932  -4.027  0.00  0.00    -0.283 N 
ATOM     11  C   UNL     1      -1.533  -0.536  -2.619  0.00  0.00    +0.160 C 
ATOM     12  H   UNL     1       3.679  -1.244  -2.137  0.00  0.00    +0.151 HD
ENDROOT
BRANCH   4  13
ATOM     13  C   UNL     1       2.623  -0.500  -4.533  0.00  0.00    -0.022 A 
ATOM     14  C   UNL     1       2.860   0.839  -4.283  0.00  0.00    +0.009 A 
ATOM     15  C   UNL     1       3.424   1.636  -5.261  0.00  0.00    +0.046 A 
ATOM     16  C   UNL     1       3.752   1.091  -6.494  0.00  0.00    +0.120 A 
ATOM     17  C   UNL     1       3.514  -0.253  -6.742  0.00  0.00    +0.046 A 
ATOM     18  C   UNL     1       2.955  -1.047  -5.759  0.00  0.00    +0.009 A 
BRANCH  16  19
ATOM     19  O   UNL     1       4.307   1.873  -7.457  0.00  0.00    -0.495 OA
ATOM     20  C   UNL     1       4.619   1.246  -8.702  0.00  0.00    +0.277 C 
ENDBRANCH  16  19
ENDBRANCH   4  13
BRANCH   1  22
ATOM     21  C   UNL     1      -0.019   1.526   0.010  0.00  0.00    +0.025 C 
ATOM     22  C   UNL     1       0.002  -0.004   0.002  0.00  0.00    +0.111 C 
ENDBRANCH   1  22
BRANCH  10  23
ATOM     23  C   UNL     1      -2.932  -0.957  -4.793  0.00  0.00    +0.204 C 
BRANCH  23  24
ATOM     24  C   UNL     1      -3.580  -2.310  -4.655  0.00  0.00    +0.233 C 
ATOM     25  O   UNL     1      -3.052  -3.170  -3.982  0.00  0.00    -0.274 OA
ATOM     26  N   UNL     1      -4.747  -2.566  -5.279  0.00  0.00    -0.300 N 
ATOM     27  C   UNL     1      -5.397  -1.537  -6.102  0.00  0.00    +0.108 C 
ATOM     28  C   UNL     1      -5.672  -2.119  -7.492  0.00  0.00    +0.033 C 
ATOM     29  C   UNL     1      -6.479  -3.412  -7.349  0.00  0.00    +0.101 C 
ATOM     30  C   UNL     1      -5.669  -4.435  -6.548  0.00  0.00    +0.033 C 
ATOM     31  C   UNL     1      -5.391  -3.881  -5.153  0.00  0.00    +0.108 C 
BRANCH  29  32
ATOM     32  C   UNL     1      -6.780  -3.970  -8.716  0.00  0.00    +0.310 C 
ATOM     33  O   UNL     1      -6.390  -3.393  -9.704  0.00  0.00    -0.251 OA
BRANCH  32  34
ATOM     34  O   UNL     1      -7.482  -5.107  -8.837  0.00  0.00    -0.465 OA
BRANCH  34  35
ATOM     35  C   UNL     1      -7.731  -5.578 -10.163  0.00  0.00    +0.229 C 
ATOM     36  C   UNL     1      -8.539  -6.876 -10.100  0.00  0.00    +0.048 C 
ENDBRANCH  34  35
ENDBRANCH  32  34
ENDBRANCH  29  32
ENDBRANCH  23  24
ENDBRANCH  10  23
TORSDOF 8
