REMARK  Name = ZINC16319423
REMARK  8 active torsions:
REMARK  status: ('A' for Active; 'I' for Inactive)
REMARK    1  A    between atoms: C_1  and  C_2
REMARK    2  A    between atoms: C_5  and  C_8
REMARK    3  A    between atoms: N_9  and  C_10
REMARK    4  A    between atoms: N_16  and  C_17
REMARK    5  A    between atoms: C_17  and  N_19
REMARK    6  A    between atoms: N_19  and  C_20
REMARK    7  A    between atoms: C_24  and  O_26
REMARK    8  A    between atoms: O_26  and  C_27
REMARK                            x       y       z     vdW  Elec       q    Type
REMARK                         _______ _______ _______ _____ _____    ______ ____
ROOT
ATOM      1  C   UNL     1       0.617  -4.647  -0.246  0.00  0.00    +0.101 C 
ATOM      2  N   UNL     1       0.785  -5.413   0.876  0.00  0.00    -0.302 N 
ATOM      3  N   UNL     1      -0.215  -5.040  -1.194  0.00  0.00    -0.284 N 
ATOM      4  H   UNL     1      -0.701  -5.874  -1.098  0.00  0.00    +0.155 HD
ATOM      5  H   UNL     1       1.325  -5.083   1.612  0.00  0.00    +0.153 HD
ENDROOT
BRANCH   1  10
ATOM      6  C   UNL     1       3.527   0.280  -0.834  0.00  0.00    +0.044 C 
ATOM      7  C   UNL     1       2.765  -1.011  -0.679  0.00  0.00    -0.050 A 
ATOM      8  C   UNL     1       2.745  -1.927  -1.716  0.00  0.00    +0.004 A 
ATOM      9  C   UNL     1       2.050  -3.111  -1.583  0.00  0.00    +0.011 A 
ATOM     10  C   UNL     1       1.364  -3.383  -0.397  0.00  0.00    +0.011 A 
ATOM     11  C   UNL     1       1.388  -2.454   0.646  0.00  0.00    +0.011 A 
ATOM     12  C   UNL     1       2.092  -1.277   0.500  0.00  0.00    +0.004 A 
ENDBRANCH   1  10
BRANCH   2  13
ATOM     13  C   UNL     1       0.181  -6.670   0.963  0.00  0.00    +0.032 A 
ATOM     14  C   UNL     1       0.140  -7.500  -0.150  0.00  0.00    +0.023 A 
ATOM     15  C   UNL     1      -0.458  -8.742  -0.062  0.00  0.00    +0.002 A 
ATOM     16  C   UNL     1      -1.015  -9.160   1.133  0.00  0.00    +0.000 A 
ATOM     17  C   UNL     1      -0.976  -8.335   2.243  0.00  0.00    +0.002 A 
ATOM     18  C   UNL     1      -0.375  -7.095   2.163  0.00  0.00    +0.023 A 
ENDBRANCH   2  13
BRANCH   3  19
ATOM     19  C   UNL     1      -0.388  -4.285  -2.290  0.00  0.00    +0.140 C 
ATOM     20  S   UNL     1       0.326  -4.755  -3.774  0.00  0.00    -0.018 S 
BRANCH  19  21
ATOM     21  N   UNL     1      -1.123  -3.158  -2.222  0.00  0.00    -0.297 N 
ATOM     22  H   UNL     1      -1.467  -2.853  -1.368  0.00  0.00    +0.154 HD
BRANCH  21  23
ATOM     23  C   UNL     1      -1.390  -2.426  -3.384  0.00  0.00    +0.036 A 
ATOM     24  C   UNL     1      -1.753  -3.085  -4.553  0.00  0.00    +0.023 A 
ATOM     25  C   UNL     1      -2.016  -2.362  -5.700  0.00  0.00    +0.005 A 
ATOM     26  C   UNL     1      -1.920  -0.984  -5.689  0.00  0.00    +0.046 A 
ATOM     27  C   UNL     1      -1.558  -0.321  -4.524  0.00  0.00    +0.122 A 
ATOM     28  C   UNL     1      -1.298  -1.042  -3.370  0.00  0.00    +0.069 A 
BRANCH  27  29
ATOM     29  O   UNL     1      -1.464   1.035  -4.515  0.00  0.00    -0.495 OA
ATOM     30  C   UNL     1      -1.751   1.714  -5.740  0.00  0.00    +0.277 C 
ENDBRANCH  27  29
ENDBRANCH  21  23
ENDBRANCH  19  21
ENDBRANCH   3  19
TORSDOF 6
