REMARK  Name = ZINC12472810
REMARK  11 active torsions:
REMARK  status: ('A' for Active; 'I' for Inactive)
REMARK    1  A    between atoms: C_1  and  C_2
REMARK    2  A    between atoms: C_5  and  N_8
REMARK    3  A    between atoms: N_8  and  C_9
REMARK    4  A    between atoms: C_9  and  C_11
REMARK    5  A    between atoms: C_9  and  C_17
REMARK    6  A    between atoms: C_14  and  C_16
REMARK    7  A    between atoms: N_19  and  C_20
REMARK    8  A    between atoms: C_20  and  C_21
REMARK    9  A    between atoms: C_27  and  C_29
REMARK   10  A    between atoms: C_30  and  N_37
REMARK   11  A    between atoms: C_31  and  C_34
REMARK                            x       y       z     vdW  Elec       q    Type
REMARK                         _______ _______ _______ _____ _____    ______ ____
ROOT
ATOM      1  N   UNL     1       3.312   2.235  -0.977  0.00  0.00    -0.248 N 
ATOM      2  C   UNL     1       3.349   1.701  -2.213  0.00  0.00    +0.262 C 
ATOM      3  O   UNL     1       3.050   0.533  -2.382  0.00  0.00    -0.269 OA
ENDROOT
BRANCH   1   8
ATOM      4  C   UNL     1       4.435   7.745  -0.232  0.00  0.00    +0.044 C 
ATOM      5  C   UNL     1       4.137   6.281  -0.430  0.00  0.00    -0.050 A 
ATOM      6  C   UNL     1       5.170   5.362  -0.445  0.00  0.00    +0.005 A 
ATOM      7  C   UNL     1       4.900   4.020  -0.626  0.00  0.00    +0.024 A 
ATOM      8  C   UNL     1       3.589   3.593  -0.793  0.00  0.00    +0.038 A 
ATOM      9  C   UNL     1       2.554   4.519  -0.782  0.00  0.00    +0.024 A 
ATOM     10  C   UNL     1       2.830   5.859  -0.596  0.00  0.00    +0.005 A 
ENDBRANCH   1   8
BRANCH   2  11
ATOM     11  C   UNL     1       3.750   2.525  -3.355  0.00  0.00    +0.116 A 
ATOM     12  C   UNL     1       3.838   2.184  -4.706  0.00  0.00    +0.076 A 
ATOM     13  C   UNL     1       4.258   3.251  -5.500  0.00  0.00    +0.155 A 
ATOM     14  N   UNL     1       4.525   4.407  -4.935  0.00  0.00    -0.203 NA
ATOM     15  S   UNL     1       4.262   4.230  -3.391  0.00  0.00    +0.019 S 
BRANCH  13  16
ATOM     16  C   UNL     1       4.406   3.081  -6.957  0.00  0.00    +0.262 C 
ATOM     17  O   UNL     1       4.157   2.009  -7.473  0.00  0.00    -0.269 OA
ATOM     18  N   UNL     1       4.818   4.115  -7.718  0.00  0.00    -0.324 N 
ATOM     19  H   UNL     1       5.016   4.971  -7.306  0.00  0.00    +0.145 HD
ATOM     20  H   UNL     1       4.915   4.004  -8.676  0.00  0.00    +0.145 HD
ENDBRANCH  13  16
BRANCH  12  21
ATOM     21  N   UNL     1       3.538   0.923  -5.204  0.00  0.00    -0.355 N 
ATOM     22  H   UNL     1       3.247   0.220  -4.601  0.00  0.00    +0.142 HD
ATOM     23  H   UNL     1       3.618   0.745  -6.154  0.00  0.00    +0.142 HD
ENDBRANCH  12  21
ENDBRANCH   2  11
BRANCH   1  24
ATOM     24  C   UNL     1       2.982   1.392   0.175  0.00  0.00    +0.233 C 
BRANCH  24  25
ATOM     25  C   UNL     1       1.840   2.010   0.939  0.00  0.00    +0.135 A 
ATOM     26  C   UNL     1       0.755   1.359   1.397  0.00  0.00    +0.047 A 
ATOM     27  C   UNL     1      -0.056   2.318   2.045  0.00  0.00    +0.045 A 
ATOM     28  C   UNL     1       0.586   3.497   1.953  0.00  0.00    +0.102 A 
ATOM     29  O   UNL     1       1.731   3.305   1.279  0.00  0.00    -0.462 OA
ATOM     30  C   UNL     1       0.098   4.811   2.506  0.00  0.00    +0.086 C 
ENDBRANCH  24  25
BRANCH  24  31
ATOM     31  C   UNL     1       4.185   1.279   1.076  0.00  0.00    +0.242 C 
ATOM     32  O   UNL     1       5.217   1.846   0.784  0.00  0.00    -0.273 OA
ATOM     33  N   UNL     1       4.115   0.547   2.206  0.00  0.00    -0.309 N 
ATOM     34  H   UNL     1       3.290   0.093   2.439  0.00  0.00    +0.149 HD
BRANCH  33  35
ATOM     35  C   UNL     1       5.285   0.437   3.081  0.00  0.00    +0.139 C 
BRANCH  35  36
ATOM     36  C   UNL     1       4.945  -0.430   4.266  0.00  0.00    -0.030 A 
ATOM     37  C   UNL     1       4.433   0.141   5.416  0.00  0.00    +0.005 A 
ATOM     38  C   UNL     1       4.117  -0.655   6.502  0.00  0.00    +0.000 A 
ATOM     39  C   UNL     1       4.323  -2.021   6.440  0.00  0.00    +0.000 A 
ATOM     40  C   UNL     1       4.840  -2.591   5.292  0.00  0.00    +0.000 A 
ATOM     41  C   UNL     1       5.151  -1.796   4.205  0.00  0.00    +0.005 A 
ENDBRANCH  35  36
ENDBRANCH  33  35
ENDBRANCH  24  31
ENDBRANCH   1  24
TORSDOF 9
