REMARK  Name = ZINC06557404
REMARK  1 active torsions:
REMARK  status: ('A' for Active; 'I' for Inactive)
REMARK    1  A    between atoms: C_6  and  C_7
REMARK                            x       y       z     vdW  Elec       q    Type
REMARK                         _______ _______ _______ _____ _____    ______ ____
ROOT
ATOM      1  C   UNL     1      -1.293  -0.775   0.011  0.00  0.00    -0.000 C 
ATOM      2  C   UNL     1      -1.593  -1.215   1.407  0.00  0.00    +0.097 C 
ATOM      3  N   UNL     1      -1.695  -2.482   1.592  0.00  0.00    -0.145 NA
ATOM      4  S   UNL     1      -1.443  -3.230   0.125  0.00  0.00    +0.017 S 
ATOM      5  O   UNL     1      -0.223  -3.953   0.222  0.00  0.00    -0.174 OA
ATOM      6  O   UNL     1      -2.672  -3.829  -0.263  0.00  0.00    -0.174 OA
ATOM      7  N   UNL     1      -1.173  -1.933  -0.890  0.00  0.00    +0.494 NA
ATOM      8  N   UNL     1      -1.750  -0.319   2.431  0.00  0.00    -0.347 N 
ATOM      9  H   UNL     1      -1.666   0.632   2.260  0.00  0.00    +0.143 HD
ATOM     10  H   UNL     1      -1.944  -0.635   3.327  0.00  0.00    +0.143 HD
ENDROOT
BRANCH   1  16
ATOM     11  C   UNL     1      -0.017   1.378   0.010  0.00  0.00    +0.003 A 
ATOM     12  C   UNL     1       1.171   2.086   0.002  0.00  0.00    +0.020 A 
ATOM     13  C   UNL     1       2.378   1.410  -0.013  0.00  0.00    +0.041 A 
ATOM     14  C   UNL     1       2.396   0.027  -0.021  0.00  0.00    +0.020 A 
ATOM     15  C   UNL     1       1.208  -0.679  -0.013  0.00  0.00    +0.003 A 
ATOM     16  C   UNL     1       0.002  -0.004   0.002  0.00  0.00    -0.059 A 
ATOM     17 CL   UNL     1       3.870   2.298  -0.023  0.00  0.00    -0.084 Cl
ENDBRANCH   1  16
TORSDOF 1
