REMARK  Name = ZINC35665036
REMARK  10 active torsions:
REMARK  status: ('A' for Active; 'I' for Inactive)
REMARK    1  A    between atoms: C_1  and  C_2
REMARK    2  A    between atoms: C_2  and  O_3
REMARK    3  A    between atoms: O_3  and  C_4
REMARK    4  A    between atoms: C_4  and  C_6
REMARK    5  A    between atoms: C_7  and  C_24
REMARK    6  A    between atoms: N_8  and  C_21
REMARK    7  A    between atoms: C_12  and  C_14
REMARK    8  A    between atoms: C_21  and  C_22
REMARK    9  A    between atoms: C_24  and  N_25
REMARK   10  A    between atoms: C_31  and  C_33
REMARK                            x       y       z     vdW  Elec       q    Type
REMARK                         _______ _______ _______ _____ _____    ______ ____
ROOT
ATOM      1  C   UNL     1       1.299  -2.299  -2.512  0.00  0.00    +0.080 C 
ATOM      2  C   UNL     1       1.600  -3.615  -2.537  0.00  0.00    +0.041 C 
ATOM      3  N   UNL     1       2.329  -4.151  -3.559  0.00  0.00    -0.254 N 
ATOM      4  C   UNL     1       2.795  -3.439  -4.593  0.00  0.00    +0.307 C 
ATOM      5  O   UNL     1       3.436  -4.006  -5.457  0.00  0.00    -0.252 OA
ATOM      6  N   UNL     1       2.576  -2.114  -4.707  0.00  0.00    -0.288 N 
ATOM      7  C   UNL     1       1.793  -1.440  -3.658  0.00  0.00    +0.145 C 
ATOM      8  H   UNL     1       2.924  -1.617  -5.465  0.00  0.00    +0.151 HD
ENDROOT
BRANCH   7   9
ATOM      9  C   UNL     1       0.595  -0.797  -4.307  0.00  0.00    -0.004 A 
ATOM     10  C   UNL     1      -0.025  -1.413  -5.378  0.00  0.00    +0.007 A 
ATOM     11  C   UNL     1      -1.124  -0.823  -5.973  0.00  0.00    +0.000 A 
ATOM     12  C   UNL     1      -1.604   0.384  -5.498  0.00  0.00    +0.001 A 
ATOM     13  C   UNL     1      -0.985   1.000  -4.427  0.00  0.00    +0.020 A 
ATOM     14  C   UNL     1       0.112   0.408  -3.827  0.00  0.00    +0.046 A 
ATOM     15 CL   UNL     1       0.886   1.179  -2.478  0.00  0.00    -0.083 Cl
ENDBRANCH   7   9
BRANCH   1  16
ATOM     16  C   UNL     1       0.543  -1.742  -1.454  0.00  0.00    +0.339 C 
ATOM     17  O   UNL     1      -0.630  -1.467  -1.623  0.00  0.00    -0.245 OA
BRANCH  16  18
ATOM     18  O   UNL     1       1.123  -1.515  -0.257  0.00  0.00    -0.462 OA
BRANCH  18  20
ATOM     19  C   UNL     1       1.125  -0.768   2.042  0.00  0.00    +0.048 C 
ATOM     20  C   UNL     1       0.300  -0.951   0.766  0.00  0.00    +0.229 C 
ENDBRANCH  18  20
ENDBRANCH  16  18
ENDBRANCH   1  16
BRANCH   3  21
ATOM     21  C   UNL     1       2.619  -5.587  -3.523  0.00  0.00    +0.141 C 
BRANCH  21  22
ATOM     22  C   UNL     1       1.520  -6.339  -4.229  0.00  0.00    -0.015 C 
ATOM     23  C   UNL     1       1.812  -7.154  -5.212  0.00  0.00    +0.005 C 
ENDBRANCH  21  22
ENDBRANCH   3  21
BRANCH   2  24
ATOM     24  C   UNL     1       1.123  -4.506  -1.419  0.00  0.00    +0.136 C 
BRANCH  24  25
ATOM     25  N   UNL     1       0.124  -5.450  -1.938  0.00  0.00    -0.294 NA
ATOM     26  C   UNL     1      -1.089  -4.746  -2.375  0.00  0.00    +0.104 C 
ATOM     27  C   UNL     1      -2.027  -5.737  -3.071  0.00  0.00    +0.123 C 
ATOM     28  N   UNL     1      -2.259  -6.875  -2.169  0.00  0.00    -0.299 N 
ATOM     29  C   UNL     1      -1.090  -7.546  -1.581  0.00  0.00    +0.123 C 
ATOM     30  C   UNL     1      -0.189  -6.484  -0.943  0.00  0.00    +0.104 C 
ATOM     31  C   UNL     1      -3.510  -7.291  -1.888  0.00  0.00    +0.219 C 
ATOM     32  O   UNL     1      -4.463  -6.726  -2.382  0.00  0.00    -0.275 OA
BRANCH  31  33
ATOM     33  C   UNL     1      -3.725  -8.459  -0.960  0.00  0.00    +0.075 C 
ATOM     34  C   UNL     1      -3.103  -9.735  -1.564  0.00  0.00    +0.013 C 
ATOM     35  C   UNL     1      -4.091 -10.862  -1.172  0.00  0.00    +0.001 C 
ATOM     36  C   UNL     1      -5.470 -10.171  -1.315  0.00  0.00    +0.001 C 
ATOM     37  C   UNL     1      -5.230  -8.736  -0.802  0.00  0.00    +0.013 C 
ENDBRANCH  31  33
ENDBRANCH  24  25
ENDBRANCH   2  24
TORSDOF 9
