REMARK  Name = ZINC01480111
REMARK  8 active torsions:
REMARK  status: ('A' for Active; 'I' for Inactive)
REMARK    1  A    between atoms: C_1  and  C_2
REMARK    2  A    between atoms: C_9  and  C_17
REMARK    3  A    between atoms: C_11  and  C_15
REMARK    4  A    between atoms: C_12  and  N_14
REMARK    5  A    between atoms: C_20  and  O_25
REMARK    6  A    between atoms: C_22  and  O_23
REMARK    7  A    between atoms: O_23  and  C_24
REMARK    8  A    between atoms: O_25  and  C_26
REMARK                            x       y       z     vdW  Elec       q    Type
REMARK                         _______ _______ _______ _____ _____    ______ ____
ROOT
ATOM      1  C   UNL     1      -2.337  -2.850   0.806  0.00  0.00    +0.086 C 
ATOM      2  C   UNL     1      -1.113  -2.079   0.385  0.00  0.00    +0.110 A 
ATOM      3  C   UNL     1      -1.143  -0.733   0.396  0.00  0.00    +0.088 A 
ATOM      4  C   UNL     1       0.002  -0.004   0.002  0.00  0.00    +0.144 A 
ATOM      5  C   UNL     1       1.129  -0.699  -0.387  0.00  0.00    +0.092 A 
ATOM      6  C   UNL     1       1.101  -2.099  -0.378  0.00  0.00    +0.345 A 
ATOM      7  O   UNL     1       2.088  -2.731  -0.718  0.00  0.00    -0.245 OA
ATOM      8  O   UNL     1      -0.013  -2.746   0.007  0.00  0.00    -0.427 OA
ATOM      9  C   UNL     1       2.371   0.032  -0.816  0.00  0.00    +0.106 C 
ATOM     10  C   UNL     1       2.304   1.468  -0.376  0.00  0.00    +0.071 C 
ATOM     11  C   UNL     1       1.143   2.031   0.002  0.00  0.00    +0.197 C 
ATOM     12  O   UNL     1      -0.016   1.344   0.009  0.00  0.00    -0.441 OA
ENDROOT
BRANCH   9  13
ATOM     13  C   UNL     1       2.490  -0.026  -2.317  0.00  0.00    +0.007 A 
ATOM     14  C   UNL     1       1.492   0.506  -3.111  0.00  0.00    +0.012 A 
ATOM     15  C   UNL     1       1.601   0.459  -4.487  0.00  0.00    +0.046 A 
ATOM     16  C   UNL     1       2.710  -0.132  -5.077  0.00  0.00    +0.124 A 
ATOM     17  C   UNL     1       3.711  -0.670  -4.283  0.00  0.00    +0.091 A 
ATOM     18  C   UNL     1       3.601  -0.618  -2.902  0.00  0.00    +0.128 A 
BRANCH  18  19
ATOM     19  O   UNL     1       4.580  -1.145  -2.121  0.00  0.00    -0.495 OA
ATOM     20  C   UNL     1       5.695  -1.739  -2.791  0.00  0.00    +0.277 C 
ENDBRANCH  18  19
BRANCH  16  21
ATOM     21  O   UNL     1       2.815  -0.182  -6.431  0.00  0.00    -0.495 OA
ATOM     22  C   UNL     1       1.746   0.393  -7.186  0.00  0.00    +0.277 C 
ENDBRANCH  16  21
ENDBRANCH   9  13
BRANCH  11  23
ATOM     23  N   UNL     1       1.139   3.355   0.396  0.00  0.00    -0.328 N 
ATOM     24  H   UNL     1       0.310   3.776   0.671  0.00  0.00    +0.145 HD
ATOM     25  H   UNL     1       1.965   3.864   0.396  0.00  0.00    +0.145 HD
ENDBRANCH  11  23
BRANCH  10  26
ATOM     26  C   UNL     1       3.501   2.253  -0.360  0.00  0.00    -0.068 C 
ATOM     27  C   UNL     1       4.483   2.896  -0.347  0.00  0.00    +0.009 C 
ENDBRANCH  10  26
TORSDOF 5
