REMARK  Name = ZINC10536844
REMARK  12 active torsions:
REMARK  status: ('A' for Active; 'I' for Inactive)
REMARK    1  A    between atoms: C_1  and  C_2
REMARK    2  A    between atoms: C_2  and  N_3
REMARK    3  A    between atoms: N_3  and  C_4
REMARK    4  A    between atoms: N_3  and  C_34
REMARK    5  A    between atoms: C_7  and  N_10
REMARK    6  A    between atoms: C_11  and  C_13
REMARK    7  A    between atoms: C_13  and  N_14
REMARK    8  A    between atoms: C_17  and  C_21
REMARK    9  A    between atoms: C_17  and  C_28
REMARK   10  A    between atoms: C_21  and  C_22
REMARK   11  A    between atoms: C_34  and  C_35
REMARK   12  A    between atoms: C_34  and  C_36
REMARK                            x       y       z     vdW  Elec       q    Type
REMARK                         _______ _______ _______ _____ _____    ______ ____
ROOT
ATOM      1  N   UNL     1      -1.112  -8.222   4.018  0.00  0.00    -0.215 N 
ATOM      2  C   UNL     1      -0.254  -8.422   5.037  0.00  0.00    +0.252 C 
ATOM      3  O   UNL     1       0.957  -8.372   4.996  0.00  0.00    -0.272 OA
ATOM      4  C   UNL     1      -1.117  -8.723   6.247  0.00  0.00    +0.142 C 
ATOM      5  N   UNL     1      -2.490  -8.650   5.719  0.00  0.00    -0.281 N 
ATOM      6  C   UNL     1      -2.384  -8.348   4.412  0.00  0.00    +0.310 C 
ATOM      7  O   UNL     1      -3.338  -8.209   3.671  0.00  0.00    -0.252 OA
ATOM      8  H   UNL     1      -3.311  -8.790   6.216  0.00  0.00    +0.152 HD
ENDROOT
BRANCH   4   9
ATOM      9  C   UNL     1      -0.906  -7.686   7.320  0.00  0.00    -0.015 A 
ATOM     10  C   UNL     1       0.068  -7.876   8.283  0.00  0.00    +0.006 A 
ATOM     11  C   UNL     1       0.261  -6.924   9.267  0.00  0.00    +0.000 A 
ATOM     12  C   UNL     1      -0.518  -5.783   9.288  0.00  0.00    +0.000 A 
ATOM     13  C   UNL     1      -1.491  -5.593   8.324  0.00  0.00    +0.000 A 
ATOM     14  C   UNL     1      -1.682  -6.542   7.337  0.00  0.00    +0.006 A 
ENDBRANCH   4   9
BRANCH   1  15
ATOM     15  C   UNL     1      -0.703  -7.900   2.649  0.00  0.00    +0.214 C 
BRANCH  15  17
ATOM     16  N   UNL     1      -0.239  -5.873   1.309  0.00  0.00    -0.284 N 
ATOM     17  C   UNL     1      -0.603  -6.405   2.493  0.00  0.00    +0.235 C 
ATOM     18  O   UNL     1      -0.849  -5.679   3.433  0.00  0.00    -0.274 OA
ATOM     19  H   UNL     1      -0.114  -6.448   0.537  0.00  0.00    +0.155 HD
BRANCH  16  23
ATOM     20  C   UNL     1       0.347  -1.763   0.961  0.00  0.00    +0.014 A 
ATOM     21  C   UNL     1       0.654  -2.406   2.146  0.00  0.00    +0.023 A 
ATOM     22  C   UNL     1       0.461  -3.769   2.264  0.00  0.00    +0.025 A 
ATOM     23  C   UNL     1      -0.043  -4.493   1.192  0.00  0.00    +0.034 A 
ATOM     24  C   UNL     1      -0.351  -3.844   0.003  0.00  0.00    +0.025 A 
ATOM     25  C   UNL     1      -0.160  -2.481  -0.107  0.00  0.00    +0.023 A 
BRANCH  20  26
ATOM     26  N   UNL     1       0.544  -0.384   0.844  0.00  0.00    -0.392 NA
ATOM     27  H   UNL     1       0.266  -0.082  -0.077  0.00  0.00    +0.127 HD
BRANCH  26  28
ATOM     28  C   UNL     1      -0.265   0.313   1.853  0.00  0.00    +0.049 C 
ATOM     29  C   UNL     1      -0.121   1.825   1.667  0.00  0.00    +0.026 C 
ATOM     30  C   UNL     1      -1.734  -0.083   1.692  0.00  0.00    +0.026 C 
ENDBRANCH  26  28
BRANCH  26  32
ATOM     31  C   UNL     1       2.793  -0.685  -0.076  0.00  0.00    +0.022 C 
ATOM     32  C   UNL     1       1.964  -0.072   1.054  0.00  0.00    +0.082 C 
ENDBRANCH  26  32
ENDBRANCH  20  26
ENDBRANCH  16  23
ENDBRANCH  15  17
ENDBRANCH   1  15
BRANCH   4  33
ATOM     33  C   UNL     1      -0.821 -10.124   6.785  0.00  0.00    +0.075 C 
BRANCH  33  34
ATOM     34  C   UNL     1      -1.092 -11.143   5.708  0.00  0.00    -0.045 A 
ATOM     35  C   UNL     1      -2.350 -11.702   5.587  0.00  0.00    +0.004 A 
ATOM     36  C   UNL     1      -2.599 -12.637   4.599  0.00  0.00    +0.000 A 
ATOM     37  C   UNL     1      -1.589 -13.013   3.733  0.00  0.00    +0.000 A 
ATOM     38  C   UNL     1      -0.331 -12.454   3.854  0.00  0.00    +0.000 A 
ATOM     39  C   UNL     1      -0.084 -11.515   4.839  0.00  0.00    +0.004 A 
ENDBRANCH  33  34
ENDBRANCH   4  33
TORSDOF 9
