REMARK  Name = ZINC37135298
REMARK  8 active torsions:
REMARK  status: ('A' for Active; 'I' for Inactive)
REMARK    1  A    between atoms: C_1  and  C_2
REMARK    2  A    between atoms: C_5  and  S_20
REMARK    3  A    between atoms: C_7  and  N_8
REMARK    4  A    between atoms: N_8  and  C_9
REMARK    5  A    between atoms: C_9  and  C_11
REMARK    6  A    between atoms: C_9  and  C_12
REMARK    7  A    between atoms: N_17  and  C_19
REMARK    8  A    between atoms: S_20  and  N_23
REMARK                            x       y       z     vdW  Elec       q    Type
REMARK                         _______ _______ _______ _____ _____    ______ ____
ROOT
ATOM      1  C   UNL     1      -0.018   1.503   0.010  0.00  0.00    +0.045 C 
ATOM      2  C   UNL     1       0.002  -0.004   0.002  0.00  0.00    -0.030 A 
ATOM      3  C   UNL     1       0.006  -0.689  -1.198  0.00  0.00    +0.007 A 
ATOM      4  C   UNL     1       0.024  -2.071  -1.206  0.00  0.00    +0.029 A 
ATOM      5  C   UNL     1       0.039  -2.773  -0.014  0.00  0.00    +0.107 A 
ATOM      6  C   UNL     1       0.036  -2.095   1.188  0.00  0.00    +0.051 A 
ATOM      7  C   UNL     1       0.023  -0.706   1.200  0.00  0.00    +0.032 A 
ENDROOT
BRANCH   5   8
ATOM      8  S   UNL     1       0.062  -4.535  -0.031  0.00  0.00    +0.056 S 
ATOM      9  O   UNL     1      -0.477  -4.960   1.213  0.00  0.00    -0.153 OA
ATOM     10  O   UNL     1      -0.490  -4.937  -1.277  0.00  0.00    -0.153 OA
BRANCH   8  11
ATOM     11  N   UNL     1       1.650  -5.004  -0.044  0.00  0.00    -0.204 NA
ATOM     12  H   UNL     1       2.353  -4.336  -0.041  0.00  0.00    +0.144 HD
ATOM     13  H   UNL     1       1.877  -5.947  -0.054  0.00  0.00    +0.144 HD
ENDBRANCH   8  11
ENDBRANCH   5   8
BRANCH   7  14
ATOM     14  N   UNL     1       0.025  -0.016   2.415  0.00  0.00    -0.341 N 
ATOM     15  H   UNL     1       0.012   0.954   2.422  0.00  0.00    +0.146 HD
BRANCH  14  16
ATOM     16  C   UNL     1       0.047  -0.758   3.678  0.00  0.00    +0.069 C 
ATOM     17  C   UNL     1       1.492  -1.105   4.041  0.00  0.00    +0.028 C 
BRANCH  16  18
ATOM     18  C   UNL     1      -0.564   0.103   4.786  0.00  0.00    -0.008 C 
ATOM     19  C   UNL     1       0.249   1.392   4.939  0.00  0.00    +0.002 C 
ATOM     20  C   UNL     1      -0.323   2.209   6.101  0.00  0.00    -0.018 C 
ATOM     21  C   UNL     1      -0.306   1.358   7.373  0.00  0.00    -0.079 C 
ATOM     22  N   UNL     1      -1.122   0.155   7.171  0.00  0.00    +0.378 N 
ATOM     23  C   UNL     1      -0.539  -0.670   6.106  0.00  0.00    -0.074 C 
ATOM     24  C   UNL     1      -1.166  -0.619   8.419  0.00  0.00    -0.096 C 
ATOM     25  H   UNL     1      -2.058   0.424   6.912  0.00  0.00    -0.082 HD
ENDBRANCH  16  18
ENDBRANCH  14  16
ENDBRANCH   7  14
TORSDOF 5
