REMARK  Name = ZINC39991029
REMARK  7 active torsions:
REMARK  status: ('A' for Active; 'I' for Inactive)
REMARK    1  A    between atoms: C_4  and  C_7
REMARK    2  A    between atoms: C_7  and  C_9
REMARK    3  A    between atoms: C_7  and  S_20
REMARK    4  A    between atoms: C_9  and  C_11
REMARK    5  A    between atoms: S_20  and  C_21
REMARK    6  A    between atoms: N_27  and  C_28
REMARK    7  A    between atoms: C_28  and  C_29
REMARK                            x       y       z     vdW  Elec       q    Type
REMARK                         _______ _______ _______ _____ _____    ______ ____
ROOT
ATOM      1  C   UNL     1       3.711  -0.707  -0.038  0.00  0.00    +0.150 C 
ENDROOT
BRANCH   1   5
ATOM      2  C   UNL     1      -0.017   1.378   0.010  0.00  0.00    +0.000 A 
ATOM      3  C   UNL     1       1.171   2.086   0.002  0.00  0.00    +0.000 A 
ATOM      4  C   UNL     1       2.377   1.411  -0.013  0.00  0.00    +0.005 A 
ATOM      5  C   UNL     1       2.396   0.029  -0.020  0.00  0.00    -0.027 A 
ATOM      6  C   UNL     1       1.208  -0.679  -0.012  0.00  0.00    +0.005 A 
ATOM      7  C   UNL     1       0.002  -0.004   0.002  0.00  0.00    +0.000 A 
ENDBRANCH   1   5
BRANCH   1   8
ATOM      8  C   UNL     1       3.790  -1.566  -1.273  0.00  0.00    +0.179 C 
ATOM      9  O   UNL     1       3.467  -2.736  -1.221  0.00  0.00    -0.291 OA
BRANCH   8  10
ATOM     10  C   UNL     1       4.238  -1.012  -2.491  0.00  0.00    +0.024 C 
ATOM     11  C   UNL     1       4.363  -1.657  -3.708  0.00  0.00    +0.006 A 
ATOM     12  C   UNL     1       4.108  -2.984  -4.124  0.00  0.00    +0.010 A 
ATOM     13  C   UNL     1       4.325  -3.350  -5.407  0.00  0.00    +0.001 A 
ATOM     14  C   UNL     1       4.804  -2.453  -6.376  0.00  0.00    +0.002 A 
ATOM     15  C   UNL     1       5.079  -1.164  -6.082  0.00  0.00    +0.026 A 
ATOM     16  C   UNL     1       4.870  -0.683  -4.706  0.00  0.00    +0.043 A 
ATOM     17  N   UNL     1       5.050   0.484  -4.156  0.00  0.00    -0.380 N 
ATOM     18  C   UNL     1       4.677   0.415  -2.740  0.00  0.00    +0.152 C 
ATOM     19  H   UNL     1       5.375   1.275  -4.613  0.00  0.00    +0.160 HD
ENDBRANCH   8  10
ENDBRANCH   1   8
BRANCH   1  20
ATOM     20  S   UNL     1       3.837  -1.756   1.437  0.00  0.00    -0.110 S 
BRANCH  20  21
ATOM     21  C   UNL     1       3.880  -0.575   2.813  0.00  0.00    +0.212 C 
ATOM     22  N   UNL     1       4.981   0.401   2.652  0.00  0.00    -0.244 N 
ATOM     23  N   UNL     1       4.588   1.715   2.527  0.00  0.00    -0.163 NA
ATOM     24  C   UNL     1       3.347   2.091   2.548  0.00  0.00    +0.174 C 
ATOM     25  S   UNL     1       2.438   0.567   2.761  0.00  0.00    -0.054 S 
ATOM     26  N   UNL     1       2.842   3.380   2.432  0.00  0.00    -0.320 N 
ATOM     27  H   UNL     1       5.914   0.134   2.635  0.00  0.00    +0.170 HD
ATOM     28  H   UNL     1       1.884   3.530   2.463  0.00  0.00    +0.148 HD
BRANCH  26  29
ATOM     29  C   UNL     1       3.756   4.512   2.261  0.00  0.00    +0.135 C 
BRANCH  29  30
ATOM     30  C   UNL     1       2.948   5.808   2.159  0.00  0.00    +0.135 C 
ATOM     31  C   UNL     1       3.893   6.991   1.859  0.00  0.00    +0.035 C 
ATOM     32  C   UNL     1       3.291   8.124   2.733  0.00  0.00    +0.031 C 
ATOM     33  C   UNL     1       2.783   7.316   3.953  0.00  0.00    +0.160 C 
ATOM     34  O   UNL     1       2.300   6.076   3.408  0.00  0.00    -0.375 OA
ENDBRANCH  29  30
ENDBRANCH  26  29
ENDBRANCH  20  21
ENDBRANCH   1  20
TORSDOF 7
