REMARK  Name = ZINC27834366
REMARK  6 active torsions:
REMARK  status: ('A' for Active; 'I' for Inactive)
REMARK    1  A    between atoms: C_1  and  C_2
REMARK    2  A    between atoms: C_5  and  N_9
REMARK    3  A    between atoms: C_7  and  O_8
REMARK    4  A    between atoms: C_10  and  C_12
REMARK    5  A    between atoms: N_22  and  N_23
REMARK    6  A    between atoms: N_23  and  C_24
REMARK                            x       y       z     vdW  Elec       q    Type
REMARK                         _______ _______ _______ _____ _____    ______ ____
ROOT
ATOM      1  C   UNL     1       4.832   1.075  -0.250  0.00  0.00    +0.099 A 
ATOM      2  C   UNL     1       6.025   1.749  -0.369  0.00  0.00    +0.030 A 
ATOM      3  C   UNL     1       7.249   0.948  -0.484  0.00  0.00    +0.020 A 
ATOM      4  C   UNL     1       8.507   1.539  -0.332  0.00  0.00    +0.031 A 
ATOM      5  C   UNL     1       9.643   0.765  -0.444  0.00  0.00    +0.042 A 
ATOM      6  C   UNL     1       9.541  -0.594  -0.705  0.00  0.00    +0.023 A 
ATOM      7  C   UNL     1       8.304  -1.190  -0.859  0.00  0.00    +0.048 A 
ATOM      8  C   UNL     1       7.152  -0.429  -0.752  0.00  0.00    +0.138 A 
ATOM      9  O   UNL     1       5.930  -1.001  -0.906  0.00  0.00    -0.437 OA
ATOM     10  C   UNL     1       4.886  -0.404  -0.261  0.00  0.00    +0.224 A 
ATOM     11  N   UNL     1       3.964  -1.115   0.327  0.00  0.00    -0.276 N 
ATOM     12 CL   UNL     1      11.207   1.493  -0.256  0.00  0.00    -0.084 Cl
ATOM     13  H   UNL     1       3.129  -0.616   0.842  0.00  0.00    +0.187 HD
ENDROOT
BRANCH   1  15
ATOM     14  N   UNL     1       2.401   1.107  -0.015  0.00  0.00    -0.281 N 
ATOM     15  C   UNL     1       3.554   1.796  -0.123  0.00  0.00    +0.253 C 
ATOM     16  O   UNL     1       3.539   3.012  -0.117  0.00  0.00    -0.270 OA
ATOM     17  H   UNL     1       2.420   0.009   0.055  0.00  0.00    +0.155 HD
BRANCH  14  22
ATOM     18  C   UNL     1      -2.560   3.863   0.077  0.00  0.00    +0.047 C 
ATOM     19  C   UNL     1      -1.243   3.132   0.053  0.00  0.00    -0.009 A 
ATOM     20  C   UNL     1      -1.149   1.898  -0.562  0.00  0.00    +0.009 A 
ATOM     21  C   UNL     1       0.057   1.225  -0.586  0.00  0.00    +0.024 A 
ATOM     22  C   UNL     1       1.179   1.788   0.010  0.00  0.00    +0.037 A 
ATOM     23  C   UNL     1       1.087   3.027   0.628  0.00  0.00    +0.069 A 
ATOM     24  C   UNL     1      -0.127   3.696   0.655  0.00  0.00    +0.122 A 
BRANCH  24  25
ATOM     25  O   UNL     1      -0.222   4.907   1.265  0.00  0.00    -0.506 OA
ATOM     26  H   UNL     1       0.663   5.354   1.742  0.00  0.00    +0.292 HD
ENDBRANCH  24  25
ENDBRANCH  14  22
ENDBRANCH   1  15
BRANCH  11  27
ATOM     27  N   UNL     1       4.036  -2.514   0.303  0.00  0.00    -0.258 N 
ATOM     28  H   UNL     1       4.871  -3.013  -0.212  0.00  0.00    +0.172 HD
BRANCH  27  29
ATOM     29  C   UNL     1       3.051  -3.274   0.931  0.00  0.00    +0.046 A 
ATOM     30  C   UNL     1       1.998  -2.645   1.587  0.00  0.00    +0.026 A 
ATOM     31  C   UNL     1       1.022  -3.400   2.204  0.00  0.00    +0.017 A 
ATOM     32  C   UNL     1       1.095  -4.782   2.180  0.00  0.00    +0.018 A 
ATOM     33  C   UNL     1       2.144  -5.411   1.532  0.00  0.00    +0.017 A 
ATOM     34  C   UNL     1       3.121  -4.662   0.908  0.00  0.00    +0.026 A 
ATOM     35 BR   UNL     1      -0.241  -5.813   3.033  0.00  0.00    -0.050 Br
ENDBRANCH  27  29
ENDBRANCH  11  27
TORSDOF 5
