REMARK  Name = ZINC39685851
REMARK  11 active torsions:
REMARK  status: ('A' for Active; 'I' for Inactive)
REMARK    1  A    between atoms: C_1  and  C_2
REMARK    2  A    between atoms: C_2  and  C_3
REMARK    3  A    between atoms: C_2  and  C_4
REMARK    4  A    between atoms: C_4  and  C_6
REMARK    5  A    between atoms: C_4  and  N_13
REMARK    6  A    between atoms: N_8  and  C_9
REMARK    7  A    between atoms: C_9  and  C_10
REMARK    8  A    between atoms: C_9  and  C_11
REMARK    9  A    between atoms: C_9  and  C_12
REMARK   10  A    between atoms: C_14  and  C_16
REMARK   11  A    between atoms: C_27  and  C_29
REMARK                            x       y       z     vdW  Elec       q    Type
REMARK                         _______ _______ _______ _____ _____    ______ ____
ROOT
ATOM      1  C   UNL     1      -1.297  -0.763  -3.804  0.00  0.00    +0.100 C 
ATOM      2  C   UNL     1      -0.492   0.505  -4.167  0.00  0.00    +0.121 C 
ATOM      3  N   UNL     1       0.826  -0.003  -4.615  0.00  0.00    -0.297 N 
ATOM      4  C   UNL     1       0.505  -1.221  -5.398  0.00  0.00    +0.115 C 
ATOM      5  C   UNL     1      -0.641  -1.893  -4.616  0.00  0.00    -0.004 C 
ATOM      6  C   UNL     1      -0.084  -2.962  -3.680  0.00  0.00    -0.010 C 
ATOM      7  C   UNL     1       0.511  -4.101  -4.512  0.00  0.00    -0.082 C 
ATOM      8  N   UNL     1      -0.528  -4.673  -5.377  0.00  0.00    +0.379 N 
ATOM      9  C   UNL     1      -0.993  -3.663  -6.336  0.00  0.00    -0.082 C 
ATOM     10  C   UNL     1      -1.652  -2.505  -5.581  0.00  0.00    -0.010 C 
ATOM     11  C   UNL     1       2.041   0.523  -4.368  0.00  0.00    +0.260 C 
ATOM     12  O   UNL     1       3.036  -0.014  -4.808  0.00  0.00    -0.271 OA
ATOM     13  H   UNL     1      -0.149  -5.462  -5.879  0.00  0.00    -0.086 HD
ATOM     14  H   UNL     1      -1.304  -4.979  -4.811  0.00  0.00    -0.086 HD
ENDROOT
BRANCH  11  15
ATOM     15  C   UNL     1       2.165   1.778  -3.543  0.00  0.00    +0.296 C 
ATOM     16  C   UNL     1       1.522   2.954  -4.291  0.00  0.00    +0.283 C 
ATOM     17  O   UNL     1       1.670   4.130  -3.488  0.00  0.00    -0.484 OA
ATOM     18  C   UNL     1       2.900   4.353  -2.950  0.00  0.00    +0.162 A 
ATOM     19  C   UNL     1       3.218   5.618  -2.478  0.00  0.00    +0.049 A 
ATOM     20  C   UNL     1       4.462   5.859  -1.927  0.00  0.00    +0.004 A 
ATOM     21  C   UNL     1       5.393   4.840  -1.842  0.00  0.00    +0.004 A 
ATOM     22  C   UNL     1       5.083   3.577  -2.311  0.00  0.00    +0.049 A 
ATOM     23  C   UNL     1       3.836   3.329  -2.868  0.00  0.00    +0.163 A 
ATOM     24  O   UNL     1       3.548   2.082  -3.332  0.00  0.00    -0.473 OA
ENDBRANCH  11  15
BRANCH   1  26
ATOM     25  N   UNL     1      -2.193  -1.679  -1.688  0.00  0.00    -0.303 N 
ATOM     26  C   UNL     1      -1.189  -1.048  -2.328  0.00  0.00    +0.219 C 
ATOM     27  O   UNL     1      -0.199  -0.708  -1.715  0.00  0.00    -0.275 OA
ATOM     28  H   UNL     1      -2.985  -1.951  -2.178  0.00  0.00    +0.149 HD
BRANCH  25  29
ATOM     29  C   UNL     1      -2.088  -1.956  -0.253  0.00  0.00    +0.161 C 
BRANCH  29  30
ATOM     30  C   UNL     1      -2.957  -3.136   0.096  0.00  0.00    +0.234 C 
ATOM     31  O   UNL     1      -3.837  -3.487  -0.662  0.00  0.00    -0.274 OA
ATOM     32  N   UNL     1      -2.757  -3.803   1.250  0.00  0.00    -0.309 N 
ATOM     33  H   UNL     1      -2.012  -3.565   1.824  0.00  0.00    +0.149 HD
BRANCH  32  34
ATOM     34  C   UNL     1      -3.664  -4.886   1.637  0.00  0.00    +0.026 C 
ATOM     35  C   UNL     1      -3.636  -5.981   0.569  0.00  0.00    +0.031 C 
ATOM     36  C   UNL     1      -3.217  -5.471   2.979  0.00  0.00    +0.031 C 
ATOM     37  C   UNL     1      -5.086  -4.338   1.769  0.00  0.00    +0.031 C 
ENDBRANCH  32  34
ENDBRANCH  29  30
BRANCH  29  39
ATOM     38  C   UNL     1      -1.626   0.450   0.237  0.00  0.00    +0.009 C 
ATOM     39  C   UNL     1      -2.551  -0.730   0.537  0.00  0.00    +0.012 C 
ATOM     40  C   UNL     1      -3.982  -0.372   0.131  0.00  0.00    +0.009 C 
ENDBRANCH  29  39
ENDBRANCH  25  29
ENDBRANCH   1  26
TORSDOF 6
