REMARK  Name = ZINC08594752
REMARK  8 active torsions:
REMARK  status: ('A' for Active; 'I' for Inactive)
REMARK    1  A    between atoms: C_1  and  C_2
REMARK    2  A    between atoms: C_6  and  C_8
REMARK    3  A    between atoms: C_8  and  S_9
REMARK    4  A    between atoms: S_9  and  C_10
REMARK    5  A    between atoms: C_15  and  C_31
REMARK    6  A    between atoms: C_17  and  C_21
REMARK    7  A    between atoms: C_18  and  C_20
REMARK    8  A    between atoms: N_23  and  C_24
REMARK                            x       y       z     vdW  Elec       q    Type
REMARK                         _______ _______ _______ _____ _____    ______ ____
ROOT
ATOM      1  C   UNL     1       1.732  -4.006   4.536  0.00  0.00    +0.211 A 
ATOM      2  N   UNL     1       0.558  -4.329   5.100  0.00  0.00    -0.187 NA
ATOM      3  C   UNL     1       0.772  -4.988   6.206  0.00  0.00    +0.219 A 
ATOM      4  N   UNL     1       2.113  -5.098   6.378  0.00  0.00    -0.219 N 
ATOM      5  N   UNL     1       2.709  -4.466   5.288  0.00  0.00    -0.141 NA
ATOM      6  C   UNL     1       2.728  -5.768   7.521  0.00  0.00    +0.184 C 
ATOM      7  C   UNL     1       1.680  -6.545   8.271  0.00  0.00    +0.061 C 
ATOM      8  C   UNL     1       0.365  -6.397   8.055  0.00  0.00    +0.018 C 
ATOM      9  N   UNL     1      -0.129  -5.526   7.115  0.00  0.00    -0.287 N 
ATOM     10  C   UNL     1      -0.604  -7.215   8.869  0.00  0.00    +0.061 C 
ATOM     11  H   UNL     1      -1.071  -5.295   7.087  0.00  0.00    +0.155 HD
ENDROOT
BRANCH   6  12
ATOM     12  C   UNL     1       3.343  -4.740   8.435  0.00  0.00    +0.019 A 
ATOM     13  C   UNL     1       4.637  -4.599   8.814  0.00  0.00    +0.013 A 
ATOM     14  C   UNL     1       4.976  -3.569   9.671  0.00  0.00    +0.008 A 
ATOM     15  C   UNL     1       4.005  -2.731  10.109  0.00  0.00    +0.045 A 
ATOM     16  S   UNL     1       2.557  -3.388   9.296  0.00  0.00    -0.099 S 
ENDBRANCH   6  12
BRANCH   7  17
ATOM     17  C   UNL     1       2.102  -7.475   9.251  0.00  0.00    +0.248 C 
ATOM     18  O   UNL     1       2.494  -8.578   8.914  0.00  0.00    -0.270 OA
ATOM     19  N   UNL     1       2.069  -7.140  10.556  0.00  0.00    -0.282 N 
ATOM     20  H   UNL     1       1.678  -6.296  10.830  0.00  0.00    +0.155 HD
BRANCH  19  21
ATOM     21  C   UNL     1       2.598  -8.011  11.514  0.00  0.00    +0.034 A 
ATOM     22  C   UNL     1       3.601  -8.905  11.164  0.00  0.00    +0.025 A 
ATOM     23  C   UNL     1       4.122  -9.763  12.112  0.00  0.00    +0.022 A 
ATOM     24  C   UNL     1       3.645  -9.732  13.411  0.00  0.00    +0.041 A 
ATOM     25  C   UNL     1       2.646  -8.842  13.763  0.00  0.00    +0.022 A 
ATOM     26  C   UNL     1       2.125  -7.978  12.820  0.00  0.00    +0.025 A 
ATOM     27 CL   UNL     1       4.302 -10.813  14.601  0.00  0.00    -0.084 Cl
ENDBRANCH  19  21
ENDBRANCH   7  17
BRANCH   1  28
ATOM     28  S   UNL     1       1.932  -3.117   3.029  0.00  0.00    -0.080 S 
BRANCH  28  29
ATOM     29  C   UNL     1       0.234  -2.774   2.492  0.00  0.00    +0.112 C 
BRANCH  29  35
ATOM     30  C   UNL     1       0.343   1.586   0.037  0.00  0.00    +0.044 C 
ATOM     31  C   UNL     1       0.313   0.079   0.021  0.00  0.00    -0.050 A 
ATOM     32  C   UNL     1       0.312  -0.599  -1.184  0.00  0.00    +0.003 A 
ATOM     33  C   UNL     1       0.285  -1.981  -1.199  0.00  0.00    +0.001 A 
ATOM     34  C   UNL     1       0.259  -2.685  -0.009  0.00  0.00    +0.004 A 
ATOM     35  C   UNL     1       0.262  -2.007   1.195  0.00  0.00    -0.037 A 
ATOM     36  C   UNL     1       0.293  -0.625   1.210  0.00  0.00    +0.007 A 
ENDBRANCH  29  35
ENDBRANCH  28  29
ENDBRANCH   1  28
TORSDOF 6
