REMARK  Name = ZINC65371201
REMARK  8 active torsions:
REMARK  status: ('A' for Active; 'I' for Inactive)
REMARK    1  A    between atoms: C_1  and  C_2
REMARK    2  A    between atoms: C_6  and  C_8
REMARK    3  A    between atoms: C_8  and  N_9
REMARK    4  A    between atoms: N_9  and  C_10
REMARK    5  A    between atoms: C_10  and  C_11
REMARK    6  A    between atoms: C_11  and  C_12
REMARK    7  A    between atoms: N_14  and  C_15
REMARK    8  A    between atoms: C_18  and  C_21
REMARK                            x       y       z     vdW  Elec       q    Type
REMARK                         _______ _______ _______ _____ _____    ______ ____
ROOT
ATOM      1  C   UNL     1       1.450  -3.671   4.158  0.00  0.00    -0.073 C 
ENDROOT
BRANCH   1   2
ATOM      2  N   UNL     1       1.437  -2.962   2.871  0.00  0.00    +0.384 N 
ATOM      3  H   UNL     1       1.913  -3.518   2.176  0.00  0.00    -0.085 HD
ATOM      4  H   UNL     1       1.906  -2.075   2.971  0.00  0.00    -0.085 HD
BRANCH   2   5
ATOM      5  C   UNL     1       0.048  -2.736   2.450  0.00  0.00    -0.005 C 
BRANCH   5  11
ATOM      6  C   UNL     1      -0.003   1.483  -0.018  0.00  0.00    +0.066 C 
ATOM      7  C   UNL     1       0.010  -0.024  -0.018  0.00  0.00    +0.045 A 
ATOM      8  C   UNL     1       0.007  -0.727  -1.217  0.00  0.00    -0.005 A 
ATOM      9  C   UNL     1       0.023  -2.104  -1.171  0.00  0.00    +0.048 A 
ATOM     10  N   UNL     1       0.033  -2.706   0.014  0.00  0.00    -0.239 NA
ATOM     11  C   UNL     1       0.035  -2.009   1.130  0.00  0.00    +0.113 A 
ATOM     12  N   UNL     1       0.029  -0.691   1.123  0.00  0.00    -0.239 NA
ATOM     13  C   UNL     1       0.037  -2.956  -2.410  0.00  0.00    +0.056 C 
ATOM     14  C   UNL     1      -0.407  -2.140  -3.624  0.00  0.00    +0.006 C 
ATOM     15  C   UNL     1       0.417  -0.848  -3.670  0.00  0.00    +0.005 C 
ATOM     16  C   UNL     1      -0.016   0.044  -2.507  0.00  0.00    +0.039 C 
ENDBRANCH   5  11
ENDBRANCH   2   5
ENDBRANCH   1   2
BRANCH   1  17
ATOM     17  C   UNL     1       2.896  -3.906   4.596  0.00  0.00    +0.077 C 
BRANCH  17  18
ATOM     18  C   UNL     1       2.909  -4.633   5.916  0.00  0.00    +0.215 C 
ATOM     19  O   UNL     1       1.865  -4.934   6.453  0.00  0.00    -0.276 OA
ATOM     20  N   UNL     1       4.082  -4.950   6.499  0.00  0.00    -0.286 N 
ATOM     21  H   UNL     1       4.917  -4.770   6.039  0.00  0.00    +0.155 HD
BRANCH  20  22
ATOM     22  C   UNL     1       4.096  -5.536   7.764  0.00  0.00    +0.033 A 
ATOM     23  C   UNL     1       3.096  -6.434   8.124  0.00  0.00    +0.024 A 
ATOM     24  C   UNL     1       3.106  -7.014   9.372  0.00  0.00    +0.015 A 
ATOM     25  C   UNL     1       4.123  -6.702  10.278  0.00  0.00    +0.037 A 
ATOM     26  C   UNL     1       5.127  -5.800   9.913  0.00  0.00    +0.015 A 
ATOM     27  C   UNL     1       5.113  -5.227   8.662  0.00  0.00    +0.024 A 
BRANCH  25  28
ATOM     28  C   UNL     1       4.138  -7.322  11.617  0.00  0.00    +0.242 C 
ATOM     29  O   UNL     1       3.264  -8.106  11.934  0.00  0.00    -0.270 OA
ATOM     30  N   UNL     1       5.119  -7.020  12.490  0.00  0.00    -0.325 N 
ATOM     31  H   UNL     1       5.817  -6.394  12.238  0.00  0.00    +0.145 HD
ATOM     32  H   UNL     1       5.129  -7.428  13.370  0.00  0.00    +0.145 HD
ENDBRANCH  25  28
ENDBRANCH  20  22
ENDBRANCH  17  18
ENDBRANCH   1  17
TORSDOF 7
