REMARK  Name = ZINC38050482
REMARK  6 active torsions:
REMARK  status: ('A' for Active; 'I' for Inactive)
REMARK    1  A    between atoms: C_1  and  O_2
REMARK    2  A    between atoms: O_2  and  C_3
REMARK    3  A    between atoms: C_4  and  S_11
REMARK    4  A    between atoms: S_11  and  N_14
REMARK    5  A    between atoms: N_14  and  C_15
REMARK    6  A    between atoms: C_21  and  N_23
REMARK                            x       y       z     vdW  Elec       q    Type
REMARK                         _______ _______ _______ _____ _____    ______ ____
ROOT
ATOM      1  S   UNL     1      -1.849  -0.539  -2.258  0.00  0.00    +0.062 S 
ATOM      2  O   UNL     1      -1.981   0.814  -1.847  0.00  0.00    -0.153 OA
ATOM      3  O   UNL     1      -2.317  -1.002  -3.517  0.00  0.00    -0.153 OA
ENDROOT
BRANCH   1   5
ATOM      4  C   UNL     1       0.606  -0.607  -1.056  0.00  0.00    +0.160 A 
ATOM      5  C   UNL     1      -0.130  -0.921  -2.189  0.00  0.00    +0.149 A 
ATOM      6  C   UNL     1       0.486  -1.534  -3.264  0.00  0.00    +0.052 A 
ATOM      7  C   UNL     1       1.835  -1.835  -3.210  0.00  0.00    +0.044 A 
ATOM      8  C   UNL     1       2.571  -1.523  -2.081  0.00  0.00    +0.039 A 
ATOM      9  C   UNL     1       1.961  -0.905  -1.006  0.00  0.00    +0.063 A 
ATOM     10 BR   UNL     1       2.968  -0.472   0.534  0.00  0.00    -0.046 Br
ATOM     11 CL   UNL     1       2.606  -2.606  -4.561  0.00  0.00    -0.083 Cl
BRANCH   4  13
ATOM     12  C   UNL     1      -0.017   1.425   0.010  0.00  0.00    +0.277 C 
ATOM     13  O   UNL     1       0.002  -0.004   0.002  0.00  0.00    -0.492 OA
ENDBRANCH   4  13
ENDBRANCH   1   5
BRANCH   1  14
ATOM     14  N   UNL     1      -2.601  -1.460  -1.106  0.00  0.00    -0.188 NA
ATOM     15  H   UNL     1      -3.237  -2.143  -1.370  0.00  0.00    +0.148 HD
BRANCH  14  16
ATOM     16  C   UNL     1      -2.307  -1.243   0.313  0.00  0.00    +0.062 C 
ATOM     17  C   UNL     1      -1.220  -2.221   0.764  0.00  0.00    +0.019 C 
ATOM     18  C   UNL     1      -0.912  -1.994   2.245  0.00  0.00    +0.001 C 
ATOM     19  C   UNL     1      -2.180  -2.224   3.070  0.00  0.00    -0.001 C 
ATOM     20  C   UNL     1      -3.267  -1.246   2.619  0.00  0.00    -0.015 C 
ATOM     21  C   UNL     1      -3.574  -1.473   1.138  0.00  0.00    -0.056 C 
BRANCH  21  22
ATOM     22  N   UNL     1      -4.618  -0.534   0.705  0.00  0.00    +0.381 N 
ATOM     23  H   UNL     1      -4.820  -0.683  -0.272  0.00  0.00    -0.090 HD
ATOM     24  H   UNL     1      -5.454  -0.685   1.249  0.00  0.00    -0.090 HD
ATOM     25  H   UNL     1      -4.295   0.413   0.840  0.00  0.00    -0.090 HD
ENDBRANCH  21  22
ENDBRANCH  14  16
ENDBRANCH   1  14
TORSDOF 5
