REMARK  Name = ZINC36499957
REMARK  18 active torsions:
REMARK  status: ('A' for Active; 'I' for Inactive)
REMARK    1  A    between atoms: C_1  and  C_2
REMARK    2  A    between atoms: C_2  and  C_3
REMARK    3  A    between atoms: C_2  and  C_4
REMARK    4  A    between atoms: C_2  and  C_5
REMARK    5  A    between atoms: C_5  and  C_6
REMARK    6  A    between atoms: C_6  and  C_7
REMARK    7  A    between atoms: C_6  and  C_8
REMARK    8  A    between atoms: C_6  and  N_9
REMARK    9  A    between atoms: C_10  and  C_12
REMARK   10  A    between atoms: C_12  and  C_14
REMARK   11  A    between atoms: C_12  and  N_23
REMARK   12  A    between atoms: C_15  and  O_22
REMARK   13  A    between atoms: C_17  and  O_21
REMARK   14  A    between atoms: C_19  and  O_20
REMARK   15  A    between atoms: N_23  and  C_24
REMARK   16  A    between atoms: C_24  and  C_25
REMARK   17  A    between atoms: C_30  and  C_32
REMARK   18  A    between atoms: C_33  and  C_34
REMARK                            x       y       z     vdW  Elec       q    Type
REMARK                         _______ _______ _______ _____ _____    ______ ____
ROOT
ATOM      1  C   UNL     1       4.731   0.406  -5.009  0.00  0.00    +0.200 C 
ENDROOT
BRANCH   1   2
ATOM      2  C   UNL     1       4.720  -0.937  -5.694  0.00  0.00    +0.065 A 
ATOM      3  C   UNL     1       5.566  -1.945  -5.258  0.00  0.00    +0.129 A 
ATOM      4  C   UNL     1       5.556  -3.180  -5.888  0.00  0.00    +0.091 A 
ATOM      5  C   UNL     1       4.699  -3.407  -6.955  0.00  0.00    +0.124 A 
ATOM      6  C   UNL     1       3.852  -2.399  -7.390  0.00  0.00    +0.091 A 
ATOM      7  C   UNL     1       3.859  -1.165  -6.757  0.00  0.00    +0.129 A 
BRANCH   7   8
ATOM      8  O   UNL     1       3.026  -0.179  -7.181  0.00  0.00    -0.506 OA
ATOM      9  H   UNL     1       3.405   0.388  -7.866  0.00  0.00    +0.292 HD
ENDBRANCH   7   8
BRANCH   5  10
ATOM     10  O   UNL     1       4.690  -4.617  -7.573  0.00  0.00    -0.507 OA
ATOM     11  H   UNL     1       4.064  -5.249  -7.192  0.00  0.00    +0.292 HD
ENDBRANCH   5  10
BRANCH   3  12
ATOM     12  O   UNL     1       6.406  -1.722  -4.213  0.00  0.00    -0.506 OA
ATOM     13  H   UNL     1       6.063  -2.026  -3.361  0.00  0.00    +0.292 HD
ENDBRANCH   3  12
ENDBRANCH   1   2
BRANCH   1  15
ATOM     14  N   UNL     1       3.012  -0.292  -3.373  0.00  0.00    -0.308 N 
ATOM     15  C   UNL     1       4.224   0.254  -3.598  0.00  0.00    +0.239 C 
ATOM     16  O   UNL     1       4.905   0.623  -2.665  0.00  0.00    -0.273 OA
ATOM     17  H   UNL     1       2.467  -0.588  -4.119  0.00  0.00    +0.149 HD
BRANCH  14  18
ATOM     18  C   UNL     1       2.519  -0.440  -2.001  0.00  0.00    +0.030 C 
ATOM     19  C   UNL     1       2.672   0.888  -1.258  0.00  0.00    +0.031 C 
ATOM     20  C   UNL     1       3.327  -1.523  -1.282  0.00  0.00    +0.031 C 
BRANCH  18  21
ATOM     21  C   UNL     1       1.042  -0.841  -2.031  0.00  0.00    +0.031 C 
BRANCH  21  23
ATOM     22  C   UNL     1       0.532  -0.636  -4.468  0.00  0.00    +0.010 C 
ATOM     23  C   UNL     1       0.310  -0.012  -3.088  0.00  0.00    -0.036 C 
ATOM     24  C   UNL     1       0.854   1.418  -3.082  0.00  0.00    +0.010 C 
ATOM     25  C   UNL     1      -1.186   0.010  -2.773  0.00  0.00    +0.010 C 
ENDBRANCH  21  23
ENDBRANCH  18  21
ENDBRANCH  14  18
ENDBRANCH   1  15
BRANCH   1  26
ATOM     26  N   UNL     1       6.099   0.929  -4.982  0.00  0.00    -0.268 N 
ATOM     27  C   UNL     1       6.849   0.914  -6.102  0.00  0.00    +0.293 C 
ATOM     28  O   UNL     1       6.389   0.466  -7.136  0.00  0.00    -0.260 OA
BRANCH  27  29
ATOM     29  C   UNL     1       8.186   1.425  -6.076  0.00  0.00    -0.003 C 
ATOM     30  C   UNL     1       9.282   1.844  -6.054  0.00  0.00    -0.057 C 
BRANCH  30  31
ATOM     31  C   UNL     1      10.620   2.356  -6.028  0.00  0.00    +0.025 A 
ATOM     32  C   UNL     1      11.154   2.866  -4.841  0.00  0.00    +0.017 A 
ATOM     33  C   UNL     1      12.442   3.356  -4.823  0.00  0.00    +0.001 A 
ATOM     34  C   UNL     1      13.207   3.345  -5.977  0.00  0.00    +0.000 A 
ATOM     35  C   UNL     1      12.685   2.841  -7.156  0.00  0.00    +0.001 A 
ATOM     36  C   UNL     1      11.400   2.342  -7.188  0.00  0.00    +0.017 A 
ENDBRANCH  30  31
ENDBRANCH  27  29
BRANCH  26  37
ATOM     37  C   UNL     1       6.653   1.468  -3.737  0.00  0.00    +0.184 C 
BRANCH  37  38
ATOM     38  C   UNL     1       7.332   0.364  -2.969  0.00  0.00    +0.122 A 
ATOM     39  C   UNL     1       8.597  -0.056  -3.149  0.00  0.00    +0.046 A 
ATOM     40  C   UNL     1       8.817  -1.102  -2.223  0.00  0.00    +0.041 A 
ATOM     41  C   UNL     1       7.672  -1.259  -1.534  0.00  0.00    +0.195 A 
ATOM     42  O   UNL     1       6.778  -0.364  -1.986  0.00  0.00    -0.466 OA
ENDBRANCH  37  38
ENDBRANCH  26  37
ENDBRANCH   1  26
TORSDOF 13
