REMARK  Name = ZINC67010317
REMARK  9 active torsions:
REMARK  status: ('A' for Active; 'I' for Inactive)
REMARK    1  A    between atoms: C_1  and  C_2
REMARK    2  A    between atoms: C_2  and  C_4
REMARK    3  A    between atoms: C_2  and  N_15
REMARK    4  A    between atoms: C_8  and  S_10
REMARK    5  A    between atoms: S_10  and  N_13
REMARK    6  A    between atoms: N_13  and  C_14
REMARK    7  A    between atoms: N_15  and  C_16
REMARK    8  A    between atoms: C_16  and  C_17
REMARK    9  A    between atoms: C_22  and  O_23
REMARK                            x       y       z     vdW  Elec       q    Type
REMARK                         _______ _______ _______ _____ _____    ______ ____
ROOT
ATOM      1  C   UNL     1      -0.019   1.526   0.010  0.00  0.00    -0.009 C 
ATOM      2  C   UNL     1       0.002  -0.004   0.002  0.00  0.00    -0.044 C 
ENDROOT
BRANCH   2   3
ATOM      3  C   UNL     1       0.731  -0.503   1.223  0.00  0.00    -0.060 A 
ATOM      4  C   UNL     1       0.081  -0.558   2.442  0.00  0.00    +0.002 A 
ATOM      5  C   UNL     1       0.749  -1.016   3.562  0.00  0.00    +0.002 A 
ATOM      6  C   UNL     1       2.068  -1.420   3.463  0.00  0.00    +0.028 A 
ATOM      7  C   UNL     1       2.718  -1.365   2.244  0.00  0.00    +0.105 A 
ATOM      8  C   UNL     1       2.048  -0.911   1.123  0.00  0.00    +0.030 A 
BRANCH   7   9
ATOM      9  S   UNL     1       4.399  -1.879   2.118  0.00  0.00    +0.058 S 
ATOM     10  O   UNL     1       4.941  -1.217   0.984  0.00  0.00    -0.153 OA
ATOM     11  O   UNL     1       4.961  -1.749   3.417  0.00  0.00    -0.153 OA
BRANCH   9  12
ATOM     12  N   UNL     1       4.391  -3.496   1.764  0.00  0.00    -0.193 NA
ATOM     13  C   UNL     1       3.843  -3.965   0.489  0.00  0.00    +0.127 C 
ATOM     14  H   UNL     1       4.750  -4.134   2.401  0.00  0.00    +0.148 HD
ENDBRANCH   9  12
ENDBRANCH   7   9
ENDBRANCH   2   3
BRANCH   2  15
ATOM     15  N   UNL     1      -1.376  -0.512   0.012  0.00  0.00    +0.386 N 
ATOM     16  H   UNL     1      -1.363  -1.518   0.090  0.00  0.00    -0.085 HD
ATOM     17  H   UNL     1      -1.873  -0.121   0.799  0.00  0.00    -0.085 HD
BRANCH  15  18
ATOM     18  C   UNL     1      -2.050  -0.126  -1.234  0.00  0.00    -0.042 C 
BRANCH  18  19
ATOM     19  C   UNL     1      -3.464  -0.648  -1.224  0.00  0.00    -0.022 A 
ATOM     20  C   UNL     1      -3.779  -1.806  -1.908  0.00  0.00    +0.020 A 
ATOM     21  C   UNL     1      -5.076  -2.285  -1.899  0.00  0.00    +0.018 A 
ATOM     22  C   UNL     1      -6.061  -1.606  -1.204  0.00  0.00    +0.019 A 
ATOM     23  C   UNL     1      -5.751  -0.448  -0.518  0.00  0.00    +0.046 A 
ATOM     24  C   UNL     1      -4.449   0.031  -0.522  0.00  0.00    +0.118 A 
ATOM     25 BR   UNL     1      -5.504  -3.870  -2.837  0.00  0.00    -0.050 Br
BRANCH  24  26
ATOM     26  O   UNL     1      -4.140   1.168   0.157  0.00  0.00    -0.507 OA
ATOM     27  H   UNL     1      -4.233   1.976  -0.366  0.00  0.00    +0.292 HD
ENDBRANCH  24  26
ENDBRANCH  18  19
ENDBRANCH  15  18
ENDBRANCH   2  15
TORSDOF 7
