REMARK  Name = ZINC20812886
REMARK  10 active torsions:
REMARK  status: ('A' for Active; 'I' for Inactive)
REMARK    1  A    between atoms: C_1  and  C_2
REMARK    2  A    between atoms: C_2  and  C_3
REMARK    3  A    between atoms: C_8  and  N_9
REMARK    4  A    between atoms: C_10  and  C_12
REMARK    5  A    between atoms: C_12  and  N_13
REMARK    6  A    between atoms: N_16  and  C_19
REMARK    7  A    between atoms: C_19  and  C_20
REMARK    8  A    between atoms: N_25  and  C_26
REMARK    9  A    between atoms: C_29  and  C_33
REMARK   10  A    between atoms: C_31  and  C_32
REMARK                            x       y       z     vdW  Elec       q    Type
REMARK                         _______ _______ _______ _____ _____    ______ ____
ROOT
ATOM      1  N   UNL     1      -0.225   0.037  -0.219  0.00  0.00    +0.387 N 
ATOM      2  C   UNL     1       0.322  -0.505  -1.471  0.00  0.00    -0.063 C 
ATOM      3  C   UNL     1       0.361  -2.033  -1.388  0.00  0.00    +0.066 C 
ATOM      4  N   UNL     1      -0.996  -2.542  -1.144  0.00  0.00    -0.298 NA
ATOM      5  C   UNL     1      -1.542  -2.000   0.107  0.00  0.00    +0.066 C 
ATOM      6  C   UNL     1      -1.582  -0.472   0.024  0.00  0.00    -0.063 C 
ATOM      7  H   UNL     1       0.418  -0.300   0.607  0.00  0.00    -0.081 HD
ENDROOT
BRANCH   1   8
ATOM      8  C   UNL     1      -0.209   1.506  -0.230  0.00  0.00    +0.019 C 
BRANCH   8  10
ATOM      9  N   UNL     1       1.479   3.315  -0.245  0.00  0.00    -0.287 N 
ATOM     10  C   UNL     1       1.218   1.993  -0.235  0.00  0.00    +0.201 C 
ATOM     11  O   UNL     1       2.131   1.194  -0.230  0.00  0.00    -0.278 OA
ATOM     12  H   UNL     1       0.654   4.039  -0.172  0.00  0.00    +0.155 HD
BRANCH   9  18
ATOM     13  C   UNL     1       3.082   4.934  -1.047  0.00  0.00    -0.026 A 
ATOM     14  C   UNL     1       4.386   5.377  -1.148  0.00  0.00    +0.005 A 
ATOM     15  C   UNL     1       5.410   4.660  -0.555  0.00  0.00    +0.000 A 
ATOM     16  C   UNL     1       5.131   3.498   0.140  0.00  0.00    +0.002 A 
ATOM     17  C   UNL     1       3.828   3.052   0.249  0.00  0.00    +0.023 A 
ATOM     18  C   UNL     1       2.799   3.767  -0.350  0.00  0.00    +0.036 A 
BRANCH  13  20
ATOM     19  C   UNL     1       1.342   6.658  -0.661  0.00  0.00    +0.009 C 
ATOM     20  C   UNL     1       1.967   5.716  -1.692  0.00  0.00    +0.033 C 
ENDBRANCH  13  20
ENDBRANCH   9  18
ENDBRANCH   8  10
ENDBRANCH   1   8
BRANCH   4  21
ATOM     21  C   UNL     1      -1.012  -4.011  -1.133  0.00  0.00    +0.180 C 
BRANCH  21  22
ATOM     22  C   UNL     1      -0.680  -4.528  -2.510  0.00  0.00    +0.234 C 
ATOM     23  O   UNL     1      -0.452  -3.749  -3.411  0.00  0.00    -0.274 OA
ATOM     24  N   UNL     1      -0.636  -5.855  -2.739  0.00  0.00    -0.239 N 
ATOM     25  C   UNL     1      -0.339  -6.317  -3.970  0.00  0.00    +0.310 C 
ATOM     26  O   UNL     1      -0.111  -5.536  -4.873  0.00  0.00    -0.252 OA
ATOM     27  N   UNL     1      -0.295  -7.644  -4.199  0.00  0.00    -0.269 N 
ATOM     28  H   UNL     1      -0.843  -6.561  -1.921  0.00  0.00    +0.159 HD
ATOM     29  H   UNL     1      -0.410  -8.351  -3.364  0.00  0.00    +0.156 HD
BRANCH  27  30
ATOM     30  C   UNL     1      -0.105  -8.124  -5.500  0.00  0.00    +0.038 A 
ATOM     31  C   UNL     1      -0.464  -7.341  -6.589  0.00  0.00    +0.024 A 
ATOM     32  C   UNL     1      -0.275  -7.817  -7.872  0.00  0.00    +0.005 A 
ATOM     33  C   UNL     1       0.273  -9.072  -8.072  0.00  0.00    -0.050 A 
ATOM     34  C   UNL     1       0.631  -9.853  -6.989  0.00  0.00    +0.008 A 
ATOM     35  C   UNL     1       0.449  -9.380  -5.704  0.00  0.00    -0.029 A 
ATOM     36  C   UNL     1       0.846 -10.230  -4.524  0.00  0.00    +0.045 C 
ATOM     37  C   UNL     1       0.479  -9.588  -9.472  0.00  0.00    +0.044 C 
ENDBRANCH  27  30
ENDBRANCH  21  22
ENDBRANCH   4  21
TORSDOF 7
