REMARK  Name = ZINC63589239
REMARK  9 active torsions:
REMARK  status: ('A' for Active; 'I' for Inactive)
REMARK    1  A    between atoms: C_1  and  C_2
REMARK    2  A    between atoms: C_2  and  C_3
REMARK    3  A    between atoms: C_2  and  C_4
REMARK    4  A    between atoms: C_7  and  N_10
REMARK    5  A    between atoms: N_12  and  C_13
REMARK    6  A    between atoms: C_13  and  C_14
REMARK    7  A    between atoms: C_14  and  C_15
REMARK    8  A    between atoms: N_24  and  C_25
REMARK    9  A    between atoms: C_25  and  C_27
REMARK                            x       y       z     vdW  Elec       q    Type
REMARK                         _______ _______ _______ _____ _____    ______ ____
ROOT
ATOM      1  N   UNL     1      -5.241  -1.727  -0.164  0.00  0.00    -0.328 N 
ATOM      2  C   UNL     1      -5.723  -2.648  -1.048  0.00  0.00    +0.194 C 
ATOM      3  N   UNL     1      -6.987  -3.141  -0.899  0.00  0.00    -0.357 N 
ATOM      4  N   UNL     1      -4.965  -3.064  -2.051  0.00  0.00    -0.143 NA
ATOM      5  H   UNL     1      -7.313  -3.829  -1.499  0.00  0.00    +0.162 HD
ATOM      6  H   UNL     1      -5.735  -1.527   0.647  0.00  0.00    +0.169 HD
ENDROOT
BRANCH   1  10
ATOM      7  C   UNL     1      -1.648   0.230  -0.947  0.00  0.00    -0.045 A 
ATOM      8  C   UNL     1      -2.475  -0.138  -1.992  0.00  0.00    +0.006 A 
ATOM      9  C   UNL     1      -3.667  -0.787  -1.736  0.00  0.00    +0.026 A 
ATOM     10  C   UNL     1      -4.035  -1.070  -0.427  0.00  0.00    +0.042 A 
ATOM     11  C   UNL     1      -3.201  -0.699   0.620  0.00  0.00    +0.026 A 
ATOM     12  C   UNL     1      -2.009  -0.055   0.357  0.00  0.00    +0.006 A 
BRANCH   7  14
ATOM     13  C   UNL     1       0.533   0.052  -2.113  0.00  0.00    +0.012 C 
ATOM     14  C   UNL     1      -0.348   0.938  -1.231  0.00  0.00    +0.013 C 
ATOM     15  C   UNL     1      -0.633   2.256  -1.954  0.00  0.00    +0.012 C 
ENDBRANCH   7  14
ENDBRANCH   1  10
BRANCH   4  16
ATOM     16  C   UNL     1      -5.482  -3.860  -2.997  0.00  0.00    +0.270 C 
ATOM     17  O   UNL     1      -6.668  -4.140  -2.976  0.00  0.00    -0.268 OA
BRANCH  16  18
ATOM     18  C   UNL     1      -4.613  -4.399  -4.066  0.00  0.00    +0.040 A 
ATOM     19  C   UNL     1      -3.253  -4.085  -4.089  0.00  0.00    +0.016 A 
ATOM     20  C   UNL     1      -2.448  -4.589  -5.088  0.00  0.00    +0.040 A 
ATOM     21  C   UNL     1      -2.985  -5.407  -6.069  0.00  0.00    +0.142 A 
ATOM     22  C   UNL     1      -4.336  -5.723  -6.051  0.00  0.00    +0.077 A 
ATOM     23  C   UNL     1      -5.149  -5.228  -5.053  0.00  0.00    +0.036 A 
ATOM     24 CL   UNL     1      -5.002  -6.748  -7.284  0.00  0.00    -0.081 Cl
ATOM     25  F   UNL     1      -2.191  -5.898  -7.046  0.00  0.00    -0.204 F 
ENDBRANCH  16  18
ENDBRANCH   4  16
BRANCH   3  26
ATOM     26  C   UNL     1      -7.851  -2.631   0.169  0.00  0.00    +0.120 C 
BRANCH  26  27
ATOM     27  C   UNL     1      -9.143  -3.448   0.214  0.00  0.00    +0.054 C 
BRANCH  27  28
ATOM     28  C   UNL     1     -10.031  -2.923   1.313  0.00  0.00    -0.040 C 
ATOM     29  C   UNL     1     -11.036  -2.026   1.187  0.00  0.00    -0.001 A 
ATOM     30  C   UNL     1     -11.580  -1.298   0.035  0.00  0.00    +0.010 A 
ATOM     31  C   UNL     1     -12.613  -0.446   0.226  0.00  0.00    +0.001 A 
ATOM     32  C   UNL     1     -13.174  -0.241   1.494  0.00  0.00    +0.002 A 
ATOM     33  C   UNL     1     -12.729  -0.874   2.600  0.00  0.00    +0.026 A 
ATOM     34  C   UNL     1     -11.647  -1.793   2.515  0.00  0.00    +0.043 A 
ATOM     35  N   UNL     1     -11.044  -2.517   3.426  0.00  0.00    -0.380 N 
ATOM     36  C   UNL     1      -9.984  -3.298   2.777  0.00  0.00    +0.144 C 
ATOM     37  H   UNL     1     -11.264  -2.537   4.370  0.00  0.00    +0.160 HD
ENDBRANCH  27  28
ENDBRANCH  26  27
ENDBRANCH   3  26
TORSDOF 7
