REMARK  Name = ZINC67505506
REMARK  8 active torsions:
REMARK  status: ('A' for Active; 'I' for Inactive)
REMARK    1  A    between atoms: C_4  and  C_7
REMARK    2  A    between atoms: C_7  and  C_9
REMARK    3  A    between atoms: C_7  and  N_14
REMARK    4  A    between atoms: N_14  and  C_15
REMARK    5  A    between atoms: C_15  and  C_16
REMARK    6  A    between atoms: C_19  and  O_22
REMARK    7  A    between atoms: O_22  and  C_23
REMARK    8  A    between atoms: C_23  and  C_24
REMARK                            x       y       z     vdW  Elec       q    Type
REMARK                         _______ _______ _______ _____ _____    ______ ____
ROOT
ATOM      1  N   UNL     1       3.850  -1.857   0.867  0.00  0.00    +0.386 N 
ATOM      2  H   UNL     1       3.205  -2.581   0.589  0.00  0.00    -0.085 HD
ATOM      3  H   UNL     1       4.793  -2.211   0.822  0.00  0.00    -0.085 HD
ENDROOT
BRANCH   1   4
ATOM      4  C   UNL     1       3.714  -0.707  -0.037  0.00  0.00    -0.037 C 
BRANCH   4   8
ATOM      5  C   UNL     1      -0.367   0.550  -0.143  0.00  0.00    +0.000 A 
ATOM      6  C   UNL     1       0.646   1.491  -0.128  0.00  0.00    +0.000 A 
ATOM      7  C   UNL     1       1.966   1.084  -0.093  0.00  0.00    +0.002 A 
ATOM      8  C   UNL     1       2.274  -0.264  -0.074  0.00  0.00    -0.061 A 
ATOM      9  C   UNL     1       1.262  -1.204  -0.088  0.00  0.00    +0.002 A 
ATOM     10  C   UNL     1      -0.059  -0.798  -0.124  0.00  0.00    +0.000 A 
ENDBRANCH   4   8
BRANCH   4  11
ATOM     11  C   UNL     1       4.160  -1.110  -1.444  0.00  0.00    -0.021 C 
ATOM     12  C   UNL     1       5.622  -1.601  -1.415  0.00  0.00    +0.002 C 
ATOM     13  C   UNL     1       6.227  -1.072  -2.740  0.00  0.00    +0.000 C 
ATOM     14  C   UNL     1       5.568   0.322  -2.884  0.00  0.00    +0.000 C 
ATOM     15  C   UNL     1       4.125   0.113  -2.378  0.00  0.00    +0.002 C 
ENDBRANCH   4  11
ENDBRANCH   1   4
BRANCH   1  16
ATOM     16  C   UNL     1       3.550  -1.436   2.243  0.00  0.00    -0.046 C 
BRANCH  16  17
ATOM     17  C   UNL     1       3.810  -2.582   3.186  0.00  0.00    -0.064 A 
ATOM     18  C   UNL     1       2.798  -3.478   3.480  0.00  0.00    +0.005 A 
ATOM     19  C   UNL     1       3.034  -4.529   4.345  0.00  0.00    +0.046 A 
ATOM     20  C   UNL     1       4.287  -4.685   4.919  0.00  0.00    +0.121 A 
ATOM     21  C   UNL     1       5.301  -3.786   4.622  0.00  0.00    +0.046 A 
ATOM     22  C   UNL     1       5.061  -2.739   3.753  0.00  0.00    +0.005 A 
BRANCH  20  23
ATOM     23  O   UNL     1       4.521  -5.718   5.771  0.00  0.00    -0.483 OA
BRANCH  23  24
ATOM     24  C   UNL     1       5.835  -5.817   6.324  0.00  0.00    +0.324 C 
BRANCH  24  25
ATOM     25  C   UNL     1       5.906  -7.014   7.238  0.00  0.00    +0.248 C 
ATOM     26  O   UNL     1       4.928  -7.713   7.399  0.00  0.00    -0.272 OA
ATOM     27  N   UNL     1       7.056  -7.307   7.876  0.00  0.00    -0.327 N 
ATOM     28  H   UNL     1       7.838  -6.748   7.747  0.00  0.00    +0.145 HD
ATOM     29  H   UNL     1       7.102  -8.077   8.464  0.00  0.00    +0.145 HD
ENDBRANCH  24  25
ENDBRANCH  23  24
ENDBRANCH  20  23
ENDBRANCH  16  17
ENDBRANCH   1  16
TORSDOF 8
