REMARK  Name = ZINC51158139
REMARK  10 active torsions:
REMARK  status: ('A' for Active; 'I' for Inactive)
REMARK    1  A    between atoms: C_1  and  C_2
REMARK    2  A    between atoms: C_5  and  C_28
REMARK    3  A    between atoms: N_8  and  C_10
REMARK    4  A    between atoms: C_10  and  C_11
REMARK    5  A    between atoms: N_13  and  C_14
REMARK    6  A    between atoms: C_14  and  C_15
REMARK    7  A    between atoms: C_18  and  N_21
REMARK    8  A    between atoms: N_24  and  C_25
REMARK    9  A    between atoms: C_25  and  C_26
REMARK   10  A    between atoms: C_25  and  C_27
REMARK                            x       y       z     vdW  Elec       q    Type
REMARK                         _______ _______ _______ _____ _____    ______ ____
ROOT
ATOM      1  C   UNL     1       1.971   0.558   6.038  0.00  0.00    +0.139 C 
ENDROOT
BRANCH   1   2
ATOM      2  C   UNL     1       2.673   0.130   7.301  0.00  0.00    -0.030 A 
ATOM      3  C   UNL     1       2.259  -1.010   7.967  0.00  0.00    +0.007 A 
ATOM      4  C   UNL     1       2.900  -1.405   9.125  0.00  0.00    +0.023 A 
ATOM      5  C   UNL     1       3.961  -0.657   9.620  0.00  0.00    +0.035 A 
ATOM      6  C   UNL     1       4.373   0.486   8.949  0.00  0.00    +0.023 A 
ATOM      7  C   UNL     1       3.732   0.873   7.788  0.00  0.00    +0.007 A 
BRANCH   5   8
ATOM      8  N   UNL     1       4.612  -1.055  10.793  0.00  0.00    -0.269 N 
ATOM      9  C   UNL     1       3.911  -1.630  11.791  0.00  0.00    +0.304 C 
ATOM     10  O   UNL     1       2.731  -1.880  11.639  0.00  0.00    -0.253 OA
ATOM     11  N   UNL     1       4.519  -1.928  12.956  0.00  0.00    -0.297 N 
ATOM     12  H   UNL     1       5.567  -0.917  10.888  0.00  0.00    +0.156 HD
ATOM     13  H   UNL     1       5.461  -1.729  13.077  0.00  0.00    +0.151 HD
BRANCH  11  14
ATOM     14  C   UNL     1       3.758  -2.553  14.040  0.00  0.00    +0.068 C 
ATOM     15  C   UNL     1       4.710  -3.334  14.948  0.00  0.00    +0.027 C 
ATOM     16  C   UNL     1       3.049  -1.470  14.856  0.00  0.00    +0.027 C 
ENDBRANCH  11  14
ENDBRANCH   5   8
ENDBRANCH   1   2
BRANCH   1  19
ATOM     17  C   UNL     1       2.162   0.176   3.639  0.00  0.00    +0.197 C 
ATOM     18  O   UNL     1       1.209   0.909   3.476  0.00  0.00    -0.278 OA
ATOM     19  N   UNL     1       2.622  -0.065   4.883  0.00  0.00    -0.313 N 
ATOM     20  H   UNL     1       3.384  -0.651   5.013  0.00  0.00    +0.149 HD
BRANCH  17  21
ATOM     21  C   UNL     1       2.831  -0.465   2.450  0.00  0.00    +0.019 C 
BRANCH  21  27
ATOM     22  C   UNL     1       0.001   1.468  -0.012  0.00  0.00    +0.005 C 
ATOM     23  C   UNL     1       0.031  -0.062  -0.016  0.00  0.00    -0.031 C 
ATOM     24  C   UNL     1       0.757  -0.555  -1.271  0.00  0.00    +0.003 C 
ATOM     25  C   UNL     1       2.210  -0.075  -1.230  0.00  0.00    -0.031 C 
ATOM     26  C   UNL     1       2.871  -0.574   0.056  0.00  0.00    -0.075 C 
ATOM     27  N   UNL     1       2.147  -0.047   1.219  0.00  0.00    +0.386 N 
ATOM     28  C   UNL     1       0.772  -0.562   1.226  0.00  0.00    -0.075 C 
ATOM     29  C   UNL     1       2.965  -0.627  -2.441  0.00  0.00    +0.005 C 
ATOM     30  H   UNL     1       2.128   0.961   1.173  0.00  0.00    -0.081 HD
ENDBRANCH  21  27
ENDBRANCH  17  21
ENDBRANCH   1  19
TORSDOF 6
