REMARK  Name = ZINC29820635
REMARK  4 active torsions:
REMARK  status: ('A' for Active; 'I' for Inactive)
REMARK    1  A    between atoms: C_6  and  N_7
REMARK    2  A    between atoms: C_8  and  C_10
REMARK    3  A    between atoms: N_16  and  C_17
REMARK    4  A    between atoms: C_17  and  C_18
REMARK                            x       y       z     vdW  Elec       q    Type
REMARK                         _______ _______ _______ _____ _____    ______ ____
ROOT
ATOM      1  C   UNL     1      -0.105   0.998   2.501  0.00  0.00    +0.020 C 
ATOM      2  C   UNL     1      -0.818   2.065   3.335  0.00  0.00    -0.006 C 
ATOM      3  C   UNL     1      -2.324   1.786   3.333  0.00  0.00    -0.003 C 
ATOM      4  C   UNL     1      -2.829   1.769   1.888  0.00  0.00    -0.019 C 
ATOM      5  C   UNL     1      -2.058   0.711   1.095  0.00  0.00    -0.077 C 
ATOM      6  N   UNL     1      -0.624   1.022   1.127  0.00  0.00    +0.393 N 
ATOM      7  H   UNL     1      -0.493   2.043   0.738  0.00  0.00    -0.080 HD
ENDROOT
BRANCH   1   9
ATOM      8  N   UNL     1       2.168   0.773   3.449  0.00  0.00    -0.287 N 
ATOM      9  C   UNL     1       1.375   1.280   2.484  0.00  0.00    +0.204 C 
ATOM     10  O   UNL     1       1.852   1.963   1.603  0.00  0.00    -0.277 OA
ATOM     11  H   UNL     1       1.726   0.218   4.289  0.00  0.00    +0.155 HD
BRANCH   8  17
ATOM     12  C   UNL     1       4.077   2.135   2.871  0.00  0.00    +0.025 A 
ATOM     13  C   UNL     1       5.446   2.313   2.806  0.00  0.00    +0.023 A 
ATOM     14  C   UNL     1       6.296   1.315   3.249  0.00  0.00    +0.059 A 
ATOM     15  C   UNL     1       5.777   0.137   3.760  0.00  0.00    +0.061 A 
ATOM     16  C   UNL     1       4.409  -0.043   3.832  0.00  0.00    +0.044 A 
ATOM     17  C   UNL     1       3.555   0.955   3.382  0.00  0.00    +0.035 A 
ATOM     18 CL   UNL     1       6.847  -1.113   4.315  0.00  0.00    -0.082 Cl
ATOM     19 CL   UNL     1       8.015   1.542   3.166  0.00  0.00    -0.082 Cl
ENDBRANCH   8  17
ENDBRANCH   1   9
BRANCH   6  20
ATOM     20  C   UNL     1       0.133   0.107   0.263  0.00  0.00    +0.020 C 
BRANCH  20  21
ATOM     21  C   UNL     1      -0.096  -1.313   0.712  0.00  0.00    +0.199 C 
ATOM     22  O   UNL     1      -0.732  -1.535   1.720  0.00  0.00    -0.278 OA
ATOM     23  N   UNL     1       0.407  -2.337  -0.006  0.00  0.00    -0.298 N 
ATOM     24  C   UNL     1       0.189  -3.726   0.422  0.00  0.00    +0.113 C 
ATOM     25  C   UNL     1      -0.670  -4.430  -0.639  0.00  0.00    +0.061 C 
ATOM     26  C   UNL     1      -0.166  -4.049  -1.993  0.00  0.00    -0.004 A 
ATOM     27  C   UNL     1       0.653  -3.012  -2.319  0.00  0.00    -0.020 A 
ATOM     28  C   UNL     1       0.973  -2.868  -3.668  0.00  0.00    +0.013 A 
ATOM     29  C   UNL     1       0.478  -3.738  -4.577  0.00  0.00    +0.046 A 
ATOM     30  S   UNL     1      -0.491  -4.832  -3.550  0.00  0.00    -0.101 S 
ATOM     31  C   UNL     1       1.174  -2.080  -1.233  0.00  0.00    +0.143 C 
ENDBRANCH  20  21
ENDBRANCH   6  20
TORSDOF 4
