REMARK  Name = ZINC08428554
REMARK  12 active torsions:
REMARK  status: ('A' for Active; 'I' for Inactive)
REMARK    1  A    between atoms: C_1  and  N_57
REMARK    2  A    between atoms: C_2  and  N_57
REMARK    3  A    between atoms: C_3  and  C_4
REMARK    4  A    between atoms: C_3  and  N_57
REMARK    5  A    between atoms: C_7  and  C_10
REMARK    6  A    between atoms: C_10  and  N_59
REMARK    7  A    between atoms: C_11  and  C_12
REMARK    8  A    between atoms: C_11  and  N_59
REMARK    9  A    between atoms: C_12  and  C_14
REMARK   10  A    between atoms: C_12  and  O_27
REMARK   11  A    between atoms: C_14  and  O_15
REMARK   12  A    between atoms: O_15  and  C_16
REMARK                            x       y       z     vdW  Elec       q    Type
REMARK                         _______ _______ _______ _____ _____    ______ ____
ROOT
ATOM      1  C   UNL     1      -0.142   0.991  -2.422  0.00  0.00    -0.048 C 
ENDROOT
BRANCH   1   2
ATOM      2  N   UNL     1      -0.810   1.446  -1.188  0.00  0.00    +0.383 N 
ATOM      3  H   UNL     1      -0.783   2.471  -1.147  0.00  0.00    -0.085 HD
ATOM      4  H   UNL     1      -1.787   1.130  -1.196  0.00  0.00    -0.085 HD
BRANCH   2   5
ATOM      5  C   UNL     1      -0.129   0.892  -0.003  0.00  0.00    -0.047 C 
BRANCH   5   9
ATOM      6  C   UNL     1      -2.122   2.255   3.521  0.00  0.00    -0.064 A 
ATOM      7  C   UNL     1      -2.517   1.077   2.916  0.00  0.00    +0.002 A 
ATOM      8  C   UNL     1      -1.872   0.636   1.775  0.00  0.00    +0.002 A 
ATOM      9  C   UNL     1      -0.832   1.373   1.240  0.00  0.00    -0.064 A 
ATOM     10  C   UNL     1      -0.434   2.549   1.849  0.00  0.00    +0.002 A 
ATOM     11  C   UNL     1      -1.082   2.992   2.987  0.00  0.00    +0.002 A 
BRANCH   6  12
ATOM     12  C   UNL     1      -2.826   2.736   4.764  0.00  0.00    -0.044 C 
BRANCH  12  15
ATOM     13  C   UNL     1      -0.797   2.733   6.085  0.00  0.00    -0.096 C 
ATOM     14  C   UNL     1      -2.945   2.438   7.163  0.00  0.00    -0.096 C 
ATOM     15  N   UNL     1      -2.153   2.161   5.947  0.00  0.00    +0.379 N 
ATOM     16  H   UNL     1      -2.074   1.144   5.824  0.00  0.00    -0.082 HD
ENDBRANCH  12  15
ENDBRANCH   6  12
ENDBRANCH   5   9
ENDBRANCH   2   5
ENDBRANCH   1   2
BRANCH   1  17
ATOM     17  C   UNL     1      -0.869   1.579  -3.632  0.00  0.00    +0.123 C 
BRANCH  17  18
ATOM     18  O   UNL     1      -2.229   1.139  -3.632  0.00  0.00    -0.391 OA
ATOM     19  H   UNL     1      -2.331   0.178  -3.677  0.00  0.00    +0.210 HD
ENDBRANCH  17  18
BRANCH  17  20
ATOM     20  C   UNL     1      -0.182   1.112  -4.917  0.00  0.00    +0.190 C 
BRANCH  20  21
ATOM     21  O   UNL     1      -0.787   1.753  -6.042  0.00  0.00    -0.369 OA
BRANCH  21  22
ATOM     22  C   UNL     1      -0.151   1.464  -7.288  0.00  0.00    +0.149 C 
ATOM     23  C   UNL     1       0.974   2.470  -7.524  0.00  0.00    +0.037 C 
ATOM     24  C   UNL     1       1.499   2.281  -8.952  0.00  0.00    +0.007 C 
ATOM     25  C   UNL     1       0.427   2.765  -9.927  0.00  0.00    +0.035 C 
ATOM     26  C   UNL     1      -0.903   2.133  -9.609  0.00  0.00    -0.042 A 
ATOM     27  C   UNL     1      -1.169   1.540  -8.395  0.00  0.00    -0.016 A 
ATOM     28  C   UNL     1      -2.420   0.982  -8.163  0.00  0.00    +0.006 A 
ATOM     29  C   UNL     1      -3.395   1.014  -9.138  0.00  0.00    +0.000 A 
ATOM     30  C   UNL     1      -3.125   1.607 -10.358  0.00  0.00    +0.000 A 
ATOM     31  C   UNL     1      -1.884   2.163 -10.590  0.00  0.00    +0.004 A 
ENDBRANCH  21  22
ENDBRANCH  20  21
ENDBRANCH  17  20
ENDBRANCH   1  17
TORSDOF 10
