REMARK  Name = ZINC57840463
REMARK  8 active torsions:
REMARK  status: ('A' for Active; 'I' for Inactive)
REMARK    1  A    between atoms: C_1  and  C_2
REMARK    2  A    between atoms: C_2  and  C_12
REMARK    3  A    between atoms: N_5  and  C_9
REMARK    4  A    between atoms: C_9  and  C_10
REMARK    5  A    between atoms: C_10  and  N_11
REMARK    6  A    between atoms: C_15  and  O_21
REMARK    7  A    between atoms: C_16  and  N_18
REMARK    8  A    between atoms: O_21  and  C_22
REMARK                            x       y       z     vdW  Elec       q    Type
REMARK                         _______ _______ _______ _____ _____    ______ ____
ROOT
ATOM      1  C   UNL     1      -0.019   1.526   0.010  0.00  0.00    +0.047 C 
ATOM      2  C   UNL     1       0.002  -0.004   0.002  0.00  0.00    +0.135 C 
ATOM      3  C   UNL     1       0.815  -0.520  -1.169  0.00  0.00    +0.251 C 
ATOM      4  O   UNL     1       0.595  -0.342  -2.348  0.00  0.00    -0.272 OA
ATOM      5  N   UNL     1       1.833  -1.217  -0.627  0.00  0.00    -0.226 N 
ATOM      6  C   UNL     1       1.777  -1.214   0.710  0.00  0.00    +0.310 C 
ATOM      7  O   UNL     1       2.586  -1.776   1.421  0.00  0.00    -0.252 OA
ATOM      8  N   UNL     1       0.724  -0.519   1.178  0.00  0.00    -0.281 N 
ATOM      9  H   UNL     1       0.487  -0.383   2.109  0.00  0.00    +0.152 HD
ENDROOT
BRANCH   2  10
ATOM     10  C   UNL     1      -1.401  -0.551  -0.040  0.00  0.00    -0.013 A 
ATOM     11  C   UNL     1      -2.004  -0.814  -1.257  0.00  0.00    +0.010 A 
ATOM     12  C   UNL     1      -3.290  -1.316  -1.298  0.00  0.00    +0.048 A 
ATOM     13  C   UNL     1      -3.977  -1.557  -0.117  0.00  0.00    +0.150 A 
ATOM     14  C   UNL     1      -3.371  -1.293   1.102  0.00  0.00    +0.168 A 
ATOM     15  C   UNL     1      -2.082  -0.796   1.138  0.00  0.00    +0.042 A 
BRANCH  14  16
ATOM     16  N   UNL     1      -4.102  -1.548   2.364  0.00  0.00    +0.060 N 
ATOM     17  O   UNL     1      -3.572  -1.318   3.426  0.00  0.00    -0.126 OA
ATOM     18  O   UNL     1      -5.228  -1.987   2.332  0.00  0.00    -0.126 OA
ENDBRANCH  14  16
BRANCH  13  19
ATOM     19  O   UNL     1      -5.243  -2.050  -0.155  0.00  0.00    -0.493 OA
ATOM     20  C   UNL     1      -5.805  -2.298  -1.445  0.00  0.00    +0.277 C 
ENDBRANCH  13  19
ENDBRANCH   2  10
BRANCH   5  21
ATOM     21  C   UNL     1       2.871  -1.896  -1.406  0.00  0.00    +0.098 C 
BRANCH  21  22
ATOM     22  C   UNL     1       4.037  -0.936  -1.647  0.00  0.00    -0.067 C 
BRANCH  22  23
ATOM     23  N   UNL     1       5.079  -1.616  -2.428  0.00  0.00    +0.379 N 
ATOM     24  H   UNL     1       5.408  -2.423  -1.919  0.00  0.00    -0.090 HD
ATOM     25  H   UNL     1       4.697  -1.911  -3.314  0.00  0.00    -0.090 HD
ATOM     26  H   UNL     1       5.848  -0.983  -2.587  0.00  0.00    -0.090 HD
ENDBRANCH  22  23
ENDBRANCH  21  22
ENDBRANCH   5  21
TORSDOF 6
