REMARK  Name = ZINC61440140
REMARK  6 active torsions:
REMARK  status: ('A' for Active; 'I' for Inactive)
REMARK    1  A    between atoms: C_1  and  C_2
REMARK    2  A    between atoms: C_9  and  S_11
REMARK    3  A    between atoms: S_11  and  C_12
REMARK    4  A    between atoms: C_12  and  C_14
REMARK    5  A    between atoms: C_12  and  C_16
REMARK    6  A    between atoms: C_14  and  N_15
REMARK                            x       y       z     vdW  Elec       q    Type
REMARK                         _______ _______ _______ _____ _____    ______ ____
ROOT
ATOM      1  S   UNL     1       0.176  -5.719   2.284  0.00  0.00    -0.081 S 
ENDROOT
BRANCH   1  10
ATOM      2  C   UNL     1       1.220   1.288  -0.738  0.00  0.00    +0.044 C 
ATOM      3  C   UNL     1       1.036  -0.202  -0.612  0.00  0.00    -0.048 A 
ATOM      4  C   UNL     1       1.028  -0.994  -1.750  0.00  0.00    +0.005 A 
ATOM      5  C   UNL     1       0.860  -2.357  -1.652  0.00  0.00    +0.030 A 
ATOM      6  C   UNL     1       0.698  -2.948  -0.396  0.00  0.00    +0.090 A 
ATOM      7  C   UNL     1       0.707  -2.141   0.753  0.00  0.00    +0.067 A 
ATOM      8  C   UNL     1       0.882  -0.770   0.636  0.00  0.00    +0.031 A 
ATOM      9  N   UNL     1       0.528  -2.997   1.827  0.00  0.00    -0.333 N 
ATOM     10  C   UNL     1       0.417  -4.262   1.323  0.00  0.00    +0.168 A 
ATOM     11  N   UNL     1       0.517  -4.230   0.016  0.00  0.00    -0.222 NA
ATOM     12  H   UNL     1       0.488  -2.746   2.764  0.00  0.00    +0.168 HD
ENDBRANCH   1  10
BRANCH   1  13
ATOM     13  C   UNL     1      -0.044  -7.029   1.048  0.00  0.00    +0.073 C 
BRANCH  13  14
ATOM     14  C   UNL     1      -0.080  -8.368   1.738  0.00  0.00    +0.002 A 
ATOM     15  C   UNL     1       0.744  -9.432   1.579  0.00  0.00    +0.027 A 
ATOM     16  C   UNL     1       0.518 -10.573   2.327  0.00  0.00    +0.025 A 
ATOM     17  C   UNL     1      -0.521 -10.593   3.197  0.00  0.00    +0.060 A 
ATOM     18  S   UNL     1      -1.216  -8.963   2.981  0.00  0.00    -0.099 S 
ATOM     19 BR   UNL     1       1.642 -12.082   2.139  0.00  0.00    -0.050 Br
ENDBRANCH  13  14
BRANCH  13  20
ATOM     20  C   UNL     1      -1.359  -6.806   0.298  0.00  0.00    -0.066 C 
BRANCH  20  21
ATOM     21  N   UNL     1      -1.475  -7.788  -0.788  0.00  0.00    +0.379 N 
ATOM     22  H   UNL     1      -0.745  -7.629  -1.466  0.00  0.00    -0.090 HD
ATOM     23  H   UNL     1      -1.386  -8.720  -0.410  0.00  0.00    -0.090 HD
ATOM     24  H   UNL     1      -2.375  -7.692  -1.234  0.00  0.00    -0.090 HD
ENDBRANCH  20  21
ENDBRANCH  13  20
ENDBRANCH   1  13
TORSDOF 5
