REMARK  Name = ZINC02097330
REMARK  6 active torsions:
REMARK  status: ('A' for Active; 'I' for Inactive)
REMARK    1  A    between atoms: C_1  and  C_2
REMARK    2  A    between atoms: C_2  and  C_27
REMARK    3  A    between atoms: C_17  and  O_22
REMARK    4  A    between atoms: C_18  and  O_20
REMARK    5  A    between atoms: O_20  and  C_21
REMARK    6  A    between atoms: O_22  and  C_23
REMARK                            x       y       z     vdW  Elec       q    Type
REMARK                         _______ _______ _______ _____ _____    ______ ____
ROOT
ATOM      1  C   UNL     1       4.577  -8.356   1.334  0.00  0.00    +0.011 C 
ATOM      2  C   UNL     1       3.189  -7.742   1.523  0.00  0.00    -0.023 C 
ATOM      3  C   UNL     1       2.965  -6.656   0.475  0.00  0.00    +0.058 C 
ATOM      4  C   UNL     1       1.559  -6.113   0.544  0.00  0.00    +0.021 C 
ATOM      5  C   UNL     1       0.535  -6.855   1.105  0.00  0.00    +0.077 C 
ATOM      6  C   UNL     1      -0.813  -6.277   1.158  0.00  0.00    +0.170 C 
ATOM      7  O   UNL     1      -1.811  -6.965   1.226  0.00  0.00    -0.292 OA
ATOM      8  C   UNL     1      -0.878  -4.761   1.121  0.00  0.00    +0.107 C 
ATOM      9  C   UNL     1       0.013  -4.285  -0.032  0.00  0.00    +0.111 C 
ATOM     10  N   UNL     1       1.332  -4.882   0.042  0.00  0.00    -0.325 N 
ATOM     11  C   UNL     1       2.505  -4.178  -0.484  0.00  0.00    +0.110 C 
ATOM     12  C   UNL     1       2.575  -2.749   0.007  0.00  0.00    +0.054 C 
ATOM     13  C   UNL     1       1.234  -2.072  -0.019  0.00  0.00    -0.037 A 
ATOM     14  C   UNL     1       0.054  -2.781  -0.015  0.00  0.00    -0.020 A 
ATOM     15  C   UNL     1      -1.158  -2.103  -0.000  0.00  0.00    +0.055 A 
ATOM     16  C   UNL     1      -1.191  -0.720   0.010  0.00  0.00    +0.162 A 
ATOM     17  C   UNL     1       0.002  -0.004   0.002  0.00  0.00    +0.162 A 
ATOM     18  C   UNL     1       1.206  -0.683  -0.019  0.00  0.00    +0.053 A 
ATOM     19  C   UNL     1       0.778  -8.190   1.649  0.00  0.00    +0.168 C 
ATOM     20  O   UNL     1      -0.065  -8.764   2.307  0.00  0.00    -0.292 OA
ATOM     21  C   UNL     1       2.121  -8.832   1.363  0.00  0.00    +0.086 C 
ATOM     22  C   UNL     1       3.088  -7.130   2.922  0.00  0.00    +0.011 C 
ENDROOT
BRANCH  17  23
ATOM     23  O   UNL     1      -0.016   1.356   0.009  0.00  0.00    -0.491 OA
ATOM     24  C   UNL     1       1.248   2.022   0.001  0.00  0.00    +0.277 C 
ENDBRANCH  17  23
BRANCH  16  25
ATOM     25  O   UNL     1      -2.382  -0.065   0.026  0.00  0.00    -0.491 OA
ATOM     26  C   UNL     1      -3.565  -0.867   0.033  0.00  0.00    +0.277 C 
ENDBRANCH  16  25
TORSDOF 2
