REMARK  Name = ZINC09225492
REMARK  5 active torsions:
REMARK  status: ('A' for Active; 'I' for Inactive)
REMARK    1  A    between atoms: C_1  and  C_2
REMARK    2  A    between atoms: C_5  and  N_9
REMARK    3  A    between atoms: C_6  and  C_8
REMARK    4  A    between atoms: C_10  and  C_12
REMARK    5  A    between atoms: C_12  and  C_13
REMARK                            x       y       z     vdW  Elec       q    Type
REMARK                         _______ _______ _______ _____ _____    ______ ____
ROOT
ATOM      1  C   UNL     1      -0.720   1.997   1.277  0.00  0.00    +0.025 C 
ATOM      2  C   UNL     1      -0.835   3.493   1.226  0.00  0.00    +0.200 C 
ATOM      3  O   UNL     1      -1.175   4.010   0.183  0.00  0.00    -0.278 OA
ATOM      4  N   UNL     1      -0.580   4.285   2.277  0.00  0.00    -0.315 N 
ATOM      5  C   UNL     1      -0.102   3.752   3.545  0.00  0.00    +0.059 C 
ATOM      6  C   UNL     1      -0.702   4.502   4.732  0.00  0.00    +0.020 C 
ATOM      7  C   UNL     1      -0.110   3.934   6.027  0.00  0.00    +0.002 C 
ATOM      8  C   UNL     1      -0.425   2.442   6.135  0.00  0.00    -0.001 C 
ATOM      9  C   UNL     1       0.151   1.696   4.928  0.00  0.00    -0.014 C 
ATOM     10  C   UNL     1      -0.464   2.269   3.652  0.00  0.00    -0.050 C 
ATOM     11  H   UNL     1      -0.718   5.241   2.190  0.00  0.00    +0.149 HD
ATOM     12  N   UNL     1       0.043   1.573   2.462  0.00  0.00    +0.390 N 
ATOM     13  H   UNL     1       1.035   1.803   2.330  0.00  0.00    -0.084 HD
ATOM     14  H   UNL     1      -0.060   0.560   2.590  0.00  0.00    -0.084 HD
ENDROOT
BRANCH   1  15
ATOM     15  C   UNL     1      -0.005   1.503   0.017  0.00  0.00    +0.089 C 
BRANCH  15  17
ATOM     16  N   UNL     1       0.585  -0.664  -1.018  0.00  0.00    -0.285 N 
ATOM     17  C   UNL     1       0.005  -0.004   0.004  0.00  0.00    +0.216 C 
ATOM     18  O   UNL     1      -0.509  -0.622   0.912  0.00  0.00    -0.276 OA
ATOM     19  H   UNL     1       0.925  -0.174  -1.782  0.00  0.00    +0.155 HD
BRANCH  16  24
ATOM     20  C   UNL     1       1.039  -6.317  -0.847  0.00  0.00    +0.044 C 
ATOM     21  C   UNL     1       0.919  -4.815  -0.892  0.00  0.00    -0.050 A 
ATOM     22  C   UNL     1       0.821  -4.095   0.284  0.00  0.00    +0.005 A 
ATOM     23  C   UNL     1       0.710  -2.719   0.246  0.00  0.00    +0.024 A 
ATOM     24  C   UNL     1       0.697  -2.059  -0.976  0.00  0.00    +0.036 A 
ATOM     25  C   UNL     1       0.790  -2.785  -2.155  0.00  0.00    -0.029 A 
ATOM     26  C   UNL     1       0.906  -4.161  -2.110  0.00  0.00    +0.008 A 
ATOM     27  C   UNL     1       0.770  -2.073  -3.483  0.00  0.00    +0.045 C 
ENDBRANCH  16  24
ENDBRANCH  15  17
ENDBRANCH   1  15
TORSDOF 3
