REMARK  Name = ZINC05338009
REMARK  4 active torsions:
REMARK  status: ('A' for Active; 'I' for Inactive)
REMARK    1  A    between atoms: C_4  and  S_8
REMARK    2  A    between atoms: C_6  and  N_7
REMARK    3  A    between atoms: S_8  and  C_9
REMARK    4  A    between atoms: N_19  and  O_20
REMARK                            x       y       z     vdW  Elec       q    Type
REMARK                         _______ _______ _______ _____ _____    ______ ____
ROOT
ATOM      1  C   UNL     1      -0.017   1.388   0.010  0.00  0.00    +0.086 A 
ATOM      2  C   UNL     1       1.198   2.067   0.002  0.00  0.00    +0.122 A 
ATOM      3  N   UNL     1       2.331   1.368  -0.013  0.00  0.00    -0.207 NA
ATOM      4  C   UNL     1       2.311   0.043  -0.020  0.00  0.00    +0.192 A 
ATOM      5  N   UNL     1       1.173  -0.636  -0.013  0.00  0.00    -0.207 NA
ATOM      6  C   UNL     1       0.002  -0.004   0.002  0.00  0.00    +0.122 A 
ATOM      7  N   UNL     1       1.228   3.453   0.008  0.00  0.00    -0.343 N 
ATOM      8  H   UNL     1       0.398   3.956   0.019  0.00  0.00    +0.144 HD
ATOM      9  H   UNL     1       2.078   3.920   0.003  0.00  0.00    +0.144 HD
ENDROOT
BRANCH   6  10
ATOM     10  N   UNL     1      -1.183  -0.723   0.010  0.00  0.00    -0.343 N 
ATOM     11  H   UNL     1      -2.034  -0.255   0.021  0.00  0.00    +0.144 HD
ATOM     12  H   UNL     1      -1.163  -1.692   0.004  0.00  0.00    +0.144 HD
ENDBRANCH   6  10
BRANCH   4  13
ATOM     13  S   UNL     1       3.837  -0.838  -0.040  0.00  0.00    -0.076 S 
BRANCH  13  14
ATOM     14  C   UNL     1       3.337  -2.581  -0.044  0.00  0.00    +0.105 C 
ATOM     15  C   UNL     1       4.589  -3.505  -0.150  0.00  0.00    +0.009 C 
ATOM     16  C   UNL     1       3.999  -4.926  -0.406  0.00  0.00    +0.005 C 
ATOM     17  C   UNL     1       3.311  -5.304   0.925  0.00  0.00    +0.010 C 
ATOM     18  C   UNL     1       3.559  -4.079   1.857  0.00  0.00    +0.038 C 
ATOM     19  C   UNL     1       4.991  -3.604   1.364  0.00  0.00    +0.014 C 
ATOM     20  C   UNL     1       2.688  -2.949   1.282  0.00  0.00    +0.074 C 
ATOM     21  N   UNL     1       1.630  -2.445   1.796  0.00  0.00    -0.095 NA
BRANCH  21  22
ATOM     22  O   UNL     1       1.161  -2.907   3.049  0.00  0.00    -0.409 OA
ATOM     23  H   UNL     1       0.357  -2.466   3.355  0.00  0.00    +0.328 HD
ENDBRANCH  21  22
ENDBRANCH  13  14
ENDBRANCH   4  13
TORSDOF 4
