REMARK  Name = ZINC62976145
REMARK  2 active torsions:
REMARK  status: ('A' for Active; 'I' for Inactive)
REMARK    1  A    between atoms: C_3  and  N_19
REMARK    2  A    between atoms: C_10  and  N_13
REMARK                            x       y       z     vdW  Elec       q    Type
REMARK                         _______ _______ _______ _____ _____    ______ ____
ROOT
ATOM      1  C   UNL     1       0.012   1.420   0.044  0.00  0.00    +0.019 A 
ATOM      2  C   UNL     1       0.573   1.121  -1.191  0.00  0.00    +0.027 A 
ATOM      3  C   UNL     1       1.737   0.366  -1.224  0.00  0.00    +0.063 A 
ATOM      4  C   UNL     1       2.299  -0.064  -0.018  0.00  0.00    +0.120 A 
ATOM      5  N   UNL     1       1.730   0.245   1.135  0.00  0.00    -0.348 N 
ATOM      6  C   UNL     1       0.622   0.962   1.193  0.00  0.00    +0.084 A 
ATOM      7  N   UNL     1       3.466  -0.823  -0.032  0.00  0.00    -0.314 N 
ATOM      8  C   UNL     1       4.833  -0.294   0.080  0.00  0.00    +0.108 C 
ATOM      9  C   UNL     1       5.796  -1.500   0.045  0.00  0.00    +0.039 C 
ATOM     10  C   UNL     1       4.890  -2.680   0.485  0.00  0.00    +0.076 C 
ATOM     11  C   UNL     1       3.536  -2.290  -0.153  0.00  0.00    +0.125 C 
ATOM     12  H   UNL     1       2.137  -0.064   1.960  0.00  0.00    +0.167 HD
ENDROOT
BRANCH  10  13
ATOM     13  N   UNL     1       5.383  -3.953  -0.056  0.00  0.00    -0.294 NA
ATOM     14  C   UNL     1       4.460  -5.053   0.259  0.00  0.00    +0.113 C 
ATOM     15  C   UNL     1       4.981  -6.347  -0.372  0.00  0.00    +0.175 C 
ATOM     16  O   UNL     1       6.308  -6.601   0.099  0.00  0.00    -0.377 OA
ATOM     17  C   UNL     1       7.233  -5.550  -0.192  0.00  0.00    +0.175 C 
ATOM     18  C   UNL     1       6.735  -4.249   0.442  0.00  0.00    +0.113 C 
ENDBRANCH  10  13
BRANCH   3  19
ATOM     19  N   UNL     1       2.339   0.039  -2.445  0.00  0.00    -0.355 N 
ATOM     20  H   UNL     1       1.898   0.265  -3.279  0.00  0.00    +0.142 HD
ATOM     21  H   UNL     1       3.196  -0.414  -2.457  0.00  0.00    +0.142 HD
ENDBRANCH   3  19
TORSDOF 2
