REMARK  Name = ZINC50627905
REMARK  11 active torsions:
REMARK  status: ('A' for Active; 'I' for Inactive)
REMARK    1  A    between atoms: C_1  and  N_2
REMARK    2  A    between atoms: N_2  and  C_3
REMARK    3  A    between atoms: N_2  and  C_4
REMARK    4  A    between atoms: C_4  and  C_5
REMARK    5  A    between atoms: C_5  and  C_6
REMARK    6  A    between atoms: N_8  and  C_9
REMARK    7  A    between atoms: C_12  and  N_15
REMARK    8  A    between atoms: C_16  and  C_18
REMARK    9  A    between atoms: C_18  and  N_19
REMARK   10  A    between atoms: N_22  and  C_23
REMARK   11  A    between atoms: C_23  and  C_24
REMARK                            x       y       z     vdW  Elec       q    Type
REMARK                         _______ _______ _______ _____ _____    ______ ____
ROOT
ATOM      1  N   UNL     1      -8.349  -5.442  -0.344  0.00  0.00    -0.284 N 
ATOM      2  C   UNL     1      -8.670  -6.751  -0.313  0.00  0.00    +0.234 C 
ATOM      3  O   UNL     1      -7.795  -7.591  -0.350  0.00  0.00    -0.274 OA
ATOM      4  H   UNL     1      -9.049  -4.772  -0.382  0.00  0.00    +0.155 HD
ENDROOT
BRANCH   1   8
ATOM      5  C   UNL     1      -4.346  -4.275  -0.274  0.00  0.00    +0.033 A 
ATOM      6  C   UNL     1      -5.306  -3.505   0.370  0.00  0.00    +0.025 A 
ATOM      7  C   UNL     1      -6.631  -3.891   0.346  0.00  0.00    +0.025 A 
ATOM      8  C   UNL     1      -7.005  -5.050  -0.321  0.00  0.00    +0.034 A 
ATOM      9  C   UNL     1      -6.045  -5.821  -0.964  0.00  0.00    +0.025 A 
ATOM     10  C   UNL     1      -4.721  -5.431  -0.946  0.00  0.00    +0.025 A 
BRANCH   5  13
ATOM     11  C   UNL     1      -2.217  -4.102  -1.324  0.00  0.00    +0.215 C 
ATOM     12  O   UNL     1      -2.651  -4.713  -2.277  0.00  0.00    -0.276 OA
ATOM     13  N   UNL     1      -3.002  -3.883  -0.250  0.00  0.00    -0.286 N 
ATOM     14  H   UNL     1      -2.636  -3.454   0.539  0.00  0.00    +0.155 HD
BRANCH  11  15
ATOM     15  C   UNL     1      -0.800  -3.588  -1.339  0.00  0.00    +0.077 C 
BRANCH  15  16
ATOM     16  C   UNL     1      -0.134  -3.969  -2.662  0.00  0.00    -0.070 C 
BRANCH  16  18
ATOM     17  C   UNL     1       1.924  -3.935  -3.894  0.00  0.00    -0.097 C 
ATOM     18  N   UNL     1       1.247  -3.468  -2.677  0.00  0.00    +0.376 N 
ATOM     19  C   UNL     1       1.235  -1.999  -2.656  0.00  0.00    -0.097 C 
ATOM     20  H   UNL     1       1.738  -3.812  -1.866  0.00  0.00    -0.083 HD
ENDBRANCH  16  18
ENDBRANCH  15  16
ENDBRANCH  11  15
ENDBRANCH   5  13
ENDBRANCH   1   8
BRANCH   2  21
ATOM     21  C   UNL     1     -10.115  -7.171  -0.233  0.00  0.00    +0.202 C 
BRANCH  21  22
ATOM     22  N   UNL     1     -10.198  -8.633  -0.213  0.00  0.00    -0.291 N 
ATOM     23  C   UNL     1     -11.400  -9.239  -0.144  0.00  0.00    +0.300 C 
ATOM     24  O   UNL     1     -12.416  -8.572  -0.098  0.00  0.00    -0.253 OA
ATOM     25  N   UNL     1     -11.477 -10.584  -0.125  0.00  0.00    -0.299 N 
ATOM     26  H   UNL     1      -9.388  -9.166  -0.250  0.00  0.00    +0.151 HD
ATOM     27  H   UNL     1     -10.667 -11.117  -0.162  0.00  0.00    +0.150 HD
BRANCH  25  28
ATOM     28  C   UNL     1     -12.784 -11.243  -0.050  0.00  0.00    +0.109 C 
BRANCH  28  29
ATOM     29  C   UNL     1     -12.590 -12.760  -0.044  0.00  0.00    +0.006 C 
ATOM     30  C   UNL     1     -12.052 -13.230  -1.411  0.00  0.00    +0.005 C 
ATOM     31  C   UNL     1     -12.760 -14.587  -1.653  0.00  0.00    +0.000 C 
ATOM     32  C   UNL     1     -14.181 -14.336  -1.090  0.00  0.00    +0.000 C 
ATOM     33  C   UNL     1     -13.944 -13.463   0.161  0.00  0.00    +0.005 C 
ENDBRANCH  28  29
ENDBRANCH  25  28
ENDBRANCH  21  22
ENDBRANCH   2  21
TORSDOF 9
