REMARK  Name = ZINC01428124
REMARK  9 active torsions:
REMARK  status: ('A' for Active; 'I' for Inactive)
REMARK    1  A    between atoms: C_1  and  C_2
REMARK    2  A    between atoms: C_2  and  N_3
REMARK    3  A    between atoms: N_3  and  C_4
REMARK    4  A    between atoms: N_3  and  C_6
REMARK    5  A    between atoms: C_4  and  C_5
REMARK    6  A    between atoms: C_9  and  N_12
REMARK    7  A    between atoms: C_13  and  C_15
REMARK    8  A    between atoms: C_16  and  N_28
REMARK    9  A    between atoms: C_27  and  N_56
REMARK                            x       y       z     vdW  Elec       q    Type
REMARK                         _______ _______ _______ _____ _____    ______ ____
ROOT
ATOM      1  C   UNL     1      -1.777   6.090   0.057  0.00  0.00    +0.097 A 
ATOM      2  C   UNL     1      -0.458   5.694   0.042  0.00  0.00    +0.053 A 
ATOM      3  C   UNL     1      -0.164   4.269   0.018  0.00  0.00    +0.029 A 
ATOM      4  C   UNL     1       1.095   3.623  -0.001  0.00  0.00    +0.016 A 
ATOM      5  C   UNL     1       1.150   2.244  -0.023  0.00  0.00    -0.042 A 
ATOM      6  C   UNL     1      -0.019   1.504  -0.025  0.00  0.00    +0.042 A 
ATOM      7  N   UNL     1      -1.194   2.114  -0.003  0.00  0.00    -0.244 NA
ATOM      8  C   UNL     1      -1.296   3.423   0.013  0.00  0.00    +0.111 A 
ATOM      9  S   UNL     1      -2.670   4.548   0.038  0.00  0.00    -0.062 S 
ATOM     10  C   UNL     1       0.001  -0.004  -0.044  0.00  0.00    +0.037 C 
ATOM     11  C   UNL     1       1.380  -0.502  -0.476  0.00  0.00    -0.073 C 
ATOM     12  C   UNL     1       2.505   1.586  -0.049  0.00  0.00    -0.042 C 
ATOM     13  C   UNL     1       3.698  -0.500   0.231  0.00  0.00    -0.096 C 
ATOM     14  N   UNL     1       2.389   0.177   0.363  0.00  0.00    +0.381 N 
ATOM     15  H   UNL     1       2.091   0.138   1.345  0.00  0.00    -0.082 HD
ENDROOT
BRANCH   1  17
ATOM     16  N   UNL     1      -3.632   7.603   0.093  0.00  0.00    -0.281 N 
ATOM     17  C   UNL     1      -2.299   7.407   0.081  0.00  0.00    +0.257 C 
ATOM     18  O   UNL     1      -1.542   8.361   0.091  0.00  0.00    -0.269 OA
ATOM     19  H   UNL     1      -4.234   6.847   0.017  0.00  0.00    +0.155 HD
BRANCH  16  23
ATOM     20  C   UNL     1      -5.167  11.464   0.455  0.00  0.00    +0.030 A 
ATOM     21  C   UNL     1      -3.993  11.247  -0.254  0.00  0.00    +0.025 A 
ATOM     22  C   UNL     1      -3.485   9.969  -0.374  0.00  0.00    +0.025 A 
ATOM     23  C   UNL     1      -4.148   8.900   0.214  0.00  0.00    +0.034 A 
ATOM     24  C   UNL     1      -5.325   9.116   0.919  0.00  0.00    +0.025 A 
ATOM     25  C   UNL     1      -5.830  10.395   1.044  0.00  0.00    +0.025 A 
BRANCH  20  26
ATOM     26  N   UNL     1      -5.682  12.759   0.578  0.00  0.00    -0.330 N 
BRANCH  26  28
ATOM     27  C   UNL     1      -6.586  13.257   2.795  0.00  0.00    +0.024 C 
ATOM     28  C   UNL     1      -6.920  12.988   1.326  0.00  0.00    +0.102 C 
ENDBRANCH  26  28
BRANCH  26  29
ATOM     29  C   UNL     1      -4.982  13.887  -0.043  0.00  0.00    +0.102 C 
ATOM     30  C   UNL     1      -5.503  14.090  -1.466  0.00  0.00    +0.024 C 
ENDBRANCH  26  29
ENDBRANCH  20  26
ENDBRANCH  16  23
ENDBRANCH   1  17
BRANCH   2  31
ATOM     31  N   UNL     1       0.566   6.631   0.051  0.00  0.00    -0.356 N 
ATOM     32  H   UNL     1       1.491   6.339   0.041  0.00  0.00    +0.142 HD
ATOM     33  H   UNL     1       0.357   7.578   0.067  0.00  0.00    +0.142 HD
ENDBRANCH   2  31
TORSDOF 6
