REMARK  Name = ZINC13856674
REMARK  8 active torsions:
REMARK  status: ('A' for Active; 'I' for Inactive)
REMARK    1  A    between atoms: C_3  and  N_30
REMARK    2  A    between atoms: C_6  and  C_7
REMARK    3  A    between atoms: N_9  and  N_10
REMARK    4  A    between atoms: C_12  and  C_17
REMARK    5  A    between atoms: C_17  and  O_19
REMARK    6  A    between atoms: O_19  and  C_20
REMARK    7  A    between atoms: C_20  and  C_21
REMARK    8  A    between atoms: C_21  and  C_23
REMARK                            x       y       z     vdW  Elec       q    Type
REMARK                         _______ _______ _______ _____ _____    ______ ____
ROOT
ATOM      1  N   UNL     1      -0.017   1.397   0.010  0.00  0.00    -0.219 N 
ATOM      2  C   UNL     1      -1.240   2.208   0.019  0.00  0.00    +0.145 C 
ATOM      3  C   UNL     1      -0.800   3.625  -0.406  0.00  0.00    +0.125 C 
ATOM      4  C   UNL     1       0.691   3.631   0.005  0.00  0.00    +0.113 C 
ATOM      5  C   UNL     1       1.082   2.170   0.003  0.00  0.00    +0.233 C 
ATOM      6  O   UNL     1       2.223   1.757  -0.003  0.00  0.00    -0.274 OA
ENDROOT
BRANCH   1   9
ATOM      7  C   UNL     1       0.324  -0.680   1.123  0.00  0.00    +0.260 C 
ATOM      8  O   UNL     1       0.597  -0.074   2.141  0.00  0.00    -0.269 OA
ATOM      9  N   UNL     1       0.002  -0.004   0.002  0.00  0.00    -0.228 N 
ATOM     10  H   UNL     1      -0.216  -0.488  -0.810  0.00  0.00    +0.173 HD
BRANCH   7  16
ATOM     11  C   UNL     1       0.025  -2.857  -0.051  0.00  0.00    +0.015 A 
ATOM     12  C   UNL     1       0.049  -4.236  -0.052  0.00  0.00    +0.033 A 
ATOM     13  C   UNL     1       0.380  -4.927   1.100  0.00  0.00    +0.126 A 
ATOM     14  C   UNL     1       0.693  -4.240   2.260  0.00  0.00    +0.033 A 
ATOM     15  C   UNL     1       0.676  -2.861   2.274  0.00  0.00    +0.015 A 
ATOM     16  C   UNL     1       0.344  -2.158   1.115  0.00  0.00    +0.038 A 
BRANCH  13  17
ATOM     17  N   UNL     1       0.398  -6.407   1.092  0.00  0.00    +0.056 N 
ATOM     18  O   UNL     1       0.689  -7.018   2.105  0.00  0.00    -0.126 OA
ATOM     19  O   UNL     1       0.124  -7.014   0.073  0.00  0.00    -0.126 OA
ENDBRANCH  13  17
ENDBRANCH   7  16
ENDBRANCH   1   9
BRANCH   3  20
ATOM     20  C   UNL     1      -1.571   4.681   0.343  0.00  0.00    +0.313 C 
ATOM     21  O   UNL     1      -2.480   4.362   1.072  0.00  0.00    -0.250 OA
BRANCH  20  22
ATOM     22  O   UNL     1      -1.248   5.976   0.199  0.00  0.00    -0.456 OA
BRANCH  22  23
ATOM     23  C   UNL     1      -2.034   6.938   0.951  0.00  0.00    +0.311 C 
BRANCH  23  24
ATOM     24  C   UNL     1      -1.530   8.330   0.666  0.00  0.00    +0.200 C 
ATOM     25  O   UNL     1      -0.602   8.494  -0.096  0.00  0.00    -0.288 OA
BRANCH  24  26
ATOM     26  C   UNL     1      -2.166   9.489   1.312  0.00  0.00    +0.021 A 
ATOM     27  C   UNL     1      -3.242   9.303   2.187  0.00  0.00    +0.012 A 
ATOM     28  C   UNL     1      -3.829  10.393   2.792  0.00  0.00    +0.016 A 
ATOM     29  C   UNL     1      -3.364  11.671   2.527  0.00  0.00    +0.018 A 
ATOM     30  C   UNL     1      -2.303  11.863   1.658  0.00  0.00    +0.016 A 
ATOM     31  C   UNL     1      -1.702  10.782   1.049  0.00  0.00    +0.012 A 
ATOM     32 BR   UNL     1      -4.180  13.161   3.358  0.00  0.00    -0.050 Br
ENDBRANCH  24  26
ENDBRANCH  23  24
ENDBRANCH  22  23
ENDBRANCH  20  22
ENDBRANCH   3  20
TORSDOF 8
