REMARK  Name = ZINC43223188
REMARK  6 active torsions:
REMARK  status: ('A' for Active; 'I' for Inactive)
REMARK    1  A    between atoms: C_4  and  C_7
REMARK    2  A    between atoms: C_7  and  C_9
REMARK    3  A    between atoms: C_9  and  N_10
REMARK    4  A    between atoms: C_11  and  C_13
REMARK    5  A    between atoms: C_18  and  C_20
REMARK    6  A    between atoms: N_22  and  C_23
REMARK                            x       y       z     vdW  Elec       q    Type
REMARK                         _______ _______ _______ _____ _____    ______ ____
ROOT
ATOM      1  C   UNL     1       6.803  -4.451  -0.090  0.00  0.00    +0.068 C 
ATOM      2  C   UNL     1       7.534  -4.001   1.193  0.00  0.00    -0.069 C 
ATOM      3  N   UNL     1       7.419  -5.160   2.115  0.00  0.00    +0.380 N 
ATOM      4  C   UNL     1       7.609  -6.344   1.238  0.00  0.00    -0.069 C 
ATOM      5  C   UNL     1       6.852  -5.992  -0.063  0.00  0.00    +0.068 C 
ATOM      6  H   UNL     1       8.141  -5.123   2.819  0.00  0.00    -0.086 HD
ATOM      7  H   UNL     1       6.506  -5.181   2.543  0.00  0.00    -0.086 HD
ENDROOT
BRANCH   1   9
ATOM      8  N   UNL     1       5.105  -2.652  -0.063  0.00  0.00    -0.308 N 
ATOM      9  C   UNL     1       5.374  -3.972  -0.073  0.00  0.00    +0.215 C 
ATOM     10  O   UNL     1       4.465  -4.776  -0.068  0.00  0.00    -0.276 OA
ATOM     11  H   UNL     1       5.832  -2.009  -0.067  0.00  0.00    +0.149 HD
BRANCH   8  12
ATOM     12  C   UNL     1       3.716  -2.186  -0.046  0.00  0.00    +0.184 C 
BRANCH  12  13
ATOM     13  C   UNL     1       3.691  -0.679  -0.038  0.00  0.00    +0.180 C 
ATOM     14  O   UNL     1       4.731  -0.056  -0.045  0.00  0.00    -0.290 OA
BRANCH  13  18
ATOM     15  C   UNL     1      -0.017   1.380   0.010  0.00  0.00    +0.000 A 
ATOM     16  C   UNL     1       1.168   2.095   0.002  0.00  0.00    +0.001 A 
ATOM     17  C   UNL     1       2.377   1.433  -0.013  0.00  0.00    +0.011 A 
ATOM     18  C   UNL     1       2.405   0.035  -0.021  0.00  0.00    +0.019 A 
ATOM     19  C   UNL     1       1.203  -0.681  -0.013  0.00  0.00    +0.011 A 
ATOM     20  C   UNL     1       0.002  -0.004   0.002  0.00  0.00    +0.001 A 
ENDBRANCH  13  18
ENDBRANCH  12  13
ENDBRANCH   8  12
ENDBRANCH   1   9
BRANCH   5  21
ATOM     21  C   UNL     1       7.599  -6.514  -1.263  0.00  0.00    +0.215 C 
ATOM     22  O   UNL     1       8.057  -5.739  -2.076  0.00  0.00    -0.276 OA
ATOM     23  N   UNL     1       7.759  -7.841  -1.433  0.00  0.00    -0.308 N 
ATOM     24  H   UNL     1       7.392  -8.461  -0.784  0.00  0.00    +0.149 HD
BRANCH  23  25
ATOM     25  C   UNL     1       8.485  -8.348  -2.600  0.00  0.00    +0.103 C 
ATOM     26  C   UNL     1       8.009  -9.764  -2.914  0.00  0.00    +0.027 C 
ATOM     27  C   UNL     1       8.926 -10.356  -3.992  0.00  0.00    +0.007 C 
ATOM     28  C   UNL     1      10.297 -10.610  -3.370  0.00  0.00    +0.035 C 
ATOM     29  C   UNL     1      10.796  -9.376  -2.664  0.00  0.00    -0.042 A 
ATOM     30  C   UNL     1       9.963  -8.340  -2.307  0.00  0.00    -0.024 A 
ATOM     31  C   UNL     1      10.486  -7.233  -1.652  0.00  0.00    +0.006 A 
ATOM     32  C   UNL     1      11.832  -7.162  -1.359  0.00  0.00    +0.000 A 
ATOM     33  C   UNL     1      12.668  -8.202  -1.721  0.00  0.00    +0.000 A 
ATOM     34  C   UNL     1      12.151  -9.302  -2.371  0.00  0.00    +0.004 A 
ENDBRANCH  23  25
ENDBRANCH   5  21
TORSDOF 6
