REMARK  Name = ZINC12882696
REMARK  6 active torsions:
REMARK  status: ('A' for Active; 'I' for Inactive)
REMARK    1  A    between atoms: C_1  and  C_2
REMARK    2  A    between atoms: C_2  and  C_4
REMARK    3  A    between atoms: C_2  and  O_34
REMARK    4  A    between atoms: N_12  and  C_15
REMARK    5  A    between atoms: C_15  and  C_16
REMARK    6  A    between atoms: C_16  and  C_17
REMARK                            x       y       z     vdW  Elec       q    Type
REMARK                         _______ _______ _______ _____ _____    ______ ____
ROOT
ATOM      1  C   UNL     1       7.185   5.364  -0.144  0.00  0.00    -0.028 C 
ATOM      2  C   UNL     1       6.416   5.410  -1.481  0.00  0.00    +0.075 C 
ATOM      3  C   UNL     1       5.622   6.746  -1.456  0.00  0.00    +0.088 C 
ATOM      4  C   UNL     1       4.179   6.292  -1.454  0.00  0.00    +0.225 C 
ATOM      5  O   UNL     1       3.214   7.025  -1.449  0.00  0.00    -0.275 OA
ATOM      6  N   UNL     1       4.134   4.955  -1.455  0.00  0.00    -0.241 N 
ATOM      7  C   UNL     1       5.331   4.358  -1.470  0.00  0.00    +0.224 C 
ATOM      8  O   UNL     1       5.517   3.160  -1.474  0.00  0.00    -0.275 OA
ATOM      9  C   UNL     1       5.981   7.364  -0.082  0.00  0.00    +0.050 C 
ATOM     10  C   UNL     1       7.062   8.399  -0.217  0.00  0.00    -0.026 A 
ATOM     11  C   UNL     1       8.355   8.364  -0.692  0.00  0.00    +0.004 A 
ATOM     12  C   UNL     1       9.126   9.512  -0.687  0.00  0.00    +0.002 A 
ATOM     13  C   UNL     1       8.596  10.696  -0.206  0.00  0.00    +0.022 A 
ATOM     14  C   UNL     1       7.301  10.736   0.270  0.00  0.00    +0.062 A 
ATOM     15  C   UNL     1       6.517   9.584   0.269  0.00  0.00    +0.054 A 
ATOM     16  N   UNL     1       5.202   9.373   0.690  0.00  0.00    -0.285 N 
ATOM     17  C   UNL     1       4.811   8.096   0.516  0.00  0.00    +0.211 C 
ATOM     18  O   UNL     1       3.727   7.627   0.789  0.00  0.00    -0.277 OA
ATOM     19 CL   UNL     1       6.647  12.227   0.872  0.00  0.00    -0.082 Cl
ATOM     20  H   UNL     1       4.636  10.066   1.065  0.00  0.00    +0.155 HD
ATOM     21  N   UNL     1       6.418   6.248   0.737  0.00  0.00    +0.396 N 
ATOM     22  H   UNL     1       7.010   6.582   1.507  0.00  0.00    -0.083 HD
ATOM     23  H   UNL     1       5.607   5.749   1.120  0.00  0.00    -0.083 HD
ENDROOT
BRANCH   1  25
ATOM     24  C   UNL     1       7.991   3.910   1.722  0.00  0.00    +0.036 C 
ATOM     25  C   UNL     1       7.225   3.933   0.398  0.00  0.00    +0.098 C 
BRANCH  25  26
ATOM     26  O   UNL     1       7.880   3.084  -0.546  0.00  0.00    -0.394 OA
ATOM     27  H   UNL     1       8.792   3.341  -0.740  0.00  0.00    +0.210 HD
ENDBRANCH  25  26
ENDBRANCH   1  25
BRANCH   6  28
ATOM     28  C   UNL     1       2.875   4.205  -1.446  0.00  0.00    +0.121 C 
BRANCH  28  29
ATOM     29  C   UNL     1       2.451   3.937  -0.001  0.00  0.00    +0.054 C 
BRANCH  29  30
ATOM     30  C   UNL     1       1.156   3.165   0.008  0.00  0.00    -0.046 A 
ATOM     31  C   UNL     1       1.175   1.783   0.000  0.00  0.00    +0.004 A 
ATOM     32  C   UNL     1      -0.013   1.076   0.008  0.00  0.00    +0.000 A 
ATOM     33  C   UNL     1      -1.219   1.751   0.017  0.00  0.00    +0.000 A 
ATOM     34  C   UNL     1      -1.238   3.133   0.030  0.00  0.00    +0.000 A 
ATOM     35  C   UNL     1      -0.050   3.840   0.022  0.00  0.00    +0.004 A 
ENDBRANCH  29  30
ENDBRANCH  28  29
ENDBRANCH   6  28
TORSDOF 5
