REMARK  Name = ZINC67406946
REMARK  8 active torsions:
REMARK  status: ('A' for Active; 'I' for Inactive)
REMARK    1  A    between atoms: C_1  and  C_2
REMARK    2  A    between atoms: C_2  and  C_4
REMARK    3  A    between atoms: C_2  and  C_19
REMARK    4  A    between atoms: C_4  and  N_5
REMARK    5  A    between atoms: N_8  and  N_9
REMARK    6  A    between atoms: C_10  and  C_12
REMARK    7  A    between atoms: C_12  and  C_13
REMARK    8  A    between atoms: C_19  and  N_20
REMARK                            x       y       z     vdW  Elec       q    Type
REMARK                         _______ _______ _______ _____ _____    ______ ____
ROOT
ATOM      1  N   UNL     1      -2.239   0.007  -0.962  0.00  0.00    -0.298 N 
ATOM      2  C   UNL     1      -3.513  -0.406  -1.115  0.00  0.00    +0.316 C 
ATOM      3  O   UNL     1      -3.991  -1.205  -0.332  0.00  0.00    -0.251 OA
ATOM      4  N   UNL     1      -4.256   0.065  -2.135  0.00  0.00    -0.218 N 
ATOM      5  H   UNL     1      -1.858   0.644  -1.586  0.00  0.00    +0.150 HD
ATOM      6  H   UNL     1      -5.173  -0.232  -2.245  0.00  0.00    +0.174 HD
ENDROOT
BRANCH   4   7
ATOM      7  N   UNL     1      -3.705   0.985  -3.037  0.00  0.00    -0.233 N 
ATOM      8  C   UNL     1      -4.449   1.457  -4.057  0.00  0.00    +0.229 C 
ATOM      9  O   UNL     1      -5.595   1.085  -4.194  0.00  0.00    -0.274 OA
ATOM     10  H   UNL     1      -2.789   1.283  -2.927  0.00  0.00    +0.173 HD
BRANCH   8  11
ATOM     11  C   UNL     1      -3.857   2.446  -5.027  0.00  0.00    +0.101 C 
BRANCH  11  12
ATOM     12  C   UNL     1      -4.903   2.817  -6.080  0.00  0.00    -0.002 C 
ATOM     13  C   UNL     1      -5.242   1.583  -6.918  0.00  0.00    +0.004 C 
ATOM     14  C   UNL     1      -6.289   1.954  -7.971  0.00  0.00    +0.000 C 
ATOM     15  C   UNL     1      -5.730   3.050  -8.881  0.00  0.00    +0.000 C 
ATOM     16  C   UNL     1      -5.390   4.285  -8.043  0.00  0.00    +0.000 C 
ATOM     17  C   UNL     1      -4.344   3.914  -6.989  0.00  0.00    +0.004 C 
ENDBRANCH  11  12
ENDBRANCH   8  11
ENDBRANCH   4   7
BRANCH   1  18
ATOM     18  C   UNL     1      -1.431  -0.506   0.147  0.00  0.00    +0.107 C 
BRANCH  18  20
ATOM     19  C   UNL     1      -0.140   1.626   0.331  0.00  0.00    +0.007 C 
ATOM     20  C   UNL     1      -0.035   0.118   0.092  0.00  0.00    -0.014 C 
BRANCH  20  21
ATOM     21  C   UNL     1       0.848  -0.509   1.173  0.00  0.00    -0.074 C 
BRANCH  21  22
ATOM     22  N   UNL     1       2.219  -0.000   1.042  0.00  0.00    +0.380 N 
ATOM     23  C   UNL     1       3.027  -0.478   2.171  0.00  0.00    -0.079 C 
ATOM     24  C   UNL     1       4.435   0.115   2.083  0.00  0.00    -0.019 C 
ATOM     25  C   UNL     1       5.085  -0.321   0.766  0.00  0.00    -0.004 C 
ATOM     26  C   UNL     1       4.196   0.118  -0.401  0.00  0.00    -0.019 C 
ATOM     27  C   UNL     1       2.797  -0.475  -0.221  0.00  0.00    -0.079 C 
ATOM     28  H   UNL     1       2.204   1.009   1.045  0.00  0.00    -0.082 HD
ENDBRANCH  21  22
ENDBRANCH  20  21
ENDBRANCH  18  20
ENDBRANCH   1  18
TORSDOF 7
