REMARK  Name = ZINC51999272
REMARK  7 active torsions:
REMARK  status: ('A' for Active; 'I' for Inactive)
REMARK    1  A    between atoms: C_1  and  N_2
REMARK    2  A    between atoms: N_2  and  S_3
REMARK    3  A    between atoms: S_3  and  C_6
REMARK    4  A    between atoms: C_9  and  N_13
REMARK    5  A    between atoms: C_10  and  N_12
REMARK    6  A    between atoms: N_13  and  C_14
REMARK    7  A    between atoms: C_20  and  O_22
REMARK                            x       y       z     vdW  Elec       q    Type
REMARK                         _______ _______ _______ _____ _____    ______ ____
ROOT
ATOM      1  C   UNL     1      -0.166  -0.494   2.705  0.00  0.00    +0.107 A 
ATOM      2  C   UNL     1       0.174   0.590   3.493  0.00  0.00    +0.030 A 
ATOM      3  C   UNL     1      -0.535   0.858   4.649  0.00  0.00    +0.027 A 
ATOM      4  C   UNL     1      -1.591   0.040   5.021  0.00  0.00    +0.048 A 
ATOM      5  C   UNL     1      -1.934  -1.053   4.226  0.00  0.00    +0.048 A 
ATOM      6  C   UNL     1      -1.221  -1.312   3.065  0.00  0.00    +0.053 A 
ENDROOT
BRANCH   1   7
ATOM      7  S   UNL     1       0.742  -0.829   1.233  0.00  0.00    +0.058 S 
ATOM      8  O   UNL     1       0.570  -2.212   0.955  0.00  0.00    -0.153 OA
ATOM      9  O   UNL     1       2.024  -0.240   1.403  0.00  0.00    -0.153 OA
BRANCH   7  11
ATOM     10  C   UNL     1      -0.018   1.461   0.010  0.00  0.00    +0.127 C 
ATOM     11  N   UNL     1       0.002  -0.004   0.002  0.00  0.00    -0.193 NA
ATOM     12  H   UNL     1      -0.418  -0.491  -0.724  0.00  0.00    +0.148 HD
ENDBRANCH   7  11
ENDBRANCH   1   7
BRANCH   5  13
ATOM     13  N   UNL     1      -2.999  -1.883   4.596  0.00  0.00    -0.356 N 
ATOM     14  H   UNL     1      -3.499  -1.699   5.406  0.00  0.00    +0.142 HD
ATOM     15  H   UNL     1      -3.237  -2.643   4.041  0.00  0.00    +0.142 HD
ENDBRANCH   5  13
BRANCH   4  16
ATOM     16  N   UNL     1      -2.310   0.310   6.192  0.00  0.00    -0.337 N 
ATOM     17  H   UNL     1      -3.048  -0.263   6.451  0.00  0.00    +0.146 HD
BRANCH  16  18
ATOM     18  C   UNL     1      -1.946   1.458   7.026  0.00  0.00    +0.099 C 
ATOM     19  C   UNL     1      -0.822   1.058   7.984  0.00  0.00    +0.025 C 
ATOM     20  C   UNL     1      -1.297  -0.091   8.876  0.00  0.00    +0.002 C 
ATOM     21  C   UNL     1      -2.517   0.360   9.682  0.00  0.00    +0.003 C 
ATOM     22  C   UNL     1      -3.641   0.760   8.724  0.00  0.00    +0.033 C 
ATOM     23  C   UNL     1      -3.166   1.909   7.832  0.00  0.00    +0.135 C 
BRANCH  23  24
ATOM     24  O   UNL     1      -4.216   2.283   6.938  0.00  0.00    -0.390 OA
ATOM     25  H   UNL     1      -5.023   2.580   7.381  0.00  0.00    +0.210 HD
ENDBRANCH  23  24
ENDBRANCH  16  18
ENDBRANCH   4  16
TORSDOF 6
