REMARK  Name = ZINC39211085
REMARK  10 active torsions:
REMARK  status: ('A' for Active; 'I' for Inactive)
REMARK    1  A    between atoms: C_1  and  C_2
REMARK    2  A    between atoms: C_2  and  O_27
REMARK    3  A    between atoms: C_5  and  C_11
REMARK    4  A    between atoms: C_5  and  C_12
REMARK    5  A    between atoms: C_7  and  C_9
REMARK    6  A    between atoms: C_7  and  C_10
REMARK    7  A    between atoms: N_16  and  C_17
REMARK    8  A    between atoms: C_17  and  C_18
REMARK    9  A    between atoms: C_18  and  C_20
REMARK   10  A    between atoms: C_18  and  O_26
REMARK                            x       y       z     vdW  Elec       q    Type
REMARK                         _______ _______ _______ _____ _____    ______ ____
ROOT
ATOM      1  C   UNL     1      -0.019   1.521   0.010  0.00  0.00    +0.068 C 
ATOM      2  C   UNL     1       0.002  -0.004   0.002  0.00  0.00    +0.175 C 
ATOM      3  C   UNL     1       0.826  -0.587  -1.165  0.00  0.00    +0.158 C 
ATOM      4  C   UNL     1       1.977   0.321  -1.553  0.00  0.00    +0.040 C 
ATOM      5  C   UNL     1       2.788  -0.295  -2.699  0.00  0.00    -0.070 C 
ATOM      6  N   UNL     1       1.942  -0.662  -3.824  0.00  0.00    +0.386 N 
ATOM      7  C   UNL     1       0.723  -1.403  -3.547  0.00  0.00    -0.070 C 
ATOM      8  C   UNL     1      -0.068  -0.861  -2.361  0.00  0.00    +0.040 C 
ATOM      9  C   UNL     1       1.002  -2.897  -3.360  0.00  0.00    -0.010 C 
ATOM     10  C   UNL     1      -0.186  -1.274  -4.796  0.00  0.00    -0.010 C 
ATOM     11  C   UNL     1       3.636  -1.463  -2.203  0.00  0.00    -0.010 C 
ATOM     12  C   UNL     1       3.766   0.798  -3.194  0.00  0.00    -0.010 C 
ATOM     13  O   UNL     1       1.297  -1.812  -0.576  0.00  0.00    -0.439 OA
ATOM     14  C   UNL     1       1.469  -1.581   0.741  0.00  0.00    +0.406 C 
ATOM     15  O   UNL     1       2.195  -2.241   1.454  0.00  0.00    -0.226 OA
ATOM     16  N   UNL     1       0.742  -0.530   1.172  0.00  0.00    -0.233 N 
ATOM     17  H   UNL     1       1.692   0.193  -4.328  0.00  0.00    -0.084 HD
ATOM     18  H   UNL     1       2.506  -1.204  -4.484  0.00  0.00    -0.084 HD
ENDROOT
BRANCH   2  19
ATOM     19  O   UNL     1      -1.332  -0.525  -0.013  0.00  0.00    -0.368 OA
ATOM     20  H   UNL     1      -1.869  -0.252   0.743  0.00  0.00    +0.212 HD
ENDBRANCH   2  19
BRANCH  16  21
ATOM     21  C   UNL     1       0.691  -0.007   2.537  0.00  0.00    +0.150 C 
BRANCH  21  22
ATOM     22  C   UNL     1      -0.427  -0.709   3.311  0.00  0.00    +0.162 C 
BRANCH  22  23
ATOM     23  C   UNL     1      -0.561  -0.085   4.676  0.00  0.00    -0.018 A 
ATOM     24  C   UNL     1       0.317  -0.434   5.685  0.00  0.00    +0.006 A 
ATOM     25  C   UNL     1       0.194   0.138   6.937  0.00  0.00    +0.000 A 
ATOM     26  C   UNL     1      -0.807   1.060   7.181  0.00  0.00    +0.000 A 
ATOM     27  C   UNL     1      -1.685   1.410   6.172  0.00  0.00    +0.000 A 
ATOM     28  C   UNL     1      -1.559   0.841   4.918  0.00  0.00    +0.006 A 
ENDBRANCH  22  23
BRANCH  22  29
ATOM     29  O   UNL     1      -0.112  -2.095   3.450  0.00  0.00    -0.386 OA
ATOM     30  H   UNL     1       0.713  -2.266   3.924  0.00  0.00    +0.210 HD
ENDBRANCH  22  29
ENDBRANCH  21  22
ENDBRANCH  16  21
TORSDOF 5
