REMARK  Name = ZINC04832634
REMARK  2 active torsions:
REMARK  status: ('A' for Active; 'I' for Inactive)
REMARK    1  A    between atoms: N_10  and  C_13
REMARK    2  A    between atoms: C_13  and  C_14
REMARK                            x       y       z     vdW  Elec       q    Type
REMARK                         _______ _______ _______ _____ _____    ______ ____
ROOT
ATOM      1  C   UNL     1      -1.221   1.755   0.017  0.00  0.00    +0.016 A 
ATOM      2  C   UNL     1      -0.013   1.076   0.008  0.00  0.00    +0.015 A 
ATOM      3  C   UNL     1       1.176   1.788   0.000  0.00  0.00    +0.049 A 
ATOM      4  C   UNL     1       1.150   3.197   0.008  0.00  0.00    +0.050 A 
ATOM      5  C   UNL     1      -0.064   3.864   0.022  0.00  0.00    +0.029 A 
ATOM      6  C   UNL     1      -1.247   3.138   0.030  0.00  0.00    +0.019 A 
ATOM      7 BR   UNL     1      -2.906   4.045   0.049  0.00  0.00    -0.050 Br
ATOM      8  C   UNL     1       2.564   3.628  -0.004  0.00  0.00    +0.254 C 
ATOM      9  O   UNL     1       2.955   4.778  -0.002  0.00  0.00    -0.270 OA
ATOM     10  N   UNL     1       3.345   2.533  -0.017  0.00  0.00    -0.225 N 
ATOM     11  C   UNL     1       2.605   1.410  -0.015  0.00  0.00    +0.254 C 
ATOM     12  O   UNL     1       3.038   0.276  -0.025  0.00  0.00    -0.270 OA
ENDROOT
BRANCH  10  13
ATOM     13  C   UNL     1       4.810   2.560  -0.031  0.00  0.00    +0.212 C 
BRANCH  13  14
ATOM     14  C   UNL     1       5.326   2.563   1.385  0.00  0.00    +0.233 C 
ATOM     15  O   UNL     1       4.548   2.544   2.314  0.00  0.00    -0.274 OA
ATOM     16  N   UNL     1       6.654   2.586   1.618  0.00  0.00    -0.300 N 
ATOM     17  C   UNL     1       7.609   2.603   0.502  0.00  0.00    +0.108 C 
ATOM     18  C   UNL     1       8.562   3.792   0.693  0.00  0.00    +0.019 C 
ATOM     19  C   UNL     1       9.212   3.701   2.076  0.00  0.00    +0.003 C 
ATOM     20  C   UNL     1       8.130   3.773   3.156  0.00  0.00    +0.019 C 
ATOM     21  C   UNL     1       7.172   2.589   2.992  0.00  0.00    +0.108 C 
ENDBRANCH  13  14
ENDBRANCH  10  13
TORSDOF 2
