REMARK  Name = ZINC08763985
REMARK  16 active torsions:
REMARK  status: ('A' for Active; 'I' for Inactive)
REMARK    1  A    between atoms: C_1  and  C_2
REMARK    2  A    between atoms: C_2  and  O_3
REMARK    3  A    between atoms: O_3  and  C_4
REMARK    4  A    between atoms: C_4  and  C_6
REMARK    5  A    between atoms: C_7  and  C_24
REMARK    6  A    between atoms: C_9  and  N_23
REMARK    7  A    between atoms: C_10  and  C_21
REMARK    8  A    between atoms: C_11  and  C_13
REMARK    9  A    between atoms: C_16  and  O_19
REMARK   10  A    between atoms: O_19  and  C_20
REMARK   11  A    between atoms: C_24  and  S_25
REMARK   12  A    between atoms: S_25  and  C_26
REMARK   13  A    between atoms: C_27  and  C_35
REMARK   14  A    between atoms: C_28  and  C_34
REMARK   15  A    between atoms: C_29  and  C_33
REMARK   16  A    between atoms: C_30  and  C_32
REMARK                            x       y       z     vdW  Elec       q    Type
REMARK                         _______ _______ _______ _____ _____    ______ ____
ROOT
ATOM      1  C   UNL     1       0.592  -4.667   1.069  0.00  0.00    +0.088 C 
ATOM      2  C   UNL     1       1.559  -5.592   1.087  0.00  0.00    +0.128 C 
ATOM      3  O   UNL     1       2.397  -5.771   0.056  0.00  0.00    -0.444 OA
ATOM      4  C   UNL     1       2.060  -5.301  -1.157  0.00  0.00    +0.198 C 
ATOM      5  C   UNL     1       1.114  -4.346  -1.314  0.00  0.00    +0.098 C 
ATOM      6  C   UNL     1       0.393  -3.772  -0.124  0.00  0.00    +0.105 C 
ENDROOT
BRANCH   6   7
ATOM      7  C   UNL     1       0.941  -2.402   0.181  0.00  0.00    -0.034 A 
ATOM      8  C   UNL     1       0.105  -1.301   0.146  0.00  0.00    +0.008 A 
ATOM      9  C   UNL     1       0.605  -0.044   0.425  0.00  0.00    +0.046 A 
ATOM     10  C   UNL     1       1.947   0.114   0.740  0.00  0.00    +0.120 A 
ATOM     11  C   UNL     1       2.785  -0.991   0.769  0.00  0.00    +0.046 A 
ATOM     12  C   UNL     1       2.279  -2.247   0.494  0.00  0.00    +0.008 A 
BRANCH  10  13
ATOM     13  O   UNL     1       2.441   1.350   1.014  0.00  0.00    -0.495 OA
ATOM     14  C   UNL     1       3.832   1.437   1.331  0.00  0.00    +0.277 C 
ENDBRANCH  10  13
ENDBRANCH   6   7
BRANCH   4  15
ATOM     15  N   UNL     1       2.693  -5.802  -2.267  0.00  0.00    -0.328 N 
ATOM     16  H   UNL     1       3.374  -6.487  -2.170  0.00  0.00    +0.145 HD
ATOM     17  H   UNL     1       2.461  -5.472  -3.149  0.00  0.00    +0.145 HD
ENDBRANCH   4  15
BRANCH   1  18
ATOM     18  C   UNL     1      -0.260  -4.528   2.193  0.00  0.00    +0.339 C 
ATOM     19  O   UNL     1       0.110  -4.911   3.287  0.00  0.00    -0.245 OA
BRANCH  18  20
ATOM     20  O   UNL     1      -1.480  -3.970   2.050  0.00  0.00    -0.462 OA
BRANCH  20  22
ATOM     21  C   UNL     1      -3.623  -3.210   2.869  0.00  0.00    +0.048 C 
ATOM     22  C   UNL     1      -2.285  -3.861   3.226  0.00  0.00    +0.229 C 
ENDBRANCH  20  22
ENDBRANCH  18  20
ENDBRANCH   1  18
BRANCH   5  23
ATOM     23  C   UNL     1       0.794  -3.877  -2.629  0.00  0.00    +0.101 C 
ATOM     24  N   UNL     1       0.541  -3.505  -3.672  0.00  0.00    -0.191 NA
ENDBRANCH   5  23
BRANCH   2  25
ATOM     25  C   UNL     1       1.712  -6.462   2.308  0.00  0.00    +0.150 C 
BRANCH  25  26
ATOM     26  S   UNL     1       3.138  -5.903   3.273  0.00  0.00    -0.097 S 
BRANCH  26  27
ATOM     27  C   UNL     1       3.081  -7.060   4.601  0.00  0.00    +0.115 A 
ATOM     28  C   UNL     1       4.045  -6.999   5.623  0.00  0.00    +0.087 A 
ATOM     29  C   UNL     1       3.977  -7.926   6.669  0.00  0.00    -0.026 A 
ATOM     30  C   UNL     1       2.966  -8.872   6.645  0.00  0.00    -0.025 A 
ATOM     31  C   UNL     1       2.057  -8.871   5.602  0.00  0.00    +0.043 A 
ATOM     32  N   UNL     1       2.135  -7.986   4.628  0.00  0.00    -0.244 NA
ATOM     33  C   UNL     1       0.958  -9.902   5.579  0.00  0.00    +0.066 C 
ATOM     34  C   UNL     1       2.857  -9.894   7.747  0.00  0.00    +0.046 C 
ATOM     35  C   UNL     1       4.983  -7.900   7.791  0.00  0.00    +0.045 C 
BRANCH  28  36
ATOM     36  C   UNL     1       5.075  -6.004   5.597  0.00  0.00    +0.102 C 
ATOM     37  N   UNL     1       5.891  -5.215   5.576  0.00  0.00    -0.191 NA
ENDBRANCH  28  36
ENDBRANCH  26  27
ENDBRANCH  25  26
ENDBRANCH   2  25
TORSDOF 11
