REMARK  Name = ZINC05370857
REMARK  10 active torsions:
REMARK  status: ('A' for Active; 'I' for Inactive)
REMARK    1  A    between atoms: C_10  and  N_24
REMARK    2  A    between atoms: N_20  and  C_21
REMARK    3  A    between atoms: C_21  and  C_22
REMARK    4  A    between atoms: C_22  and  O_23
REMARK    5  A    between atoms: N_24  and  C_25
REMARK    6  A    between atoms: C_25  and  C_26
REMARK    7  A    between atoms: C_26  and  N_55
REMARK    8  A    between atoms: C_27  and  C_28
REMARK    9  A    between atoms: C_27  and  N_55
REMARK   10  A    between atoms: C_28  and  O_29
REMARK                            x       y       z     vdW  Elec       q    Type
REMARK                         _______ _______ _______ _____ _____    ______ ____
ROOT
ATOM      1  C   UNL     1      -2.391   1.483  -0.535  0.00  0.00    +0.001 A 
ATOM      2  C   UNL     1      -2.366   0.106  -0.669  0.00  0.00    +0.001 A 
ATOM      3  C   UNL     1      -1.164  -0.578  -0.654  0.00  0.00    +0.012 A 
ATOM      4  C   UNL     1       0.030   0.122  -0.504  0.00  0.00    +0.033 A 
ATOM      5  C   UNL     1       0.005   1.522  -0.369  0.00  0.00    +0.033 A 
ATOM      6  C   UNL     1      -1.215   2.193  -0.381  0.00  0.00    +0.012 A 
ATOM      7  C   UNL     1       1.267   2.273  -0.208  0.00  0.00    +0.196 C 
ATOM      8  O   UNL     1       1.245   3.484  -0.092  0.00  0.00    -0.287 OA
ATOM      9  C   UNL     1       2.547   1.556  -0.189  0.00  0.00    +0.056 A 
ATOM     10  C   UNL     1       3.749   2.260  -0.033  0.00  0.00    +0.041 A 
ATOM     11  C   UNL     1       4.957   1.571  -0.019  0.00  0.00    +0.048 A 
ATOM     12  C   UNL     1       4.993   0.191  -0.157  0.00  0.00    +0.053 A 
ATOM     13  C   UNL     1       3.799  -0.531  -0.308  0.00  0.00    +0.060 A 
ATOM     14  C   UNL     1       2.575   0.152  -0.327  0.00  0.00    +0.057 A 
ATOM     15  C   UNL     1       1.320  -0.599  -0.487  0.00  0.00    +0.196 C 
ATOM     16  O   UNL     1       1.344  -1.809  -0.606  0.00  0.00    -0.287 OA
ATOM     17  N   UNL     1       3.773  -1.910  -0.437  0.00  0.00    -0.340 N 
ATOM     18  C   UNL     1       5.080  -2.456  -0.818  0.00  0.00    +0.120 C 
ATOM     19  C   UNL     1       6.140  -1.866   0.121  0.00  0.00    +0.124 C 
ATOM     20  N   UNL     1       6.239  -0.427  -0.145  0.00  0.00    -0.325 N 
ATOM     21  H   UNL     1       3.431  -2.345   0.406  0.00  0.00    +0.146 HD
ENDROOT
BRANCH  10  22
ATOM     22  N   UNL     1       3.733   3.639   0.106  0.00  0.00    -0.345 N 
ATOM     23  H   UNL     1       2.889   4.109   0.188  0.00  0.00    +0.146 HD
BRANCH  22  24
ATOM     24  C   UNL     1       4.993   4.388   0.130  0.00  0.00    +0.082 C 
BRANCH  24  25
ATOM     25  C   UNL     1       4.697   5.880   0.292  0.00  0.00    -0.064 C 
BRANCH  25  26
ATOM     26  N   UNL     1       5.969   6.625   0.315  0.00  0.00    +0.382 N 
ATOM     27  H   UNL     1       6.473   6.463  -0.565  0.00  0.00    -0.086 HD
ATOM     28  H   UNL     1       6.541   6.295   1.102  0.00  0.00    -0.086 HD
BRANCH  26  29
ATOM     29  C   UNL     1       5.714   8.070   0.471  0.00  0.00    -0.054 C 
BRANCH  29  30
ATOM     30  C   UNL     1       7.050   8.816   0.491  0.00  0.00    +0.137 C 
BRANCH  30  31
ATOM     31  O   UNL     1       7.692   8.677  -0.777  0.00  0.00    -0.397 OA
ATOM     32  H   UNL     1       8.547   9.126  -0.837  0.00  0.00    +0.209 HD
ENDBRANCH  30  31
ENDBRANCH  29  30
ENDBRANCH  26  29
ENDBRANCH  25  26
ENDBRANCH  24  25
ENDBRANCH  22  24
ENDBRANCH  10  22
BRANCH  20  33
ATOM     33  C   UNL     1       7.141   0.226   0.814  0.00  0.00    +0.133 C 
BRANCH  33  34
ATOM     34  C   UNL     1       8.504  -0.469   0.785  0.00  0.00    +0.174 C 
BRANCH  34  35
ATOM     35  O   UNL     1       9.093  -0.310  -0.507  0.00  0.00    -0.393 OA
ATOM     36  H   UNL     1       9.961  -0.726  -0.597  0.00  0.00    +0.209 HD
ENDBRANCH  34  35
ENDBRANCH  33  34
ENDBRANCH  20  33
TORSDOF 10
