REMARK  Name = ZINC19821154
REMARK  7 active torsions:
REMARK  status: ('A' for Active; 'I' for Inactive)
REMARK    1  A    between atoms: C_1  and  C_2
REMARK    2  A    between atoms: C_3  and  C_20
REMARK    3  A    between atoms: N_7  and  S_8
REMARK    4  A    between atoms: S_8  and  C_11
REMARK    5  A    between atoms: C_14  and  C_17
REMARK    6  A    between atoms: C_17  and  C_18
REMARK    7  A    between atoms: C_18  and  N_19
REMARK                            x       y       z     vdW  Elec       q    Type
REMARK                         _______ _______ _______ _____ _____    ______ ____
ROOT
ATOM      1  S   UNL     1       1.232  -2.441  -0.022  0.00  0.00    +0.101 S 
ATOM      2  O   UNL     1       2.488  -2.833   0.514  0.00  0.00    -0.146 OA
ATOM      3  O   UNL     1      -0.002  -2.866   0.538  0.00  0.00    -0.146 OA
ENDROOT
BRANCH   1  10
ATOM      4  C   UNL     1       5.607  -1.027  -2.704  0.00  0.00    +0.064 C 
ATOM      5  C   UNL     1       4.343  -1.772  -3.047  0.00  0.00    +0.025 A 
ATOM      6  C   UNL     1       4.139  -2.252  -4.297  0.00  0.00    +0.009 A 
ATOM      7  S   UNL     1       2.533  -3.010  -4.104  0.00  0.00    -0.053 S 
ATOM      8  C   UNL     1       2.300  -2.624  -2.428  0.00  0.00    +0.192 A 
ATOM      9  N   UNL     1       3.407  -1.968  -2.138  0.00  0.00    -0.336 N 
ATOM     10  N   UNL     1       1.224  -2.922  -1.607  0.00  0.00    -0.103 NA
ATOM     11  C   UNL     1       5.024  -2.170  -5.515  0.00  0.00    +0.053 C 
ATOM     12  H   UNL     1       3.543  -1.581  -1.117  0.00  0.00    +0.168 HD
ENDBRANCH   1  10
BRANCH   1  13
ATOM     13  C   UNL     1       1.208  -0.679  -0.013  0.00  0.00    +0.113 A 
ATOM     14  C   UNL     1       0.002  -0.004   0.002  0.00  0.00    +0.029 A 
ATOM     15  C   UNL     1      -0.017   1.378   0.010  0.00  0.00    +0.005 A 
ATOM     16  C   UNL     1       1.171   2.086   0.002  0.00  0.00    -0.049 A 
ATOM     17  C   UNL     1       2.377   1.411  -0.015  0.00  0.00    +0.005 A 
ATOM     18  C   UNL     1       2.396   0.029  -0.022  0.00  0.00    +0.029 A 
BRANCH  16  19
ATOM     19  C   UNL     1       1.151   3.592   0.010  0.00  0.00    +0.015 C 
BRANCH  19  20
ATOM     20  C   UNL     1       1.157   4.095   1.455  0.00  0.00    -0.082 C 
BRANCH  20  21
ATOM     21  N   UNL     1       1.137   5.564   1.463  0.00  0.00    +0.378 N 
ATOM     22  H   UNL     1       1.142   5.925   2.502  0.00  0.00    -0.090 HD
ATOM     23  H   UNL     1       0.229   5.921   0.954  0.00  0.00    -0.090 HD
ATOM     24  H   UNL     1       2.025   5.945   0.938  0.00  0.00    -0.090 HD
ENDBRANCH  20  21
ENDBRANCH  19  20
ENDBRANCH  16  19
ENDBRANCH   1  13
TORSDOF 5
