REMARK  Name = ZINC29787192
REMARK  12 active torsions:
REMARK  status: ('A' for Active; 'I' for Inactive)
REMARK    1  A    between atoms: C_1  and  C_2
REMARK    2  A    between atoms: C_2  and  C_3
REMARK    3  A    between atoms: C_2  and  C_4
REMARK    4  A    between atoms: C_4  and  C_6
REMARK    5  A    between atoms: C_4  and  N_19
REMARK    6  A    between atoms: N_8  and  C_9
REMARK    7  A    between atoms: C_11  and  C_17
REMARK    8  A    between atoms: C_11  and  C_18
REMARK    9  A    between atoms: C_13  and  C_15
REMARK   10  A    between atoms: C_13  and  C_16
REMARK   11  A    between atoms: C_20  and  C_22
REMARK   12  A    between atoms: C_22  and  C_23
REMARK                            x       y       z     vdW  Elec       q    Type
REMARK                         _______ _______ _______ _____ _____    ______ ____
ROOT
ATOM      1  C   UNL     1       0.201   5.763  -2.246  0.00  0.00    +0.234 C 
ATOM      2  O   UNL     1      -0.136   5.032  -3.154  0.00  0.00    -0.274 OA
ATOM      3  N   UNL     1       0.774   5.245  -1.142  0.00  0.00    -0.311 N 
ATOM      4  H   UNL     1       1.150   5.912  -0.352  0.00  0.00    +0.149 HD
ENDROOT
BRANCH   3   5
ATOM      5  C   UNL     1       0.898   3.789  -0.993  0.00  0.00    +0.070 C 
ATOM      6  C   UNL     1       2.064   3.477  -0.055  0.00  0.00    +0.009 C 
ATOM      7  C   UNL     1       2.203   1.968   0.134  0.00  0.00    -0.072 C 
ATOM      8  N   UNL     1       0.951   1.323   0.471  0.00  0.00    +0.386 N 
ATOM      9  C   UNL     1      -0.276   1.725  -0.184  0.00  0.00    -0.072 C 
ATOM     10  C   UNL     1      -0.385   3.236  -0.373  0.00  0.00    +0.009 C 
ATOM     11  C   UNL     1      -0.434   1.026  -1.540  0.00  0.00    -0.010 C 
ATOM     12  C   UNL     1      -1.462   1.280   0.700  0.00  0.00    -0.010 C 
ATOM     13  C   UNL     1       3.194   1.735   1.296  0.00  0.00    -0.010 C 
ATOM     14  C   UNL     1       2.825   1.349  -1.123  0.00  0.00    -0.010 C 
ATOM     15  H   UNL     1       1.024   0.247   0.257  0.00  0.00    -0.084 HD
ATOM     16  H   UNL     1       0.739   1.471   1.540  0.00  0.00    -0.084 HD
ENDBRANCH   3   5
BRANCH   1  17
ATOM     17  C   UNL     1      -0.023   7.249  -2.352  0.00  0.00    +0.161 C 
BRANCH  17  18
ATOM     18  N   UNL     1      -0.045   7.640  -3.764  0.00  0.00    -0.303 N 
ATOM     19  C   UNL     1       0.271   8.900  -4.120  0.00  0.00    +0.218 C 
ATOM     20  O   UNL     1       0.575   9.712  -3.271  0.00  0.00    -0.275 OA
ATOM     21  H   UNL     1      -0.321   6.904  -4.534  0.00  0.00    +0.149 HD
BRANCH  19  22
ATOM     22  C   UNL     1       0.248   9.302  -5.572  0.00  0.00    +0.130 C 
BRANCH  22  23
ATOM     23  C   UNL     1       0.638  10.752  -5.698  0.00  0.00    -0.039 A 
ATOM     24  C   UNL     1      -0.332  11.736  -5.655  0.00  0.00    +0.004 A 
ATOM     25  C   UNL     1       0.026  13.066  -5.766  0.00  0.00    +0.000 A 
ATOM     26  C   UNL     1       1.354  13.413  -5.930  0.00  0.00    +0.000 A 
ATOM     27  C   UNL     1       2.324  12.429  -5.979  0.00  0.00    +0.000 A 
ATOM     28  C   UNL     1       1.966  11.099  -5.862  0.00  0.00    +0.004 A 
ENDBRANCH  22  23
ENDBRANCH  19  22
ENDBRANCH  17  18
BRANCH  17  30
ATOM     29  C   UNL     1      -2.476   6.777  -2.330  0.00  0.00    +0.009 C 
ATOM     30  C   UNL     1      -1.359   7.612  -1.702  0.00  0.00    +0.012 C 
ATOM     31  C   UNL     1      -1.290   7.324  -0.201  0.00  0.00    +0.009 C 
ENDBRANCH  17  30
ENDBRANCH   1  17
TORSDOF 6
