REMARK  Name = ZINC12523808
REMARK  6 active torsions:
REMARK  status: ('A' for Active; 'I' for Inactive)
REMARK    1  A    between atoms: C_1  and  C_2
REMARK    2  A    between atoms: C_2  and  C_3
REMARK    3  A    between atoms: C_3  and  C_4
REMARK    4  A    between atoms: C_4  and  O_5
REMARK    5  A    between atoms: O_5  and  C_6
REMARK    6  A    between atoms: C_9  and  C_12
REMARK                            x       y       z     vdW  Elec       q    Type
REMARK                         _______ _______ _______ _____ _____    ______ ____
ROOT
ATOM      1  C   UNL     1       1.905  -8.096   2.995  0.00  0.00    +0.209 C 
ATOM      2  N   UNL     1       3.238  -8.434   3.528  0.00  0.00    -0.294 N 
ATOM      3  C   UNL     1       3.443  -8.303   4.894  0.00  0.00    +0.159 C 
ATOM      4  N   UNL     1       2.515  -8.934   5.724  0.00  0.00    -0.259 N 
ATOM      5  C   UNL     1       1.209  -8.958   5.242  0.00  0.00    +0.205 A 
ATOM      6  N   UNL     1       0.902  -8.574   3.954  0.00  0.00    -0.288 N 
ATOM      7  C   UNL     1      -0.445  -8.727   3.796  0.00  0.00    +0.072 A 
ATOM      8  C   UNL     1      -1.303  -8.507   2.725  0.00  0.00    +0.028 A 
ATOM      9  C   UNL     1      -2.647  -8.775   2.927  0.00  0.00    +0.002 A 
ATOM     10  C   UNL     1      -3.129  -9.242   4.138  0.00  0.00    +0.002 A 
ATOM     11  C   UNL     1      -2.296  -9.470   5.219  0.00  0.00    +0.030 A 
ATOM     12  C   UNL     1      -0.934  -9.207   5.037  0.00  0.00    +0.091 A 
ATOM     13  N   UNL     1       0.125  -9.321   5.870  0.00  0.00    -0.214 NA
ATOM     14  N   UNL     1       4.447  -7.627   5.376  0.00  0.00    -0.375 N 
ATOM     15  H   UNL     1       3.949  -8.739   2.942  0.00  0.00    +0.151 HD
ATOM     16  H   UNL     1       5.077  -7.199   4.774  0.00  0.00    +0.158 HD
ATOM     17  H   UNL     1       2.762  -9.327   6.575  0.00  0.00    +0.158 HD
ATOM     18  H   UNL     1       4.565  -7.552   6.335  0.00  0.00    +0.158 HD
ENDROOT
BRANCH   1  22
ATOM     19  C   UNL     1       1.563  -3.861   2.537  0.00  0.00    +0.121 A 
ATOM     20  C   UNL     1       1.020  -4.709   1.582  0.00  0.00    +0.046 A 
ATOM     21  C   UNL     1       1.133  -6.078   1.733  0.00  0.00    +0.011 A 
ATOM     22  C   UNL     1       1.784  -6.602   2.834  0.00  0.00    -0.007 A 
ATOM     23  C   UNL     1       2.325  -5.759   3.787  0.00  0.00    +0.011 A 
ATOM     24  C   UNL     1       2.221  -4.390   3.638  0.00  0.00    +0.046 A 
BRANCH  19  25
ATOM     25  O   UNL     1       1.454  -2.514   2.391  0.00  0.00    -0.492 OA
BRANCH  25  26
ATOM     26  C   UNL     1       0.763  -2.041   1.233  0.00  0.00    +0.229 C 
BRANCH  26  27
ATOM     27  C   UNL     1       0.742  -0.511   1.242  0.00  0.00    +0.041 C 
BRANCH  27  29
ATOM     28  C   UNL     1      -0.019   1.526   0.010  0.00  0.00    +0.004 C 
ATOM     29  C   UNL     1       0.002  -0.004   0.002  0.00  0.00    -0.000 C 
ENDBRANCH  27  29
ENDBRANCH  26  27
ENDBRANCH  25  26
ENDBRANCH  19  25
ENDBRANCH   1  22
TORSDOF 5
