REMARK  Name = ZINC16031364
REMARK  9 active torsions:
REMARK  status: ('A' for Active; 'I' for Inactive)
REMARK    1  A    between atoms: C_1  and  O_2
REMARK    2  A    between atoms: O_2  and  C_3
REMARK    3  A    between atoms: C_5  and  C_13
REMARK    4  A    between atoms: C_7  and  O_11
REMARK    5  A    between atoms: C_8  and  O_9
REMARK    6  A    between atoms: O_9  and  C_10
REMARK    7  A    between atoms: O_11  and  C_12
REMARK    8  A    between atoms: N_32  and  C_35
REMARK    9  A    between atoms: C_35  and  C_36
REMARK                            x       y       z     vdW  Elec       q    Type
REMARK                         _______ _______ _______ _____ _____    ______ ____
ROOT
ATOM      1  C   UNL     1       2.345   4.200  -0.271  0.00  0.00    +0.154 C 
ATOM      2  C   UNL     1       3.323   3.587   0.706  0.00  0.00    +0.046 A 
ATOM      3  C   UNL     1       3.100   2.422   1.352  0.00  0.00    -0.015 A 
ATOM      4  C   UNL     1       4.260   2.171   2.183  0.00  0.00    +0.003 A 
ATOM      5  C   UNL     1       4.590   1.133   3.059  0.00  0.00    +0.010 A 
ATOM      6  C   UNL     1       5.803   1.222   3.697  0.00  0.00    +0.001 A 
ATOM      7  C   UNL     1       6.667   2.285   3.491  0.00  0.00    +0.002 A 
ATOM      8  C   UNL     1       6.365   3.325   2.629  0.00  0.00    +0.026 A 
ATOM      9  C   UNL     1       5.141   3.261   1.966  0.00  0.00    +0.047 A 
ATOM     10  N   UNL     1       4.541   4.096   1.068  0.00  0.00    -0.356 N 
ATOM     11  H   UNL     1       4.921   4.924   0.736  0.00  0.00    +0.166 HD
ATOM     12  C   UNL     1       1.857   1.582   1.203  0.00  0.00    +0.069 C 
ATOM     13  C   UNL     1       1.120   2.008  -0.074  0.00  0.00    +0.167 C 
ATOM     14  N   UNL     1       1.066   3.469  -0.116  0.00  0.00    -0.276 N 
ATOM     15  C   UNL     1      -0.073   4.160  -0.044  0.00  0.00    +0.234 C 
ATOM     16  O   UNL     1       0.000   5.370  -0.021  0.00  0.00    -0.274 OA
ATOM     17  C   UNL     1      -1.433   3.543   0.008  0.00  0.00    +0.203 C 
ATOM     18  N   UNL     1      -1.377   2.093  -0.076  0.00  0.00    -0.289 N 
ATOM     19  C   UNL     1      -0.243   1.396  -0.095  0.00  0.00    +0.237 C 
ATOM     20  O   UNL     1      -0.321   0.186  -0.137  0.00  0.00    -0.274 OA
ENDROOT
BRANCH   1  23
ATOM     21  C   UNL     1       2.728   3.068  -3.856  0.00  0.00    +0.165 A 
ATOM     22  C   UNL     1       2.248   3.199  -2.562  0.00  0.00    +0.055 A 
ATOM     23  C   UNL     1       2.869   4.061  -1.677  0.00  0.00    -0.014 A 
ATOM     24  C   UNL     1       3.965   4.800  -2.080  0.00  0.00    +0.055 A 
ATOM     25  C   UNL     1       4.454   4.670  -3.371  0.00  0.00    +0.165 A 
ATOM     26  C   UNL     1       3.834   3.805  -4.264  0.00  0.00    +0.204 A 
BRANCH  21  28
ATOM     27  C   UNL     1       0.986   1.495  -4.239  0.00  0.00    +0.277 C 
ATOM     28  O   UNL     1       2.117   2.219  -4.726  0.00  0.00    -0.491 OA
ENDBRANCH  21  28
BRANCH  26  29
ATOM     29  O   UNL     1       4.308   3.678  -5.533  0.00  0.00    -0.488 OA
ATOM     30  C   UNL     1       3.766   4.560  -6.519  0.00  0.00    +0.277 C 
ENDBRANCH  26  29
BRANCH  25  31
ATOM     31  O   UNL     1       5.536   5.394  -3.765  0.00  0.00    -0.491 OA
ATOM     32  C   UNL     1       6.123   6.264  -2.795  0.00  0.00    +0.277 C 
ENDBRANCH  25  31
ENDBRANCH   1  23
BRANCH  18  33
ATOM     33  C   UNL     1      -2.642   1.354  -0.102  0.00  0.00    +0.140 C 
BRANCH  33  34
ATOM     34  C   UNL     1      -3.085   1.052   1.331  0.00  0.00    +0.136 C 
ATOM     35  C   UNL     1      -4.353   0.171   1.313  0.00  0.00    +0.035 C 
ATOM     36  C   UNL     1      -5.184   0.767   2.483  0.00  0.00    +0.031 C 
ATOM     37  C   UNL     1      -4.800   2.265   2.385  0.00  0.00    +0.160 C 
ATOM     38  O   UNL     1      -3.415   2.273   2.005  0.00  0.00    -0.375 OA
ENDBRANCH  33  34
ENDBRANCH  18  33
TORSDOF 6
