REMARK  Name = ZINC02631280
REMARK  16 active torsions:
REMARK  status: ('A' for Active; 'I' for Inactive)
REMARK    1  A    between atoms: C_1  and  C_2
REMARK    2  A    between atoms: C_4  and  C_27
REMARK    3  A    between atoms: C_7  and  O_8
REMARK    4  A    between atoms: O_8  and  C_9
REMARK    5  A    between atoms: C_9  and  C_10
REMARK    6  A    between atoms: C_10  and  C_12
REMARK    7  A    between atoms: C_10  and  O_26
REMARK    8  A    between atoms: C_12  and  N_60
REMARK    9  A    between atoms: C_13  and  C_15
REMARK   10  A    between atoms: C_13  and  C_16
REMARK   11  A    between atoms: C_13  and  N_60
REMARK   12  A    between atoms: C_19  and  S_22
REMARK   13  A    between atoms: S_22  and  N_25
REMARK   14  A    between atoms: C_27  and  C_28
REMARK   15  A    between atoms: C_27  and  C_29
REMARK   16  A    between atoms: C_27  and  C_30
REMARK                            x       y       z     vdW  Elec       q    Type
REMARK                         _______ _______ _______ _____ _____    ______ ____
ROOT
ATOM      1  C   UNL     1      -2.732   3.710   7.207  0.00  0.00    -0.047 C 
ENDROOT
BRANCH   1   2
ATOM      2  N   UNL     1      -2.239   3.808   5.821  0.00  0.00    +0.385 N 
ATOM      3  H   UNL     1      -1.294   3.408   5.768  0.00  0.00    -0.085 HD
ATOM      4  H   UNL     1      -2.208   4.796   5.542  0.00  0.00    -0.085 HD
BRANCH   2   5
ATOM      5  C   UNL     1      -3.131   3.072   4.906  0.00  0.00    -0.044 C 
ATOM      6  C   UNL     1      -4.294   3.975   4.490  0.00  0.00    -0.009 C 
BRANCH   5   7
ATOM      7  C   UNL     1      -2.353   2.659   3.683  0.00  0.00    -0.062 A 
ATOM      8  C   UNL     1      -2.559   1.412   3.122  0.00  0.00    +0.004 A 
ATOM      9  C   UNL     1      -1.846   1.033   2.000  0.00  0.00    +0.029 A 
ATOM     10  C   UNL     1      -0.927   1.900   1.439  0.00  0.00    +0.105 A 
ATOM     11  C   UNL     1      -0.717   3.145   2.004  0.00  0.00    +0.029 A 
ATOM     12  C   UNL     1      -1.435   3.526   3.122  0.00  0.00    +0.004 A 
BRANCH  10  13
ATOM     13  S   UNL     1      -0.017   1.417   0.010  0.00  0.00    +0.056 S 
ATOM     14  O   UNL     1       0.002  -0.004   0.002  0.00  0.00    -0.153 OA
ATOM     15  O   UNL     1       1.172   2.195   0.003  0.00  0.00    -0.153 OA
BRANCH  13  16
ATOM     16  N   UNL     1      -0.897   1.885  -1.312  0.00  0.00    -0.204 NA
ATOM     17  H   UNL     1      -1.201   1.223  -1.952  0.00  0.00    +0.144 HD
ATOM     18  H   UNL     1      -1.110   2.822  -1.446  0.00  0.00    +0.144 HD
ENDBRANCH  13  16
ENDBRANCH  10  13
ENDBRANCH   5   7
ENDBRANCH   2   5
ENDBRANCH   1   2
BRANCH   1  19
ATOM     19  C   UNL     1      -1.789   4.482   8.132  0.00  0.00    +0.135 C 
BRANCH  19  20
ATOM     20  O   UNL     1      -1.837   5.873   7.807  0.00  0.00    -0.390 OA
ATOM     21  H   UNL     1      -2.714   6.268   7.901  0.00  0.00    +0.210 HD
ENDBRANCH  19  20
BRANCH  19  22
ATOM     22  C   UNL     1      -2.222   4.282   9.585  0.00  0.00    +0.258 C 
BRANCH  22  23
ATOM     23  O   UNL     1      -1.275   4.906  10.455  0.00  0.00    -0.489 OA
BRANCH  23  30
ATOM     24  C   UNL     1       0.591   6.122  12.192  0.00  0.00    +0.047 C 
ATOM     25  C   UNL     1      -0.632   5.398  12.692  0.00  0.00    -0.009 A 
ATOM     26  C   UNL     1      -0.880   5.314  14.048  0.00  0.00    +0.011 A 
ATOM     27  C   UNL     1      -2.000   4.646  14.508  0.00  0.00    -0.042 A 
ATOM     28  C   UNL     1      -2.877   4.064  13.611  0.00  0.00    +0.008 A 
ATOM     29  C   UNL     1      -2.637   4.150  12.254  0.00  0.00    +0.046 A 
ATOM     30  C   UNL     1      -1.514   4.820  11.790  0.00  0.00    +0.124 A 
BRANCH  27  31
ATOM     31  C   UNL     1      -2.264   4.551  15.989  0.00  0.00    -0.013 C 
ATOM     32  C   UNL     1      -3.555   3.766  16.227  0.00  0.00    +0.015 C 
ATOM     33  C   UNL     1      -1.098   3.832  16.670  0.00  0.00    +0.015 C 
ATOM     34  C   UNL     1      -2.407   5.958  16.572  0.00  0.00    +0.015 C 
ENDBRANCH  27  31
ENDBRANCH  23  30
ENDBRANCH  22  23
ENDBRANCH  19  22
ENDBRANCH   1  19
TORSDOF 11
