REMARK  Name = ZINC65596472
REMARK  8 active torsions:
REMARK  status: ('A' for Active; 'I' for Inactive)
REMARK    1  A    between atoms: C_1  and  C_2
REMARK    2  A    between atoms: C_7  and  C_11
REMARK    3  A    between atoms: C_11  and  N_12
REMARK    4  A    between atoms: C_13  and  C_15
REMARK    5  A    between atoms: C_15  and  O_16
REMARK    6  A    between atoms: O_16  and  C_17
REMARK    7  A    between atoms: C_20  and  C_23
REMARK    8  A    between atoms: C_23  and  C_24
REMARK                            x       y       z     vdW  Elec       q    Type
REMARK                         _______ _______ _______ _____ _____    ______ ____
ROOT
ATOM      1  N   UNL     1       1.471  -5.968   2.492  0.00  0.00    -0.307 N 
ATOM      2  C   UNL     1       1.735  -7.130   3.123  0.00  0.00    +0.251 C 
ATOM      3  O   UNL     1       0.827  -7.790   3.583  0.00  0.00    -0.272 OA
ATOM      4  H   UNL     1       2.197  -5.441   2.124  0.00  0.00    +0.149 HD
ENDROOT
BRANCH   1   5
ATOM      5  C   UNL     1       0.088  -5.503   2.364  0.00  0.00    +0.159 C 
BRANCH   5  12
ATOM      6  C   UNL     1      -0.018   1.503   0.010  0.00  0.00    +0.045 C 
ATOM      7  C   UNL     1       0.002  -0.004   0.002  0.00  0.00    -0.034 A 
ATOM      8  C   UNL     1       0.006  -0.697  -1.220  0.00  0.00    +0.008 A 
ATOM      9  C   UNL     1       0.025  -2.057  -1.224  0.00  0.00    +0.045 A 
ATOM     10  C   UNL     1       0.040  -2.750   0.003  0.00  0.00    +0.115 A 
ATOM     11  N   UNL     1       0.059  -4.043   0.297  0.00  0.00    -0.342 N 
ATOM     12  C   UNL     1       0.067  -4.189   1.625  0.00  0.00    +0.051 A 
ATOM     13  C   UNL     1       0.053  -2.964   2.194  0.00  0.00    +0.115 A 
ATOM     14  N   UNL     1       0.036  -2.047   1.179  0.00  0.00    -0.308 N 
ATOM     15  C   UNL     1       0.022  -0.682   1.169  0.00  0.00    +0.096 A 
ATOM     16  H   UNL     1       0.066  -4.766  -0.348  0.00  0.00    +0.167 HD
ENDBRANCH   5  12
ENDBRANCH   1   5
BRANCH   2  17
ATOM     17  C   UNL     1       3.158  -7.609   3.255  0.00  0.00    +0.324 C 
BRANCH  17  18
ATOM     18  O   UNL     1       3.177  -8.854   3.956  0.00  0.00    -0.483 OA
BRANCH  18  19
ATOM     19  C   UNL     1       4.393  -9.427   4.161  0.00  0.00    +0.121 A 
ATOM     20  C   UNL     1       5.543  -8.801   3.703  0.00  0.00    +0.046 A 
ATOM     21  C   UNL     1       6.776  -9.385   3.914  0.00  0.00    +0.007 A 
ATOM     22  C   UNL     1       6.866 -10.593   4.580  0.00  0.00    -0.038 A 
ATOM     23  C   UNL     1       5.721 -11.220   5.037  0.00  0.00    +0.007 A 
ATOM     24  C   UNL     1       4.486 -10.637   4.835  0.00  0.00    +0.046 A 
BRANCH  22  25
ATOM     25  C   UNL     1       8.213 -11.229   4.808  0.00  0.00    +0.130 C 
BRANCH  25  26
ATOM     26  C   UNL     1       8.779 -10.750   6.120  0.00  0.00    +0.215 C 
ATOM     27  O   UNL     1       8.150  -9.970   6.803  0.00  0.00    -0.276 OA
ATOM     28  N   UNL     1       9.984 -11.189   6.535  0.00  0.00    -0.329 N 
ATOM     29  H   UNL     1      10.487 -11.813   5.989  0.00  0.00    +0.145 HD
ATOM     30  H   UNL     1      10.348 -10.880   7.380  0.00  0.00    +0.145 HD
ENDBRANCH  25  26
ENDBRANCH  22  25
ENDBRANCH  18  19
ENDBRANCH  17  18
ENDBRANCH   2  17
TORSDOF 7
