REMARK  Name = ZINC13474031
REMARK  11 active torsions:
REMARK  status: ('A' for Active; 'I' for Inactive)
REMARK    1  A    between atoms: C_1  and  C_2
REMARK    2  A    between atoms: C_4  and  O_23
REMARK    3  A    between atoms: C_6  and  O_9
REMARK    4  A    between atoms: O_9  and  C_10
REMARK    5  A    between atoms: C_14  and  C_18
REMARK    6  A    between atoms: C_15  and  O_16
REMARK    7  A    between atoms: O_16  and  C_17
REMARK    8  A    between atoms: N_20  and  C_21
REMARK    9  A    between atoms: N_20  and  C_22
REMARK   10  A    between atoms: O_23  and  C_24
REMARK   11  A    between atoms: C_28  and  C_30
REMARK                            x       y       z     vdW  Elec       q    Type
REMARK                         _______ _______ _______ _____ _____    ______ ____
ROOT
ATOM      1  C   UNL     1       5.227  -4.782  -1.979  0.00  0.00    +0.050 C 
ATOM      2  C   UNL     1       4.792  -3.343  -1.873  0.00  0.00    +0.030 A 
ATOM      3  C   UNL     1       5.575  -2.413  -1.204  0.00  0.00    +0.191 A 
ATOM      4  C   UNL     1       5.143  -1.095  -1.125  0.00  0.00    +0.260 A 
ATOM      5  N   UNL     1       4.003  -0.723  -1.683  0.00  0.00    -0.172 NA
ATOM      6  C   UNL     1       3.230  -1.585  -2.323  0.00  0.00    +0.260 A 
ATOM      7  C   UNL     1       3.600  -2.919  -2.441  0.00  0.00    +0.191 A 
ATOM      8  F   UNL     1       2.808  -3.792  -3.100  0.00  0.00    -0.200 F 
ATOM      9  F   UNL     1       6.743  -2.785  -0.636  0.00  0.00    -0.200 F 
ENDROOT
BRANCH   6  10
ATOM     10  O   UNL     1       2.064  -1.160  -2.875  0.00  0.00    -0.432 OA
BRANCH  10  11
ATOM     11  C   UNL     1       1.800   0.174  -2.861  0.00  0.00    +0.173 A 
ATOM     12  C   UNL     1       2.833   1.086  -3.003  0.00  0.00    +0.050 A 
ATOM     13  C   UNL     1       2.571   2.446  -2.990  0.00  0.00    +0.005 A 
ATOM     14  C   UNL     1       1.282   2.906  -2.836  0.00  0.00    +0.017 A 
ATOM     15  C   UNL     1       0.229   1.998  -2.692  0.00  0.00    +0.082 A 
ATOM     16  C   UNL     1       0.492   0.623  -2.711  0.00  0.00    +0.174 A 
BRANCH  15  17
ATOM     17  C   UNL     1      -1.154   2.486  -2.528  0.00  0.00    +0.250 C 
ATOM     18  O   UNL     1      -2.008   2.177  -3.337  0.00  0.00    -0.270 OA
ATOM     19  N   UNL     1      -1.470   3.275  -1.482  0.00  0.00    -0.304 N 
ATOM     20  C   UNL     1      -2.845   3.754  -1.315  0.00  0.00    +0.132 C 
ATOM     21  C   UNL     1      -0.440   3.653  -0.512  0.00  0.00    +0.132 C 
ENDBRANCH  15  17
BRANCH  16  22
ATOM     22  O   UNL     1      -0.524  -0.268  -2.577  0.00  0.00    -0.491 OA
ATOM     23  C   UNL     1      -0.858  -0.676  -1.249  0.00  0.00    +0.277 C 
ENDBRANCH  16  22
ENDBRANCH  10  11
ENDBRANCH   6  10
BRANCH   4  24
ATOM     24  O   UNL     1       5.903  -0.178  -0.472  0.00  0.00    -0.436 OA
BRANCH  24  25
ATOM     25  C   UNL     1       5.396   1.072  -0.312  0.00  0.00    +0.131 A 
ATOM     26  C   UNL     1       4.023   1.257  -0.205  0.00  0.00    +0.046 A 
ATOM     27  C   UNL     1       3.503   2.527  -0.042  0.00  0.00    +0.004 A 
ATOM     28  C   UNL     1       4.344   3.620   0.015  0.00  0.00    +0.011 A 
ATOM     29  C   UNL     1       5.723   3.444  -0.092  0.00  0.00    +0.016 A 
ATOM     30  C   UNL     1       6.248   2.162  -0.251  0.00  0.00    +0.057 A 
BRANCH  29  31
ATOM     31  C   UNL     1       6.628   4.615  -0.032  0.00  0.00    +0.094 C 
ATOM     32  N   UNL     1       6.107   5.880   0.130  0.00  0.00    -0.345 N 
ATOM     33  H   UNL     1       8.590   5.153  -0.103  0.00  0.00    +0.157 HD
ATOM     34  H   UNL     1       5.148   6.004   0.205  0.00  0.00    +0.144 HD
ATOM     35  H   UNL     1       6.700   6.647   0.170  0.00  0.00    +0.144 HD
ATOM     36  N   UNL     1       7.926   4.379  -0.139  0.00  0.00    -0.387 N 
ATOM     37  H   UNL     1       8.265   3.417  -0.258  0.00  0.00    +0.157 HD
ENDBRANCH  29  31
ENDBRANCH  24  25
ENDBRANCH   4  24
TORSDOF 7
