REMARK  Name = ZINC63531245
REMARK  10 active torsions:
REMARK  status: ('A' for Active; 'I' for Inactive)
REMARK    1  A    between atoms: C_1  and  C_2
REMARK    2  A    between atoms: C_5  and  S_8
REMARK    3  A    between atoms: S_8  and  C_9
REMARK    4  A    between atoms: C_13  and  O_32
REMARK    5  A    between atoms: C_17  and  C_19
REMARK    6  A    between atoms: N_21  and  C_22
REMARK    7  A    between atoms: C_22  and  C_23
REMARK    8  A    between atoms: C_23  and  C_25
REMARK    9  A    between atoms: C_23  and  C_26
REMARK   10  A    between atoms: O_32  and  C_33
REMARK                            x       y       z     vdW  Elec       q    Type
REMARK                         _______ _______ _______ _____ _____    ______ ____
ROOT
ATOM      1  C   UNL     1       0.017  -4.819   1.612  0.00  0.00    +0.030 C 
ATOM      2  C   UNL     1      -0.098  -3.876   2.625  0.00  0.00    +0.010 A 
ATOM      3  C   UNL     1      -0.204  -2.466   2.605  0.00  0.00    +0.014 A 
ATOM      4  C   UNL     1      -0.305  -1.782   3.771  0.00  0.00    +0.046 A 
ATOM      5  C   UNL     1      -0.306  -2.440   5.009  0.00  0.00    +0.122 A 
ATOM      6  C   UNL     1      -0.206  -3.797   5.098  0.00  0.00    +0.071 A 
ATOM      7  C   UNL     1      -0.098  -4.573   3.921  0.00  0.00    +0.048 A 
ATOM      8  N   UNL     1       0.009  -5.878   3.742  0.00  0.00    -0.369 N 
ATOM      9  C   UNL     1       0.084  -6.161   2.306  0.00  0.00    +0.204 C 
ATOM     10  H   UNL     1       0.031  -6.542   4.449  0.00  0.00    +0.161 HD
ENDROOT
BRANCH   9  11
ATOM     11  C   UNL     1       1.386  -6.848   1.982  0.00  0.00    +0.240 C 
ATOM     12  O   UNL     1       2.301  -6.819   2.778  0.00  0.00    -0.273 OA
ATOM     13  N   UNL     1       1.534  -7.494   0.809  0.00  0.00    -0.313 N 
ATOM     14  H   UNL     1       0.802  -7.517   0.173  0.00  0.00    +0.149 HD
BRANCH  13  15
ATOM     15  C   UNL     1       2.800  -8.162   0.495  0.00  0.00    +0.112 C 
BRANCH  15  16
ATOM     16  C   UNL     1       2.704  -8.813  -0.886  0.00  0.00    +0.033 C 
ATOM     17  C   UNL     1       2.543  -7.728  -1.952  0.00  0.00    +0.014 C 
BRANCH  16  18
ATOM     18  C   UNL     1       3.958  -9.602  -1.157  0.00  0.00    -0.043 A 
ATOM     19  C   UNL     1       5.186  -8.967  -1.168  0.00  0.00    +0.004 A 
ATOM     20  C   UNL     1       6.337  -9.691  -1.417  0.00  0.00    +0.000 A 
ATOM     21  C   UNL     1       6.261 -11.050  -1.655  0.00  0.00    +0.000 A 
ATOM     22  C   UNL     1       5.033 -11.686  -1.644  0.00  0.00    +0.000 A 
ATOM     23  C   UNL     1       3.883 -10.963  -1.391  0.00  0.00    +0.004 A 
ENDBRANCH  16  18
ENDBRANCH  15  16
ENDBRANCH  13  15
ENDBRANCH   9  11
BRANCH   5  24
ATOM     24  O   UNL     1      -0.408  -1.708   6.147  0.00  0.00    -0.495 OA
ATOM     25  C   UNL     1      -0.510  -0.291   6.000  0.00  0.00    +0.277 C 
ENDBRANCH   5  24
BRANCH   1  26
ATOM     26  S   UNL     1       0.063  -4.533  -0.023  0.00  0.00    -0.091 S 
BRANCH  26  31
ATOM     27  C   UNL     1      -5.130  -6.841  -2.057  0.00  0.00    +0.044 C 
ATOM     28  C   UNL     1      -3.833  -6.264  -1.549  0.00  0.00    -0.050 A 
ATOM     29  C   UNL     1      -2.891  -5.791  -2.444  0.00  0.00    +0.004 A 
ATOM     30  C   UNL     1      -1.702  -5.263  -1.982  0.00  0.00    +0.015 A 
ATOM     31  C   UNL     1      -1.453  -5.206  -0.617  0.00  0.00    +0.013 A 
ATOM     32  C   UNL     1      -2.402  -5.682   0.280  0.00  0.00    +0.015 A 
ATOM     33  C   UNL     1      -3.591  -6.205  -0.189  0.00  0.00    +0.004 A 
ENDBRANCH  26  31
ENDBRANCH   1  26
TORSDOF 7
