REMARK  Name = ZINC66244694
REMARK  10 active torsions:
REMARK  status: ('A' for Active; 'I' for Inactive)
REMARK    1  A    between atoms: C_1  and  C_2
REMARK    2  A    between atoms: N_5  and  C_9
REMARK    3  A    between atoms: C_9  and  C_10
REMARK    4  A    between atoms: C_14  and  C_16
REMARK    5  A    between atoms: C_16  and  N_17
REMARK    6  A    between atoms: N_20  and  C_21
REMARK    7  A    between atoms: C_21  and  C_22
REMARK    8  A    between atoms: C_22  and  C_23
REMARK    9  A    between atoms: C_26  and  O_29
REMARK   10  A    between atoms: O_29  and  C_30
REMARK                            x       y       z     vdW  Elec       q    Type
REMARK                         _______ _______ _______ _____ _____    ______ ____
ROOT
ATOM      1  N   UNL     1      -1.137  -7.370   2.411  0.00  0.00    -0.354 N 
ATOM      2  C   UNL     1      -0.842  -8.163   3.494  0.00  0.00    +0.169 C 
ATOM      3  N   UNL     1      -1.803  -8.715   4.179  0.00  0.00    -0.371 N 
ATOM      4  N   UNL     1       0.468  -8.374   3.854  0.00  0.00    -0.357 N 
ATOM      5  H   UNL     1      -0.422  -6.959   1.901  0.00  0.00    +0.163 HD
ATOM      6  H   UNL     1      -1.594  -9.275   4.944  0.00  0.00    +0.159 HD
ATOM      7  H   UNL     1       1.184  -7.963   3.344  0.00  0.00    +0.162 HD
ATOM      8  H   UNL     1      -2.727  -8.566   3.925  0.00  0.00    +0.159 HD
ENDROOT
BRANCH   1   9
ATOM      9  C   UNL     1      -2.533  -7.145   2.027  0.00  0.00    +0.151 C 
BRANCH   9  14
ATOM     10  C   UNL     1      -2.696  -4.052  -0.132  0.00  0.00    -0.033 A 
ATOM     11  C   UNL     1      -2.676  -4.600  -1.401  0.00  0.00    +0.005 A 
ATOM     12  C   UNL     1      -2.611  -5.971  -1.561  0.00  0.00    +0.001 A 
ATOM     13  C   UNL     1      -2.564  -6.795  -0.451  0.00  0.00    +0.005 A 
ATOM     14  C   UNL     1      -2.583  -6.247   0.818  0.00  0.00    -0.028 A 
ATOM     15  C   UNL     1      -2.644  -4.875   0.977  0.00  0.00    +0.010 A 
BRANCH  10  16
ATOM     16  C   UNL     1      -2.768  -2.557   0.042  0.00  0.00    +0.119 C 
BRANCH  16  20
ATOM     17  C   UNL     1      -0.019   1.526   0.010  0.00  0.00    +0.039 C 
ATOM     18  C   UNL     1       0.002  -0.004   0.002  0.00  0.00    +0.129 C 
ATOM     19  C   UNL     1      -1.434  -0.535   0.015  0.00  0.00    +0.116 C 
ATOM     20  N   UNL     1      -1.407  -2.003   0.085  0.00  0.00    -0.294 NA
ATOM     21  C   UNL     1      -0.692  -2.455   1.287  0.00  0.00    +0.113 C 
ATOM     22  C   UNL     1       0.736  -1.905   1.261  0.00  0.00    +0.175 C 
ATOM     23  O   UNL     1       0.692  -0.479   1.161  0.00  0.00    -0.374 OA
ENDBRANCH  16  20
ENDBRANCH  10  16
ENDBRANCH   9  14
ENDBRANCH   1   9
BRANCH   4  24
ATOM     24  C   UNL     1       0.784  -9.220   5.008  0.00  0.00    +0.120 C 
BRANCH  24  25
ATOM     25  C   UNL     1       2.301  -9.289   5.190  0.00  0.00    +0.056 C 
BRANCH  25  26
ATOM     26  C   UNL     1       2.625 -10.159   6.378  0.00  0.00    -0.045 A 
ATOM     27  C   UNL     1       2.727  -9.597   7.637  0.00  0.00    +0.007 A 
ATOM     28  C   UNL     1       3.024 -10.392   8.727  0.00  0.00    +0.046 A 
ATOM     29  C   UNL     1       3.221 -11.755   8.557  0.00  0.00    +0.120 A 
ATOM     30  C   UNL     1       3.119 -12.316   7.293  0.00  0.00    +0.046 A 
ATOM     31  C   UNL     1       2.816 -11.517   6.207  0.00  0.00    +0.007 A 
BRANCH  29  32
ATOM     32  O   UNL     1       3.514 -12.539   9.628  0.00  0.00    -0.495 OA
ATOM     33  C   UNL     1       3.704 -13.933   9.379  0.00  0.00    +0.277 C 
ENDBRANCH  29  32
ENDBRANCH  25  26
ENDBRANCH  24  25
ENDBRANCH   4  24
TORSDOF 8
