REMARK  Name = ZINC62075722
REMARK  3 active torsions:
REMARK  status: ('A' for Active; 'I' for Inactive)
REMARK    1  A    between atoms: C_1  and  C_2
REMARK    2  A    between atoms: C_4  and  S_9
REMARK    3  A    between atoms: S_9  and  N_12
REMARK                            x       y       z     vdW  Elec       q    Type
REMARK                         _______ _______ _______ _____ _____    ______ ____
ROOT
ATOM      1  N   UNL     1       1.612  -3.163  -3.171  0.00  0.00    -0.172 NA
ATOM      2  C   UNL     1       2.327  -2.170  -3.989  0.00  0.00    +0.114 C 
ATOM      3  C   UNL     1       3.459  -1.592  -3.140  0.00  0.00    +0.052 C 
ATOM      4  C   UNL     1       4.237  -2.690  -2.463  0.00  0.00    -0.038 A 
ATOM      5  C   UNL     1       5.519  -2.390  -2.018  0.00  0.00    +0.053 A 
ATOM      6  C   UNL     1       6.285  -3.346  -1.380  0.00  0.00    +0.167 A 
ATOM      7  C   UNL     1       5.767  -4.624  -1.180  0.00  0.00    +0.167 A 
ATOM      8  C   UNL     1       4.492  -4.919  -1.626  0.00  0.00    +0.054 A 
ATOM      9  C   UNL     1       3.729  -3.956  -2.272  0.00  0.00    -0.025 A 
ATOM     10  C   UNL     1       2.359  -4.353  -2.751  0.00  0.00    +0.145 C 
ATOM     11  O   UNL     1       6.702  -5.378  -0.532  0.00  0.00    -0.453 OA
ATOM     12  C   UNL     1       7.947  -4.676  -0.704  0.00  0.00    +0.466 C 
ATOM     13  O   UNL     1       7.547  -3.302  -0.860  0.00  0.00    -0.453 OA
ENDROOT
BRANCH   1  14
ATOM     14  S   UNL     1       0.029  -2.942  -2.738  0.00  0.00    +0.061 S 
ATOM     15  O   UNL     1      -0.503  -4.233  -2.472  0.00  0.00    -0.153 OA
ATOM     16  O   UNL     1      -0.539  -2.069  -3.704  0.00  0.00    -0.153 OA
BRANCH  14  20
ATOM     17  C   UNL     1      -0.018   1.503   0.010  0.00  0.00    +0.047 C 
ATOM     18  C   UNL     1       0.002  -0.004   0.002  0.00  0.00    -0.013 A 
ATOM     19  C   UNL     1       0.006  -0.689  -1.199  0.00  0.00    +0.034 A 
ATOM     20  C   UNL     1       0.025  -2.071  -1.206  0.00  0.00    +0.106 A 
ATOM     21  C   UNL     1       0.040  -2.770  -0.014  0.00  0.00    +0.031 A 
ATOM     22  C   UNL     1       0.036  -2.088   1.188  0.00  0.00    +0.040 A 
ATOM     23  C   UNL     1       0.023  -0.703   1.197  0.00  0.00    +0.126 A 
ATOM     24  F   UNL     1       0.025  -0.035   2.371  0.00  0.00    -0.205 F 
ENDBRANCH  14  20
ENDBRANCH   1  14
TORSDOF 2
