REMARK  Name = ZINC62722935
REMARK  5 active torsions:
REMARK  status: ('A' for Active; 'I' for Inactive)
REMARK    1  A    between atoms: C_1  and  C_2
REMARK    2  A    between atoms: C_2  and  O_4
REMARK    3  A    between atoms: O_4  and  C_5
REMARK    4  A    between atoms: C_5  and  C_17
REMARK    5  A    between atoms: C_15  and  C_16
REMARK                            x       y       z     vdW  Elec       q    Type
REMARK                         _______ _______ _______ _____ _____    ______ ____
ROOT
ATOM      1  C   UNL     1      -1.057  -2.117   0.001  0.00  0.00    +0.207 C 
ATOM      2  C   UNL     1      -0.286  -2.583   1.236  0.00  0.00    +0.065 C 
ATOM      3  C   UNL     1      -0.981  -2.058   2.495  0.00  0.00    +0.009 C 
ATOM      4  C   UNL     1      -2.368  -2.694   2.604  0.00  0.00    +0.032 C 
ATOM      5  C   UNL     1      -3.133  -2.427   1.320  0.00  0.00    -0.056 C 
ATOM      6  C   UNL     1      -4.372  -1.950   1.425  0.00  0.00    +0.046 C 
ATOM      7  C   UNL     1      -5.163  -1.688   0.217  0.00  0.00    +0.156 C 
ATOM      8  O   UNL     1      -6.105  -0.924   0.223  0.00  0.00    -0.293 OA
ATOM      9  C   UNL     1      -4.739  -2.423  -1.040  0.00  0.00    +0.080 C 
ATOM     10  C   UNL     1      -3.232  -2.221  -1.201  0.00  0.00    +0.024 C 
ATOM     11  C   UNL     1      -2.466  -2.721   0.011  0.00  0.00    +0.043 C 
ATOM     12  C   UNL     1      -2.331  -4.239  -0.124  0.00  0.00    +0.021 C 
ENDROOT
BRANCH   1  13
ATOM     13  C   UNL     1      -0.346  -2.553  -1.212  0.00  0.00    +0.112 C 
ATOM     14  N   UNL     1       0.203  -2.890  -2.148  0.00  0.00    -0.192 NA
ENDBRANCH   1  13
BRANCH   1  15
ATOM     15  O   UNL     1      -1.151  -0.691   0.009  0.00  0.00    -0.442 OA
BRANCH  15  17
ATOM     16  C   UNL     1      -0.018   1.503   0.010  0.00  0.00    +0.136 C 
ATOM     17  C   UNL     1       0.002  -0.004   0.002  0.00  0.00    +0.305 C 
ATOM     18  O   UNL     1       1.056  -0.594  -0.011  0.00  0.00    -0.251 OA
ENDBRANCH  15  17
ENDBRANCH   1  15
TORSDOF 3
