REMARK  Name = ZINC38673810
REMARK  5 active torsions:
REMARK  status: ('A' for Active; 'I' for Inactive)
REMARK    1  A    between atoms: C_5  and  N_7
REMARK    2  A    between atoms: N_10  and  C_11
REMARK    3  A    between atoms: C_11  and  C_12
REMARK    4  A    between atoms: C_12  and  C_14
REMARK    5  A    between atoms: C_12  and  N_19
REMARK                            x       y       z     vdW  Elec       q    Type
REMARK                         _______ _______ _______ _____ _____    ______ ____
ROOT
ATOM      1  C   UNL     1      -1.414  -4.927  -0.145  0.00  0.00    +0.095 C 
ENDROOT
BRANCH   1   5
ATOM      2  N   UNL     1      -2.928  -2.955   2.564  0.00  0.00    -0.267 N 
ATOM      3  C   UNL     1      -2.334  -3.282   1.399  0.00  0.00    +0.304 C 
ATOM      4  O   UNL     1      -2.045  -2.413   0.600  0.00  0.00    -0.253 OA
ATOM      5  N   UNL     1      -2.060  -4.572   1.121  0.00  0.00    -0.300 N 
ATOM      6  H   UNL     1      -3.080  -3.635   3.239  0.00  0.00    +0.156 HD
ATOM      7  H   UNL     1      -2.291  -5.265   1.759  0.00  0.00    +0.150 HD
BRANCH   2  12
ATOM      8  C   UNL     1      -3.989   0.517   1.969  0.00  0.00    +0.002 A 
ATOM      9  C   UNL     1      -4.114   0.980   3.266  0.00  0.00    +0.003 A 
ATOM     10  C   UNL     1      -3.847   0.141   4.332  0.00  0.00    +0.040 A 
ATOM     11  C   UNL     1      -3.453  -1.165   4.103  0.00  0.00    +0.145 A 
ATOM     12  C   UNL     1      -3.327  -1.633   2.800  0.00  0.00    +0.070 A 
ATOM     13  C   UNL     1      -3.596  -0.787   1.734  0.00  0.00    +0.026 A 
ATOM     14  F   UNL     1      -3.192  -1.985   5.145  0.00  0.00    -0.204 F 
ENDBRANCH   2  12
ENDBRANCH   1   5
BRANCH   1  15
ATOM     15  C   UNL     1      -1.332  -6.450  -0.266  0.00  0.00    -0.020 C 
BRANCH  15  16
ATOM     16  N   UNL     1      -0.665  -6.806  -1.525  0.00  0.00    +0.385 N 
ATOM     17  C   UNL     1      -0.765  -8.265  -1.718  0.00  0.00    -0.078 C 
ATOM     18  C   UNL     1      -0.655  -8.557  -3.194  0.00  0.00    -0.019 C 
ATOM     19  C   UNL     1       0.788  -8.926  -3.589  0.00  0.00    -0.002 C 
ATOM     20  C   UNL     1       1.823  -8.038  -2.868  0.00  0.00    -0.002 C 
ATOM     21  C   UNL     1       1.398  -6.593  -2.808  0.00  0.00    -0.019 C 
ATOM     22  C   UNL     1       0.651  -6.343  -1.481  0.00  0.00    -0.078 C 
ATOM     23  H   UNL     1      -1.144  -6.347  -2.285  0.00  0.00    -0.081 HD
ENDBRANCH  15  16
BRANCH  15  24
ATOM     24  C   UNL     1      -2.723  -7.031  -0.252  0.00  0.00    -0.052 A 
ATOM     25  C   UNL     1      -3.244  -7.577   0.906  0.00  0.00    +0.009 A 
ATOM     26  C   UNL     1      -4.497  -8.091   0.884  0.00  0.00    +0.045 A 
ATOM     27  S   UNL     1      -4.982  -7.809  -0.811  0.00  0.00    -0.105 S 
ATOM     28  C   UNL     1      -3.483  -7.021  -1.374  0.00  0.00    +0.047 A 
ENDBRANCH  15  24
ENDBRANCH   1  15
TORSDOF 5
