REMARK  Name = ZINC07854132
REMARK  6 active torsions:
REMARK  status: ('A' for Active; 'I' for Inactive)
REMARK    1  A    between atoms: C_1  and  N_2
REMARK    2  A    between atoms: C_6  and  C_7
REMARK    3  A    between atoms: C_12  and  C_13
REMARK    4  A    between atoms: C_12  and  N_53
REMARK    5  A    between atoms: N_15  and  C_16
REMARK    6  A    between atoms: C_17  and  C_25
REMARK                            x       y       z     vdW  Elec       q    Type
REMARK                         _______ _______ _______ _____ _____    ______ ____
ROOT
ATOM      1  C   UNL     1      -2.933   4.739  -1.031  0.00  0.00    +0.201 C 
ATOM      2  O   UNL     1      -2.134   5.441  -0.448  0.00  0.00    -0.278 OA
ATOM      3  N   UNL     1      -4.106   5.256  -1.448  0.00  0.00    -0.281 N 
ATOM      4  H   UNL     1      -4.745   4.694  -1.914  0.00  0.00    +0.155 HD
ENDROOT
BRANCH   3   5
ATOM      5  C   UNL     1      -4.400   6.590  -1.209  0.00  0.00    +0.084 A 
ATOM      6  C   UNL     1      -5.542   7.296  -1.556  0.00  0.00    +0.068 A 
ATOM      7  C   UNL     1      -5.602   8.700  -1.186  0.00  0.00    -0.023 A 
ATOM      8  C   UNL     1      -4.517   9.169  -0.532  0.00  0.00    -0.004 A 
ATOM      9  S   UNL     1      -3.433   7.776  -0.398  0.00  0.00    -0.077 S 
ATOM     10  C   UNL     1      -4.298  10.563  -0.030  0.00  0.00    +0.043 C 
ATOM     11  C   UNL     1      -5.329  11.485  -0.697  0.00  0.00    +0.005 C 
ATOM     12  C   UNL     1      -6.713  10.838  -0.587  0.00  0.00    +0.005 C 
ATOM     13  C   UNL     1      -6.786   9.608  -1.495  0.00  0.00    +0.037 C 
BRANCH   6  14
ATOM     14  C   UNL     1      -6.648   6.651  -2.271  0.00  0.00    +0.244 C 
ATOM     15  O   UNL     1      -7.548   6.121  -1.647  0.00  0.00    -0.270 OA
ATOM     16  N   UNL     1      -6.667   6.644  -3.618  0.00  0.00    -0.325 N 
ATOM     17  H   UNL     1      -5.949   7.067  -4.116  0.00  0.00    +0.145 HD
ATOM     18  H   UNL     1      -7.399   6.217  -4.091  0.00  0.00    +0.145 HD
ENDBRANCH   6  14
ENDBRANCH   3   5
BRANCH   1  19
ATOM     19  C   UNL     1      -2.614   3.289  -1.291  0.00  0.00    +0.020 C 
BRANCH  19  24
ATOM     20  C   UNL     1      -0.837   1.636  -1.182  0.00  0.00    -0.020 C 
ATOM     21  C   UNL     1      -0.013   1.086   0.008  0.00  0.00    -0.011 C 
ATOM     22  C   UNL     1      -0.815   1.624   1.222  0.00  0.00    -0.020 C 
ATOM     23  C   UNL     1      -1.304   3.004   0.731  0.00  0.00    -0.077 C 
ATOM     24  N   UNL     1      -1.269   2.977  -0.741  0.00  0.00    +0.391 N 
ATOM     25  H   UNL     1      -0.598   3.678  -1.077  0.00  0.00    -0.080 HD
BRANCH  20  31
ATOM     26  C   UNL     1       0.784  -0.647  -2.513  0.00  0.00    +0.148 C 
ATOM     27  N   UNL     1       0.736   0.738  -2.987  0.00  0.00    -0.355 N 
ATOM     28  C   UNL     1       1.393   1.228  -4.077  0.00  0.00    +0.085 A 
ATOM     29  C   UNL     1       1.102   2.540  -4.190  0.00  0.00    +0.019 A 
ATOM     30  C   UNL     1       0.230   2.871  -3.134  0.00  0.00    +0.021 A 
ATOM     31  C   UNL     1       0.028   1.751  -2.411  0.00  0.00    +0.005 A 
ENDBRANCH  20  31
ENDBRANCH  19  24
ENDBRANCH   1  19
TORSDOF 5
