REMARK  Name = ZINC12005315
REMARK  9 active torsions:
REMARK  status: ('A' for Active; 'I' for Inactive)
REMARK    1  A    between atoms: C_1  and  C_2
REMARK    2  A    between atoms: C_2  and  O_3
REMARK    3  A    between atoms: O_3  and  C_4
REMARK    4  A    between atoms: N_9  and  C_12
REMARK    5  A    between atoms: C_13  and  C_22
REMARK    6  A    between atoms: C_17  and  C_21
REMARK    7  A    between atoms: C_22  and  N_70
REMARK    8  A    between atoms: C_23  and  C_24
REMARK    9  A    between atoms: C_23  and  N_70
REMARK                            x       y       z     vdW  Elec       q    Type
REMARK                         _______ _______ _______ _____ _____    ______ ____
ROOT
ATOM      1  C   UNL     1       2.457   2.113  -6.701  0.00  0.00    +0.101 A 
ATOM      2  C   UNL     1       1.242   1.536  -6.303  0.00  0.00    -0.026 A 
ATOM      3  C   UNL     1       0.133   1.687  -7.079  0.00  0.00    +0.015 A 
ATOM      4  C   UNL     1       0.249   2.425  -8.275  0.00  0.00    -0.001 A 
ATOM      5  C   UNL     1      -0.854   2.620  -9.121  0.00  0.00    +0.013 A 
ATOM      6  C   UNL     1      -0.704   3.337 -10.269  0.00  0.00    -0.050 A 
ATOM      7  C   UNL     1       0.530   3.882 -10.614  0.00  0.00    +0.005 A 
ATOM      8  C   UNL     1       1.620   3.713  -9.817  0.00  0.00    +0.026 A 
ATOM      9  C   UNL     1       1.505   2.978  -8.625  0.00  0.00    +0.048 A 
ATOM     10  C   UNL     1      -1.889   3.545 -11.176  0.00  0.00    +0.044 C 
ATOM     11  N   UNL     1       2.629   2.826  -7.842  0.00  0.00    -0.343 N 
ATOM     12  H   UNL     1       3.537   3.227  -8.105  0.00  0.00    +0.167 HD
ENDROOT
BRANCH   1  18
ATOM     13  C   UNL     1       7.508   2.518  -4.989  0.00  0.00    +0.403 C 
ATOM     14  O   UNL     1       8.341   1.794  -5.498  0.00  0.00    -0.226 OA
ATOM     15  N   UNL     1       6.208   2.165  -5.005  0.00  0.00    -0.264 N 
ATOM     16  C   UNL     1       5.774   0.908  -5.632  0.00  0.00    +0.130 C 
ATOM     17  C   UNL     1       4.632   1.218  -6.606  0.00  0.00    +0.125 C 
ATOM     18  N   UNL     1       3.577   1.955  -5.898  0.00  0.00    -0.313 N 
ATOM     19  C   UNL     1       4.066   3.254  -5.416  0.00  0.00    +0.125 C 
ATOM     20  C   UNL     1       5.184   3.027  -4.394  0.00  0.00    +0.130 C 
BRANCH  13  21
ATOM     21  O   UNL     1       7.886   3.673  -4.410  0.00  0.00    -0.451 OA
BRANCH  21  23
ATOM     22  C   UNL     1       9.537   5.329  -3.730  0.00  0.00    +0.048 C 
ATOM     23  C   UNL     1       9.303   3.989  -4.430  0.00  0.00    +0.230 C 
ENDBRANCH  21  23
ENDBRANCH  13  21
ENDBRANCH   1  18
BRANCH   2  24
ATOM     24  C   UNL     1       1.163   0.755  -5.017  0.00  0.00    -0.043 C 
BRANCH  24  25
ATOM     25  N   UNL     1       1.134   1.696  -3.881  0.00  0.00    +0.382 N 
ATOM     26  H   UNL     1       0.314   2.308  -3.969  0.00  0.00    -0.085 HD
ATOM     27  H   UNL     1       1.988   2.266  -3.891  0.00  0.00    -0.085 HD
BRANCH  25  28
ATOM     28  C   UNL     1       1.056   0.958  -2.606  0.00  0.00    -0.078 C 
BRANCH  28  29
ATOM     29  C   UNL     1       1.028   1.959  -1.449  0.00  0.00    -0.020 C 
ATOM     30  C   UNL     1      -0.326   2.714  -1.410  0.00  0.00    +0.010 C 
ATOM     31  C   UNL     1      -0.925   2.326  -0.015  0.00  0.00    +0.018 C 
ATOM     32  C   UNL     1      -1.215   0.820  -0.152  0.00  0.00    -0.027 C 
ATOM     33  C   UNL     1      -0.061   0.178  -0.200  0.00  0.00    -0.027 C 
ATOM     34  C   UNL     1       1.073   1.210  -0.073  0.00  0.00    +0.019 C 
ATOM     35  C   UNL     1       0.378   2.240   0.850  0.00  0.00    -0.017 C 
ATOM     36  C   UNL     1       1.052   3.397   1.519  0.00  0.00    +0.008 C 
ATOM     37  C   UNL     1       0.452   2.248   2.345  0.00  0.00    +0.008 C 
ENDBRANCH  28  29
ENDBRANCH  25  28
ENDBRANCH  24  25
ENDBRANCH   2  24
TORSDOF 7
