REMARK  Name = ZINC63822317
REMARK  7 active torsions:
REMARK  status: ('A' for Active; 'I' for Inactive)
REMARK    1  A    between atoms: C_1  and  C_2
REMARK    2  A    between atoms: C_5  and  C_26
REMARK    3  A    between atoms: C_7  and  N_8
REMARK    4  A    between atoms: C_9  and  C_11
REMARK    5  A    between atoms: N_13  and  C_14
REMARK    6  A    between atoms: C_14  and  C_15
REMARK    7  A    between atoms: C_14  and  C_16
REMARK                            x       y       z     vdW  Elec       q    Type
REMARK                         _______ _______ _______ _____ _____    ______ ____
ROOT
ATOM      1  C   UNL     1      -0.168   0.061   4.869  0.00  0.00    +0.300 C 
ATOM      2  O   UNL     1      -0.185   1.275   4.870  0.00  0.00    -0.265 OA
ATOM      3  N   UNL     1      -0.249  -0.614   6.033  0.00  0.00    -0.301 N 
ATOM      4  H   UNL     1      -0.236  -1.584   6.033  0.00  0.00    +0.150 HD
ENDROOT
BRANCH   1   6
ATOM      5  N   UNL     1       0.025  -0.009   2.416  0.00  0.00    -0.277 N 
ATOM      6  C   UNL     1      -0.057  -0.684   3.580  0.00  0.00    +0.303 C 
ATOM      7  O   UNL     1      -0.040  -1.897   3.579  0.00  0.00    -0.265 OA
ATOM      8  H   UNL     1       0.077   0.960   2.420  0.00  0.00    +0.155 HD
BRANCH   5  15
ATOM      9  C   UNL     1      -1.266   1.183   0.183  0.00  0.00    +0.045 C 
ATOM     10  C   UNL     1      -0.587  -0.158   0.085  0.00  0.00    -0.029 A 
ATOM     11  C   UNL     1      -0.576  -0.839  -1.118  0.00  0.00    +0.006 A 
ATOM     12  C   UNL     1       0.044  -2.068  -1.215  0.00  0.00    +0.019 A 
ATOM     13  C   UNL     1       0.665  -2.628  -0.096  0.00  0.00    +0.054 A 
ATOM     14  C   UNL     1       0.655  -1.940   1.118  0.00  0.00    +0.042 A 
ATOM     15  C   UNL     1       0.033  -0.704   1.204  0.00  0.00    +0.038 A 
BRANCH  13  16
ATOM     16  C   UNL     1       1.309  -3.903  -0.194  0.00  0.00    +0.099 C 
ATOM     17  N   UNL     1       1.820  -4.915  -0.272  0.00  0.00    -0.191 NA
ENDBRANCH  13  16
ENDBRANCH   5  15
ENDBRANCH   1   6
BRANCH   3  18
ATOM     18  C   UNL     1      -0.358   0.117   7.298  0.00  0.00    +0.101 C 
ATOM     19  C   UNL     1      -1.825   0.460   7.564  0.00  0.00    +0.033 C 
BRANCH  18  20
ATOM     20  C   UNL     1       0.168  -0.741   8.420  0.00  0.00    -0.024 A 
ATOM     21  C   UNL     1      -0.105  -2.096   8.440  0.00  0.00    +0.009 A 
ATOM     22  C   UNL     1       0.375  -2.885   9.468  0.00  0.00    +0.050 A 
ATOM     23  C   UNL     1       1.133  -2.319  10.483  0.00  0.00    +0.162 A 
ATOM     24  C   UNL     1       1.409  -0.957  10.461  0.00  0.00    +0.162 A 
ATOM     25  C   UNL     1       0.928  -0.172   9.425  0.00  0.00    +0.055 A 
ATOM     26  O   UNL     1       2.157  -0.383  11.443  0.00  0.00    -0.485 OA
ATOM     27  C   UNL     1       2.312  -1.130  12.655  0.00  0.00    +0.270 C 
ATOM     28  C   UNL     1       2.662  -2.578  12.285  0.00  0.00    +0.270 C 
ATOM     29  O   UNL     1       1.595  -3.108  11.491  0.00  0.00    -0.485 OA
ENDBRANCH  18  20
ENDBRANCH   3  18
TORSDOF 5
