REMARK  Name = ZINC00628471
REMARK  8 active torsions:
REMARK  status: ('A' for Active; 'I' for Inactive)
REMARK    1  A    between atoms: C_1  and  C_2
REMARK    2  A    between atoms: C_5  and  C_8
REMARK    3  A    between atoms: N_15  and  C_30
REMARK    4  A    between atoms: C_16  and  S_18
REMARK    5  A    between atoms: S_18  and  C_19
REMARK    6  A    between atoms: C_19  and  C_20
REMARK    7  A    between atoms: N_22  and  C_23
REMARK    8  A    between atoms: C_30  and  C_31
REMARK                            x       y       z     vdW  Elec       q    Type
REMARK                         _______ _______ _______ _____ _____    ______ ____
ROOT
ATOM      1  C   UNL     1       0.967   3.531   0.052  0.00  0.00    +0.004 A 
ATOM      2  C   UNL     1      -0.297   4.016   0.074  0.00  0.00    +0.056 A 
ATOM      3  S   UNL     1      -1.304   2.545   0.064  0.00  0.00    -0.076 S 
ATOM      4  C   UNL     1      -0.016   1.324   0.040  0.00  0.00    +0.117 A 
ATOM      5  C   UNL     1       1.165   2.085   0.033  0.00  0.00    +0.080 A 
ATOM      6  C   UNL     1       2.385   1.342   0.008  0.00  0.00    +0.264 A 
ATOM      7  O   UNL     1       3.459   1.919   0.001  0.00  0.00    -0.267 OA
ATOM      8  N   UNL     1       2.334  -0.002  -0.007  0.00  0.00    -0.283 N 
ATOM      9  C   UNL     1       1.141  -0.665   0.001  0.00  0.00    +0.173 A 
ATOM     10  N   UNL     1       0.002  -0.004   0.024  0.00  0.00    -0.216 NA
ENDROOT
BRANCH   1  15
ATOM     11  C   UNL     1       5.477   7.111   0.034  0.00  0.00    +0.044 C 
ATOM     12  C   UNL     1       4.297   6.173   0.038  0.00  0.00    -0.050 A 
ATOM     13  C   UNL     1       3.266   6.360  -0.865  0.00  0.00    +0.004 A 
ATOM     14  C   UNL     1       2.183   5.505  -0.865  0.00  0.00    +0.009 A 
ATOM     15  C   UNL     1       2.128   4.452   0.047  0.00  0.00    -0.017 A 
ATOM     16  C   UNL     1       3.168   4.273   0.959  0.00  0.00    +0.009 A 
ATOM     17  C   UNL     1       4.249   5.131   0.946  0.00  0.00    +0.004 A 
ENDBRANCH   1  15
BRANCH   9  18
ATOM     18  S   UNL     1       1.125  -2.427  -0.020  0.00  0.00    -0.078 S 
BRANCH  18  19
ATOM     19  C   UNL     1      -0.660  -2.724   0.001  0.00  0.00    +0.173 C 
BRANCH  19  20
ATOM     20  C   UNL     1      -0.922  -4.208  -0.013  0.00  0.00    +0.227 C 
ATOM     21  O   UNL     1       0.007  -4.988  -0.035  0.00  0.00    -0.275 OA
ATOM     22  N   UNL     1      -2.189  -4.669  -0.002  0.00  0.00    -0.285 N 
ATOM     23  H   UNL     1      -2.930  -4.049   0.083  0.00  0.00    +0.155 HD
BRANCH  22  24
ATOM     24  C   UNL     1      -2.435  -6.043  -0.113  0.00  0.00    +0.034 A 
ATOM     25  C   UNL     1      -3.555  -6.496  -0.796  0.00  0.00    +0.026 A 
ATOM     26  C   UNL     1      -3.793  -7.852  -0.909  0.00  0.00    +0.040 A 
ATOM     27  C   UNL     1      -2.921  -8.759  -0.332  0.00  0.00    +0.124 A 
ATOM     28  C   UNL     1      -1.806  -8.310   0.355  0.00  0.00    +0.040 A 
ATOM     29  C   UNL     1      -1.561  -6.955   0.465  0.00  0.00    +0.026 A 
ATOM     30  F   UNL     1      -3.158 -10.085  -0.439  0.00  0.00    -0.205 F 
ENDBRANCH  22  24
ENDBRANCH  19  20
ENDBRANCH  18  19
ENDBRANCH   9  18
BRANCH   8  31
ATOM     31  C   UNL     1       3.583  -0.769  -0.032  0.00  0.00    +0.154 C 
BRANCH  31  32
ATOM     32  C   UNL     1       3.992  -1.015  -1.461  0.00  0.00    -0.013 C 
ATOM     33  C   UNL     1       5.182  -0.654  -1.873  0.00  0.00    +0.005 C 
ENDBRANCH  31  32
ENDBRANCH   8  31
TORSDOF 7
