REMARK  Name = ZINC38688825
REMARK  7 active torsions:
REMARK  status: ('A' for Active; 'I' for Inactive)
REMARK    1  A    between atoms: C_1  and  C_2
REMARK    2  A    between atoms: C_5  and  S_8
REMARK    3  A    between atoms: S_8  and  C_9
REMARK    4  A    between atoms: C_9  and  C_10
REMARK    5  A    between atoms: C_12  and  C_23
REMARK    6  A    between atoms: N_25  and  N_26
REMARK    7  A    between atoms: C_27  and  C_28
REMARK                            x       y       z     vdW  Elec       q    Type
REMARK                         _______ _______ _______ _____ _____    ______ ____
ROOT
ATOM      1  C   UNL     1       0.076  -6.470   1.883  0.00  0.00    +0.147 C 
ATOM      2  C   UNL     1       0.158  -6.904   3.362  0.00  0.00    +0.239 C 
ATOM      3  N   UNL     1      -1.058  -7.703   3.563  0.00  0.00    -0.156 NA
ATOM      4  N   UNL     1      -1.724  -7.769   2.535  0.00  0.00    -0.077 NA
ATOM      5  N   UNL     1      -1.186  -7.088   1.437  0.00  0.00    -0.177 N 
ATOM      6  C   UNL     1      -1.738  -7.006   0.160  0.00  0.00    +0.228 A 
ATOM      7  C   UNL     1      -3.063  -7.496  -0.235  0.00  0.00    +0.204 A 
ATOM      8  N   UNL     1      -3.230  -7.245  -1.504  0.00  0.00    -0.032 NA
ATOM      9  O   UNL     1      -2.061  -6.602  -1.978  0.00  0.00    -0.239 OA
ATOM     10  N   UNL     1      -1.167  -6.477  -0.886  0.00  0.00    -0.030 NA
ATOM     11  N   UNL     1      -3.983  -8.120   0.599  0.00  0.00    -0.338 N 
ATOM     12  H   UNL     1      -3.769  -8.265   1.534  0.00  0.00    +0.144 HD
ATOM     13  H   UNL     1      -4.838  -8.411   0.247  0.00  0.00    +0.144 HD
ENDROOT
BRANCH   2  14
ATOM     14  C   UNL     1       0.158  -5.699   4.268  0.00  0.00    +0.261 C 
ATOM     15  O   UNL     1      -0.864  -5.359   4.824  0.00  0.00    -0.272 OA
ATOM     16  N   UNL     1       1.294  -5.001   4.459  0.00  0.00    -0.205 N 
ATOM     17  H   UNL     1       2.112  -5.273   4.014  0.00  0.00    +0.177 HD
BRANCH  16  18
ATOM     18  N   UNL     1       1.295  -3.881   5.301  0.00  0.00    -0.188 NA
ATOM     19  C   UNL     1       2.399  -3.202   5.487  0.00  0.00    +0.136 C 
BRANCH  19  20
ATOM     20  C   UNL     1       2.399  -2.082   6.330  0.00  0.00    +0.000 C 
ATOM     21  C   UNL     1       3.478  -1.253   6.629  0.00  0.00    +0.004 A 
ATOM     22  C   UNL     1       4.830  -1.260   6.218  0.00  0.00    +0.010 A 
ATOM     23  C   UNL     1       5.679  -0.308   6.680  0.00  0.00    +0.001 A 
ATOM     24  C   UNL     1       5.251   0.691   7.559  0.00  0.00    +0.002 A 
ATOM     25  C   UNL     1       3.970   0.759   7.995  0.00  0.00    +0.026 A 
ATOM     26  C   UNL     1       3.022  -0.203   7.556  0.00  0.00    +0.043 A 
ATOM     27  N   UNL     1       1.743  -0.352   7.827  0.00  0.00    -0.380 N 
ATOM     28  C   UNL     1       1.226  -1.516   7.099  0.00  0.00    +0.150 C 
ATOM     29  H   UNL     1       1.223   0.219   8.414  0.00  0.00    +0.160 HD
ENDBRANCH  19  20
ENDBRANCH  16  18
ENDBRANCH   2  14
BRANCH   1  30
ATOM     30  C   UNL     1       0.007  -4.946   1.767  0.00  0.00    +0.101 C 
BRANCH  30  31
ATOM     31  S   UNL     1      -0.083  -4.476   0.017  0.00  0.00    -0.123 S 
BRANCH  31  36
ATOM     32  C   UNL     1      -0.339   1.554   0.135  0.00  0.00    +0.044 C 
ATOM     33  C   UNL     1      -0.274   0.048   0.105  0.00  0.00    -0.050 A 
ATOM     34  C   UNL     1      -0.293  -0.619  -1.105  0.00  0.00    +0.004 A 
ATOM     35  C   UNL     1      -0.235  -1.999  -1.136  0.00  0.00    +0.015 A 
ATOM     36  C   UNL     1      -0.157  -2.716   0.052  0.00  0.00    +0.008 A 
ATOM     37  C   UNL     1      -0.138  -2.041   1.267  0.00  0.00    +0.015 A 
ATOM     38  C   UNL     1      -0.191  -0.662   1.289  0.00  0.00    +0.004 A 
ENDBRANCH  31  36
ENDBRANCH  30  31
ENDBRANCH   1  30
TORSDOF 6
