REMARK  Name = ZINC15015557
REMARK  7 active torsions:
REMARK  status: ('A' for Active; 'I' for Inactive)
REMARK    1  A    between atoms: C_1  and  C_2
REMARK    2  A    between atoms: N_7  and  C_8
REMARK    3  A    between atoms: C_8  and  C_10
REMARK    4  A    between atoms: C_8  and  C_18
REMARK    5  A    between atoms: C_14  and  O_16
REMARK    6  A    between atoms: O_16  and  C_17
REMARK    7  A    between atoms: C_27  and  O_28
REMARK                            x       y       z     vdW  Elec       q    Type
REMARK                         _______ _______ _______ _____ _____    ______ ____
ROOT
ATOM      1  C   UNL     1      -0.064   5.346   0.010  0.00  0.00    +0.136 C 
ENDROOT
BRANCH   1   8
ATOM      2  C   UNL     1       1.198  10.026  -1.664  0.00  0.00    +0.044 C 
ATOM      3  C   UNL     1       0.089   9.049  -1.959  0.00  0.00    -0.046 A 
ATOM      4  C   UNL     1      -0.875   9.338  -2.917  0.00  0.00    +0.021 A 
ATOM      5  C   UNL     1      -1.877   8.422  -3.165  0.00  0.00    +0.084 A 
ATOM      6  C   UNL     1      -1.031   6.970  -1.584  0.00  0.00    +0.097 A 
ATOM      7  C   UNL     1       0.007   7.846  -1.283  0.00  0.00    +0.045 A 
ATOM      8  N   UNL     1      -1.125   5.757  -0.911  0.00  0.00    -0.320 N 
ATOM      9  H   UNL     1      -1.894   5.182  -1.053  0.00  0.00    +0.148 HD
ATOM     10  N   UNL     1      -1.985   7.228  -2.524  0.00  0.00    -0.350 N 
ATOM     11  H   UNL     1      -2.738   6.562  -2.735  0.00  0.00    +0.166 HD
ENDBRANCH   1   8
BRANCH   1  12
ATOM     12  C   UNL     1      -0.336   5.919   1.377  0.00  0.00    +0.021 A 
ATOM     13  C   UNL     1      -1.644   6.219   1.747  0.00  0.00    +0.010 A 
ATOM     14  C   UNL     1      -1.924   6.732   2.977  0.00  0.00    +0.010 A 
ATOM     15  C   UNL     1      -0.880   6.975   3.884  0.00  0.00    +0.004 A 
ATOM     16  C   UNL     1      -1.129   7.510   5.162  0.00  0.00    +0.011 A 
ATOM     17  C   UNL     1      -0.065   7.720   5.992  0.00  0.00    +0.020 A 
ATOM     18  C   UNL     1       1.223   7.405   5.564  0.00  0.00    +0.111 A 
ATOM     19  N   UNL     1       1.451   6.906   4.373  0.00  0.00    -0.251 NA
ATOM     20  C   UNL     1       0.454   6.678   3.513  0.00  0.00    +0.113 A 
ATOM     21  C   UNL     1       0.706   6.141   2.233  0.00  0.00    +0.148 A 
BRANCH  21  22
ATOM     22  O   UNL     1       1.976   5.847   1.853  0.00  0.00    -0.504 OA
ATOM     23  H   UNL     1       2.436   6.578   1.419  0.00  0.00    +0.292 HD
ENDBRANCH  21  22
ENDBRANCH   1  12
BRANCH   1  24
ATOM     24  C   UNL     1      -0.026   3.842   0.095  0.00  0.00    -0.019 A 
ATOM     25  C   UNL     1      -1.200   3.129   0.258  0.00  0.00    +0.006 A 
ATOM     26  C   UNL     1      -1.169   1.749   0.331  0.00  0.00    +0.004 A 
ATOM     27  C   UNL     1       0.037   1.079   0.252  0.00  0.00    +0.045 A 
ATOM     28  C   UNL     1       1.216   1.791   0.087  0.00  0.00    +0.120 A 
ATOM     29  C   UNL     1       1.181   3.176   0.009  0.00  0.00    +0.051 A 
BRANCH  28  30
ATOM     30  O   UNL     1       2.402   1.133   0.003  0.00  0.00    -0.495 OA
ATOM     31  C   UNL     1       2.361  -0.292   0.091  0.00  0.00    +0.277 C 
ENDBRANCH  28  30
ENDBRANCH   1  24
TORSDOF 5
