REMARK  Name = ZINC34749469
REMARK  12 active torsions:
REMARK  status: ('A' for Active; 'I' for Inactive)
REMARK    1  A    between atoms: C_1  and  C_2
REMARK    2  A    between atoms: C_2  and  C_3
REMARK    3  A    between atoms: C_4  and  C_35
REMARK    4  A    between atoms: N_10  and  C_31
REMARK    5  A    between atoms: N_16  and  C_19
REMARK    6  A    between atoms: C_19  and  C_20
REMARK    7  A    between atoms: N_22  and  C_23
REMARK    8  A    between atoms: C_28  and  O_29
REMARK    9  A    between atoms: O_29  and  C_30
REMARK   10  A    between atoms: C_31  and  C_32
REMARK   11  A    between atoms: C_32  and  C_33
REMARK   12  A    between atoms: C_32  and  C_34
REMARK                            x       y       z     vdW  Elec       q    Type
REMARK                         _______ _______ _______ _____ _____    ______ ____
ROOT
ATOM      1  C   UNL     1       0.607  -0.897  -0.996  0.00  0.00    -0.023 A 
ATOM      2  C   UNL     1       0.273   0.394  -1.143  0.00  0.00    -0.007 A 
ATOM      3  S   UNL     1       1.819   1.178  -1.556  0.00  0.00    -0.073 S 
ATOM      4  C   UNL     1       2.871  -0.251  -1.520  0.00  0.00    +0.117 A 
ATOM      5  C   UNL     1       1.992  -1.296  -1.181  0.00  0.00    +0.076 A 
ATOM      6  C   UNL     1       2.582  -2.595  -1.074  0.00  0.00    +0.264 A 
ATOM      7  O   UNL     1       1.897  -3.563  -0.790  0.00  0.00    -0.267 OA
ATOM      8  N   UNL     1       3.902  -2.734  -1.292  0.00  0.00    -0.280 N 
ATOM      9  C   UNL     1       4.684  -1.663  -1.611  0.00  0.00    +0.202 A 
ATOM     10  N   UNL     1       4.166  -0.459  -1.726  0.00  0.00    -0.208 NA
ATOM     11  N   UNL     1       6.028  -1.846  -1.825  0.00  0.00    -0.304 N 
ATOM     12  C   UNL     1       6.991  -1.741  -0.718  0.00  0.00    +0.089 C 
ATOM     13  C   UNL     1       8.119  -0.795  -1.144  0.00  0.00    -0.059 C 
ATOM     14  N   UNL     1       8.698  -1.264  -2.409  0.00  0.00    +0.387 N 
ATOM     15  C   UNL     1       7.694  -1.187  -3.478  0.00  0.00    -0.059 C 
ATOM     16  C   UNL     1       6.544  -2.158  -3.167  0.00  0.00    +0.089 C 
ATOM     17  C   UNL     1      -1.086   1.028  -0.994  0.00  0.00    +0.052 C 
ATOM     18  H   UNL     1       9.003  -2.220  -2.304  0.00  0.00    -0.081 HD
ENDROOT
BRANCH   1  20
ATOM     19  C   UNL     1      -0.539  -2.034   0.887  0.00  0.00    +0.009 C 
ATOM     20  C   UNL     1      -0.439  -1.920  -0.636  0.00  0.00    +0.033 C 
ENDBRANCH   1  20
BRANCH  14  21
ATOM     21  C   UNL     1       9.849  -0.421  -2.761  0.00  0.00    +0.019 C 
BRANCH  21  22
ATOM     22  C   UNL     1      10.519  -0.975  -3.992  0.00  0.00    +0.201 C 
ATOM     23  O   UNL     1      10.080  -1.972  -4.525  0.00  0.00    -0.278 OA
ATOM     24  N   UNL     1      11.605  -0.361  -4.502  0.00  0.00    -0.284 N 
ATOM     25  H   UNL     1      12.000   0.392  -4.035  0.00  0.00    +0.155 HD
BRANCH  24  26
ATOM     26  C   UNL     1      12.163  -0.810  -5.706  0.00  0.00    +0.076 A 
ATOM     27  C   UNL     1      12.102  -2.155  -6.042  0.00  0.00    +0.027 A 
ATOM     28  C   UNL     1      12.653  -2.595  -7.230  0.00  0.00    +0.002 A 
ATOM     29  C   UNL     1      13.267  -1.699  -8.086  0.00  0.00    +0.004 A 
ATOM     30  C   UNL     1      13.332  -0.358  -7.758  0.00  0.00    +0.047 A 
ATOM     31  C   UNL     1      12.777   0.093  -6.572  0.00  0.00    +0.141 A 
BRANCH  31  32
ATOM     32  O   UNL     1      12.835   1.413  -6.250  0.00  0.00    -0.493 OA
ATOM     33  C   UNL     1      13.479   2.281  -7.185  0.00  0.00    +0.277 C 
ENDBRANCH  31  32
ENDBRANCH  24  26
ENDBRANCH  21  22
ENDBRANCH  14  21
BRANCH   8  34
ATOM     34  C   UNL     1       4.512  -4.062  -1.183  0.00  0.00    +0.131 C 
BRANCH  34  35
ATOM     35  C   UNL     1       5.017  -4.277   0.245  0.00  0.00    +0.003 C 
ATOM     36  C   UNL     1       3.827  -4.311   1.206  0.00  0.00    +0.009 C 
ATOM     37  C   UNL     1       5.775  -5.603   0.324  0.00  0.00    +0.009 C 
ENDBRANCH  34  35
ENDBRANCH   8  34
TORSDOF 7
