REMARK  Name = ZINC37165404
REMARK  3 active torsions:
REMARK  status: ('A' for Active; 'I' for Inactive)
REMARK    1  A    between atoms: C_11  and  N_13
REMARK    2  A    between atoms: N_13  and  C_14
REMARK    3  A    between atoms: C_19  and  O_22
REMARK                            x       y       z     vdW  Elec       q    Type
REMARK                         _______ _______ _______ _____ _____    ______ ____
ROOT
ATOM      1  C   UNL     1       4.268   3.952   3.052  0.00  0.00    +0.015 A 
ATOM      2  C   UNL     1       4.648   3.359   1.860  0.00  0.00    +0.005 A 
ATOM      3  C   UNL     1       3.772   2.532   1.195  0.00  0.00    -0.031 A 
ATOM      4  C   UNL     1       2.503   2.281   1.704  0.00  0.00    +0.036 A 
ATOM      5  C   UNL     1       2.127   2.881   2.904  0.00  0.00    +0.038 A 
ATOM      6  C   UNL     1       3.008   3.710   3.570  0.00  0.00    +0.020 A 
ATOM      7 BR   UNL     1       2.489   4.519   5.198  0.00  0.00    -0.050 Br
ATOM      8  N   UNL     1       1.806   1.419   0.857  0.00  0.00    -0.286 N 
ATOM      9  C   UNL     1       2.532   1.061  -0.215  0.00  0.00    +0.208 C 
ATOM     10  O   UNL     1       2.179   0.324  -1.112  0.00  0.00    -0.277 OA
ATOM     11  C   UNL     1       3.875   1.750  -0.095  0.00  0.00    +0.049 C 
ATOM     12  H   UNL     1       0.901   1.113   1.024  0.00  0.00    +0.155 HD
ENDROOT
BRANCH  11  13
ATOM     13  N   UNL     1       4.091   2.657  -1.230  0.00  0.00    +0.391 N 
ATOM     14  H   UNL     1       4.048   2.133  -2.092  0.00  0.00    -0.084 HD
ATOM     15  H   UNL     1       3.377   3.369  -1.233  0.00  0.00    -0.084 HD
BRANCH  13  16
ATOM     16  C   UNL     1       5.412   3.288  -1.107  0.00  0.00    -0.068 C 
ATOM     17  C   UNL     1       6.500   2.217  -1.199  0.00  0.00    -0.016 C 
ATOM     18  C   UNL     1       7.876   2.875  -1.071  0.00  0.00    +0.001 C 
ATOM     19  C   UNL     1       8.063   3.890  -2.200  0.00  0.00    +0.031 C 
ATOM     20  C   UNL     1       6.974   4.962  -2.108  0.00  0.00    +0.113 C 
ATOM     21  C   UNL     1       5.599   4.304  -2.237  0.00  0.00    +0.015 C 
BRANCH  20  22
ATOM     22  O   UNL     1       7.068   5.628  -0.848  0.00  0.00    -0.392 OA
ATOM     23  H   UNL     1       7.915   6.069  -0.698  0.00  0.00    +0.210 HD
ENDBRANCH  20  22
ENDBRANCH  13  16
ENDBRANCH  11  13
TORSDOF 3
