REMARK  Name = ZINC66771330
REMARK  2 active torsions:
REMARK  status: ('A' for Active; 'I' for Inactive)
REMARK    1  A    between atoms: C_3  and  C_11
REMARK    2  A    between atoms: C_17  and  C_19
REMARK                            x       y       z     vdW  Elec       q    Type
REMARK                         _______ _______ _______ _____ _____    ______ ____
ROOT
ATOM      1  C   UNL     1       3.670   2.195  -0.023  0.00  0.00    +0.110 C 
ATOM      2  C   UNL     1       4.260   2.248   1.401  0.00  0.00    +0.029 C 
ATOM      3  C   UNL     1       4.833   3.687   1.486  0.00  0.00    +0.021 C 
ATOM      4  C   UNL     1       3.795   4.485   0.658  0.00  0.00    +0.109 C 
ATOM      5  N   UNL     1       3.417   3.580  -0.447  0.00  0.00    -0.289 N 
ATOM      6  C   UNL     1       2.922   3.958  -1.642  0.00  0.00    +0.265 C 
ATOM      7  O   UNL     1       2.645   3.120  -2.478  0.00  0.00    -0.268 OA
ENDROOT
BRANCH   1  10
ATOM      8  C   UNL     1      -0.017   1.378   0.010  0.00  0.00    +0.004 A 
ATOM      9  C   UNL     1       1.170   2.088   0.002  0.00  0.00    +0.009 A 
ATOM     10  C   UNL     1       2.378   1.418  -0.014  0.00  0.00    +0.018 A 
ATOM     11  C   UNL     1       2.404   0.031  -0.023  0.00  0.00    +0.167 A 
ATOM     12  C   UNL     1       1.212  -0.683  -0.013  0.00  0.00    +0.162 A 
ATOM     13  C   UNL     1       0.002  -0.004   0.002  0.00  0.00    +0.049 A 
ATOM     14  O   UNL     1       1.214  -2.044  -0.013  0.00  0.00    -0.485 OA
ATOM     15  C   UNL     1       2.434  -2.685  -0.404  0.00  0.00    +0.270 C 
ATOM     16  C   UNL     1       3.594  -1.997   0.328  0.00  0.00    +0.270 C 
ATOM     17  O   UNL     1       3.602  -0.615  -0.043  0.00  0.00    -0.485 OA
ENDBRANCH   1  10
BRANCH   6  18
ATOM     18  C   UNL     1       2.716   5.396  -1.937  0.00  0.00    +0.127 A 
ATOM     19  C   UNL     1       2.200   5.779  -3.172  0.00  0.00    +0.053 A 
ATOM     20  C   UNL     1       2.013   7.129  -3.434  0.00  0.00    +0.045 A 
ATOM     21  C   UNL     1       2.350   8.046  -2.449  0.00  0.00    +0.040 A 
ATOM     22  C   UNL     1       2.859   7.592  -1.244  0.00  0.00    +0.113 A 
ATOM     23  N   UNL     1       3.021   6.306  -1.020  0.00  0.00    -0.250 NA
ATOM     24 CL   UNL     1       1.373   7.658  -4.959  0.00  0.00    -0.083 Cl
ENDBRANCH   6  18
TORSDOF 2
