REMARK  Name = ZINC22574164
REMARK  7 active torsions:
REMARK  status: ('A' for Active; 'I' for Inactive)
REMARK    1  A    between atoms: C_6  and  C_7
REMARK    2  A    between atoms: C_7  and  O_9
REMARK    3  A    between atoms: O_9  and  C_10
REMARK    4  A    between atoms: C_10  and  C_11
REMARK    5  A    between atoms: N_13  and  C_14
REMARK    6  A    between atoms: C_14  and  C_15
REMARK    7  A    between atoms: N_17  and  C_18
REMARK                            x       y       z     vdW  Elec       q    Type
REMARK                         _______ _______ _______ _____ _____    ______ ____
ROOT
ATOM      1  C   UNL     1      -1.587   3.781   2.658  0.00  0.00    +0.328 C 
ENDROOT
BRANCH   1   2
ATOM      2  C   UNL     1      -0.876   3.296   1.421  0.00  0.00    +0.251 C 
ATOM      3  O   UNL     1      -0.438   4.095   0.620  0.00  0.00    -0.272 OA
ATOM      4  N   UNL     1      -0.727   1.974   1.204  0.00  0.00    -0.304 N 
ATOM      5  H   UNL     1      -1.124   1.249   1.930  0.00  0.00    +0.149 HD
BRANCH   4   6
ATOM      6  C   UNL     1      -0.036   1.502   0.002  0.00  0.00    +0.200 C 
BRANCH   6   7
ATOM      7  C   UNL     1      -0.004  -0.005  -0.001  0.00  0.00    +0.234 C 
ATOM      8  O   UNL     1      -0.509  -0.624   0.911  0.00  0.00    -0.274 OA
ATOM      9  N   UNL     1       0.585  -0.664  -1.018  0.00  0.00    -0.282 N 
ATOM     10  H   UNL     1       0.978  -0.107  -1.881  0.00  0.00    +0.155 HD
BRANCH   9  11
ATOM     11  C   UNL     1       0.697  -2.061  -0.976  0.00  0.00    +0.072 A 
ATOM     12  C   UNL     1      -0.305  -2.821  -0.389  0.00  0.00    +0.029 A 
ATOM     13  C   UNL     1      -0.196  -4.198  -0.351  0.00  0.00    +0.043 A 
ATOM     14  C   UNL     1       0.917  -4.821  -0.890  0.00  0.00    +0.161 A 
ATOM     15  C   UNL     1       1.923  -4.066  -1.472  0.00  0.00    +0.195 A 
ATOM     16  C   UNL     1       1.815  -2.686  -1.516  0.00  0.00    +0.182 A 
ATOM     17  F   UNL     1       2.795  -1.948  -2.083  0.00  0.00    -0.200 F 
ATOM     18  F   UNL     1       3.009  -4.676  -1.996  0.00  0.00    -0.199 F 
ATOM     19  F   UNL     1       1.023  -6.167  -0.847  0.00  0.00    -0.202 F 
ENDBRANCH   9  11
ENDBRANCH   6   7
ENDBRANCH   4   6
ENDBRANCH   1   2
BRANCH   1  20
ATOM     20  O   UNL     1      -1.618   5.232   2.660  0.00  0.00    -0.452 OA
BRANCH  20  21
ATOM     21  C   UNL     1      -2.222   5.830   3.706  0.00  0.00    +0.340 C 
ATOM     22  O   UNL     1      -2.711   5.156   4.591  0.00  0.00    -0.245 OA
BRANCH  21  28
ATOM     23  C   UNL     1      -1.722   8.079   2.757  0.00  0.00    +0.017 A 
ATOM     24  C   UNL     1      -1.784   9.440   2.804  0.00  0.00    +0.027 A 
ATOM     25  C   UNL     1      -2.405  10.078   3.876  0.00  0.00    +0.047 A 
ATOM     26  C   UNL     1      -2.975   9.309   4.911  0.00  0.00    +0.004 A 
ATOM     27  C   UNL     1      -2.916   7.918   4.856  0.00  0.00    +0.025 A 
ATOM     28  C   UNL     1      -2.291   7.302   3.776  0.00  0.00    +0.060 A 
ATOM     29  C   UNL     1      -3.531  10.268   5.861  0.00  0.00    -0.019 A 
ATOM     30  C   UNL     1      -3.284  11.500   5.377  0.00  0.00    +0.020 A 
ATOM     31  N   UNL     1      -2.611  11.400   4.191  0.00  0.00    -0.358 N 
ATOM     32  H   UNL     1      -2.247  12.190   3.517  0.00  0.00    +0.166 HD
ATOM     33  C   UNL     1      -3.706  12.774   6.073  0.00  0.00    +0.053 C 
ATOM     34  C   UNL     1      -4.772  12.427   7.118  0.00  0.00    +0.006 C 
ATOM     35  C   UNL     1      -4.278  11.268   7.989  0.00  0.00    +0.005 C 
ATOM     36  C   UNL     1      -4.251   9.982   7.154  0.00  0.00    +0.037 C 
ENDBRANCH  21  28
ENDBRANCH  20  21
ENDBRANCH   1  20
TORSDOF 7
