REMARK  Name = ZINC46280763
REMARK  10 active torsions:
REMARK  status: ('A' for Active; 'I' for Inactive)
REMARK    1  A    between atoms: C_1  and  C_2
REMARK    2  A    between atoms: C_2  and  N_3
REMARK    3  A    between atoms: N_3  and  C_4
REMARK    4  A    between atoms: N_3  and  C_6
REMARK    5  A    between atoms: C_4  and  C_5
REMARK    6  A    between atoms: C_6  and  C_8
REMARK    7  A    between atoms: C_6  and  C_9
REMARK    8  A    between atoms: C_9  and  N_10
REMARK    9  A    between atoms: N_13  and  N_14
REMARK   10  A    between atoms: C_15  and  C_17
REMARK                            x       y       z     vdW  Elec       q    Type
REMARK                         _______ _______ _______ _____ _____    ______ ____
ROOT
ATOM      1  N   UNL     1       0.918  -1.462   1.327  0.00  0.00    -0.300 N 
ATOM      2  C   UNL     1       1.810  -1.669   2.316  0.00  0.00    +0.316 C 
ATOM      3  O   UNL     1       1.665  -2.605   3.079  0.00  0.00    -0.251 OA
ATOM      4  N   UNL     1       2.862  -0.840   2.459  0.00  0.00    -0.218 N 
ATOM      5  H   UNL     1       1.034  -0.716   0.718  0.00  0.00    +0.150 HD
ATOM      6  H   UNL     1       3.504  -0.989   3.171  0.00  0.00    +0.174 HD
ENDROOT
BRANCH   4   7
ATOM      7  N   UNL     1       3.029   0.238   1.579  0.00  0.00    -0.229 N 
ATOM      8  C   UNL     1       4.082   1.068   1.723  0.00  0.00    +0.267 C 
ATOM      9  O   UNL     1       4.887   0.881   2.616  0.00  0.00    -0.268 OA
ATOM     10  H   UNL     1       2.388   0.388   0.868  0.00  0.00    +0.173 HD
BRANCH   8  11
ATOM     11  C   UNL     1       4.257   2.196   0.803  0.00  0.00    +0.076 A 
ATOM     12  C   UNL     1       5.256   3.148   0.772  0.00  0.00    +0.024 A 
ATOM     13  C   UNL     1       5.173   4.119  -0.223  0.00  0.00    -0.036 A 
ATOM     14  C   UNL     1       4.112   4.033  -1.067  0.00  0.00    -0.006 A 
ATOM     15  S   UNL     1       3.240   2.692  -0.574  0.00  0.00    -0.088 S 
ATOM     16  C   UNL     1       3.773   4.939  -2.213  0.00  0.00    +0.043 C 
ATOM     17  C   UNL     1       5.060   5.546  -2.783  0.00  0.00    +0.005 C 
ATOM     18  C   UNL     1       5.360   6.841  -2.035  0.00  0.00    +0.001 C 
ATOM     19  C   UNL     1       5.565   6.568  -0.548  0.00  0.00    +0.005 C 
ATOM     20  C   UNL     1       6.231   5.211  -0.342  0.00  0.00    +0.036 C 
ENDBRANCH   8  11
ENDBRANCH   4   7
BRANCH   1  21
ATOM     21  C   UNL     1      -0.226  -2.364   1.171  0.00  0.00    +0.090 C 
BRANCH  21  22
ATOM     22  C   UNL     1      -1.243  -1.737   0.215  0.00  0.00    -0.054 C 
ATOM     23  C   UNL     1      -2.154  -2.830  -0.348  0.00  0.00    -0.012 C 
BRANCH  22  24
ATOM     24  N   UNL     1      -2.053  -0.749   0.940  0.00  0.00    +0.382 N 
ATOM     25  H   UNL     1      -2.804  -0.430   0.347  0.00  0.00    -0.081 HD
BRANCH  24  27
ATOM     26  C   UNL     1      -3.617  -0.410   2.794  0.00  0.00    -0.017 C 
ATOM     27  C   UNL     1      -2.612  -1.367   2.150  0.00  0.00    -0.082 C 
ENDBRANCH  24  27
BRANCH  24  28
ATOM     28  C   UNL     1      -1.209   0.392   1.319  0.00  0.00    -0.082 C 
ATOM     29  C   UNL     1      -0.654   1.058   0.058  0.00  0.00    -0.017 C 
ENDBRANCH  24  28
ENDBRANCH  22  24
ENDBRANCH  21  22
ENDBRANCH   1  21
TORSDOF 7
