REMARK  Name = ZINC67401366
REMARK  7 active torsions:
REMARK  status: ('A' for Active; 'I' for Inactive)
REMARK    1  A    between atoms: C_1  and  C_2
REMARK    2  A    between atoms: C_2  and  C_4
REMARK    3  A    between atoms: C_2  and  N_11
REMARK    4  A    between atoms: N_9  and  C_10
REMARK    5  A    between atoms: C_14  and  C_17
REMARK    6  A    between atoms: C_17  and  C_19
REMARK    7  A    between atoms: C_17  and  O_26
REMARK                            x       y       z     vdW  Elec       q    Type
REMARK                         _______ _______ _______ _____ _____    ______ ____
ROOT
ATOM      1  N   UNL     1       0.009  -0.918  -1.148  0.00  0.00    +0.387 N 
ATOM      2  C   UNL     1      -0.619  -2.189  -0.764  0.00  0.00    -0.077 C 
ATOM      3  C   UNL     1      -0.542  -3.173  -1.933  0.00  0.00    -0.012 C 
ATOM      4  C   UNL     1      -1.278  -2.583  -3.140  0.00  0.00    +0.019 C 
ATOM      5  C   UNL     1      -0.663  -1.223  -3.485  0.00  0.00    -0.012 C 
ATOM      6  C   UNL     1      -0.735  -0.311  -2.258  0.00  0.00    -0.077 C 
ATOM      7  H   UNL     1       0.961  -1.089  -1.435  0.00  0.00    -0.081 HD
ENDROOT
BRANCH   1   9
ATOM      8  C   UNL     1       0.630   1.331  -0.404  0.00  0.00    -0.004 C 
ATOM      9  C   UNL     1       0.002  -0.004   0.002  0.00  0.00    +0.017 C 
BRANCH   9  10
ATOM     10  C   UNL     1       0.796  -0.610   1.130  0.00  0.00    +0.207 C 
ATOM     11  O   UNL     1       1.696  -1.387   0.889  0.00  0.00    -0.277 OA
ATOM     12  N   UNL     1       0.507  -0.289   2.407  0.00  0.00    -0.242 N 
ATOM     13  C   UNL     1       1.218  -0.831   3.416  0.00  0.00    +0.306 C 
ATOM     14  O   UNL     1       2.119  -1.609   3.174  0.00  0.00    -0.252 OA
ATOM     15  N   UNL     1       0.928  -0.510   4.692  0.00  0.00    -0.302 N 
ATOM     16  C   UNL     1       1.700  -1.099   5.789  0.00  0.00    +0.129 C 
ATOM     17  H   UNL     1      -0.212   0.332   2.599  0.00  0.00    +0.159 HD
ATOM     18  H   UNL     1       0.209   0.112   4.885  0.00  0.00    +0.150 HD
ENDBRANCH   9  10
ENDBRANCH   1   9
BRANCH   4  19
ATOM     19  C   UNL     1      -1.137  -3.526  -4.336  0.00  0.00    +0.147 C 
BRANCH  19  20
ATOM     20  C   UNL     1      -1.862  -2.943  -5.522  0.00  0.00    -0.019 A 
ATOM     21  C   UNL     1      -1.224  -2.031  -6.342  0.00  0.00    +0.007 A 
ATOM     22  C   UNL     1      -1.888  -1.497  -7.430  0.00  0.00    +0.020 A 
ATOM     23  C   UNL     1      -3.191  -1.875  -7.699  0.00  0.00    +0.041 A 
ATOM     24  C   UNL     1      -3.829  -2.788  -6.878  0.00  0.00    +0.020 A 
ATOM     25  C   UNL     1      -3.163  -3.326  -5.794  0.00  0.00    +0.007 A 
ATOM     26 CL   UNL     1      -4.026  -1.204  -9.065  0.00  0.00    -0.084 Cl
ENDBRANCH  19  20
BRANCH  19  27
ATOM     27  O   UNL     1       0.246  -3.688  -4.655  0.00  0.00    -0.387 OA
ATOM     28  H   UNL     1       0.695  -2.864  -4.888  0.00  0.00    +0.210 HD
ENDBRANCH  19  27
ENDBRANCH   4  19
TORSDOF 5
