REMARK  Name = ZINC36786495
REMARK  12 active torsions:
REMARK  status: ('A' for Active; 'I' for Inactive)
REMARK    1  A    between atoms: C_1  and  C_2
REMARK    2  A    between atoms: C_2  and  C_4
REMARK    3  A    between atoms: C_2  and  N_7
REMARK    4  A    between atoms: C_4  and  C_5
REMARK    5  A    between atoms: C_4  and  C_6
REMARK    6  A    between atoms: N_7  and  C_8
REMARK    7  A    between atoms: N_7  and  C_9
REMARK    8  A    between atoms: C_9  and  C_10
REMARK    9  A    between atoms: C_10  and  C_11
REMARK   10  A    between atoms: C_11  and  C_12
REMARK   11  A    between atoms: N_14  and  C_15
REMARK   12  A    between atoms: C_18  and  N_22
REMARK                            x       y       z     vdW  Elec       q    Type
REMARK                         _______ _______ _______ _____ _____    ______ ____
ROOT
ATOM      1  C   UNL     1       2.955  -5.028  -2.318  0.00  0.00    +0.217 C 
ATOM      2  O   UNL     1       3.720  -4.347  -2.967  0.00  0.00    -0.275 OA
ATOM      3  N   UNL     1       3.065  -6.371  -2.338  0.00  0.00    -0.284 N 
ATOM      4  H   UNL     1       2.502  -6.912  -1.763  0.00  0.00    +0.155 HD
ENDROOT
BRANCH   3   5
ATOM      5  C   UNL     1       3.993  -6.986  -3.190  0.00  0.00    +0.052 A 
ATOM      6  C   UNL     1       5.201  -6.361  -3.467  0.00  0.00    +0.026 A 
ATOM      7  C   UNL     1       6.116  -6.965  -4.306  0.00  0.00    +0.024 A 
ATOM      8  C   UNL     1       5.827  -8.200  -4.873  0.00  0.00    +0.026 A 
ATOM      9  C   UNL     1       4.619  -8.826  -4.597  0.00  0.00    +0.044 A 
ATOM     10  C   UNL     1       3.706  -8.223  -3.753  0.00  0.00    +0.064 A 
ATOM     11 CL   UNL     1       2.199  -9.008  -3.401  0.00  0.00    -0.082 Cl
BRANCH   8  12
ATOM     12  N   UNL     1       6.754  -8.812  -5.724  0.00  0.00    -0.358 N 
ATOM     13  H   UNL     1       7.597  -8.375  -5.918  0.00  0.00    +0.142 HD
ATOM     14  H   UNL     1       6.552  -9.675  -6.120  0.00  0.00    +0.142 HD
ENDBRANCH   8  12
ENDBRANCH   3   5
BRANCH   1  15
ATOM     15  C   UNL     1       1.880  -4.372  -1.490  0.00  0.00    +0.094 C 
BRANCH  15  16
ATOM     16  C   UNL     1       1.974  -2.853  -1.643  0.00  0.00    -0.009 C 
BRANCH  16  17
ATOM     17  C   UNL     1       0.884  -2.187  -0.801  0.00  0.00    -0.078 C 
BRANCH  17  18
ATOM     18  N   UNL     1       0.974  -0.728  -0.948  0.00  0.00    +0.380 N 
ATOM     19  C   UNL     1       0.661  -0.355  -2.334  0.00  0.00    -0.096 C 
ATOM     20  H   UNL     1       1.909  -0.424  -0.721  0.00  0.00    -0.082 HD
BRANCH  18  22
ATOM     21  C   UNL     1       0.033   1.429  -0.269  0.00  0.00    -0.013 C 
ATOM     22  C   UNL     1       0.016  -0.084  -0.040  0.00  0.00    -0.069 C 
BRANCH  22  23
ATOM     23  C   UNL     1       0.405  -0.385   1.409  0.00  0.00    -0.031 C 
ATOM     24  C   UNL     1       1.800   0.178   1.690  0.00  0.00    +0.005 C 
ATOM     25  C   UNL     1      -0.607   0.266   2.354  0.00  0.00    +0.005 C 
ENDBRANCH  22  23
ENDBRANCH  18  22
ENDBRANCH  17  18
ENDBRANCH  16  17
ENDBRANCH  15  16
ENDBRANCH   1  15
TORSDOF 8
