REMARK  Name = ZINC13588931
REMARK  8 active torsions:
REMARK  status: ('A' for Active; 'I' for Inactive)
REMARK    1  A    between atoms: N_3  and  C_9
REMARK    2  A    between atoms: C_13  and  C_16
REMARK    3  A    between atoms: C_16  and  O_17
REMARK    4  A    between atoms: O_17  and  P_18
REMARK    5  A    between atoms: P_18  and  O_21
REMARK    6  A    between atoms: O_21  and  P_22
REMARK    7  A    between atoms: P_22  and  O_25
REMARK    8  A    between atoms: O_25  and  P_26
REMARK                            x       y       z     vdW  Elec       q    Type
REMARK                         _______ _______ _______ _____ _____    ______ ____
ROOT
ATOM      1  C   UNL     1       3.606   2.091  -0.022  0.00  0.00    +0.235 C 
ATOM      2  C   UNL     1       4.437   1.693   1.237  0.00  0.00    +0.126 C 
ATOM      3  S   UNL     1       5.574   3.148   1.284  0.00  0.00    -0.123 S 
ATOM      4  C   UNL     1       4.562   4.285   0.246  0.00  0.00    +0.204 C 
ATOM      5  O   UNL     1       3.367   3.505   0.013  0.00  0.00    -0.340 OA
ENDROOT
BRANCH   1   8
ATOM      6  C   UNL     1      -0.017   1.406   0.010  0.00  0.00    +0.061 A 
ATOM      7  C   UNL     1       1.159   2.078   0.002  0.00  0.00    +0.096 A 
ATOM      8  N   UNL     1       2.327   1.377  -0.013  0.00  0.00    -0.272 N 
ATOM      9  C   UNL     1       2.312   0.031  -0.020  0.00  0.00    +0.352 A 
ATOM     10  O   UNL     1       3.368  -0.580  -0.033  0.00  0.00    -0.244 OA
ATOM     11  N   UNL     1       1.164  -0.644  -0.013  0.00  0.00    -0.178 NA
ATOM     12  C   UNL     1       0.002  -0.004   0.002  0.00  0.00    +0.123 A 
ATOM     13  N   UNL     1      -1.177  -0.712   0.009  0.00  0.00    -0.343 N 
ATOM     14  H   UNL     1      -2.026  -0.241   0.020  0.00  0.00    +0.144 HD
ATOM     15  H   UNL     1      -1.161  -1.682   0.004  0.00  0.00    +0.144 HD
ENDBRANCH   1   8
BRANCH   4  16
ATOM     16  C   UNL     1       4.235   5.571   1.007  0.00  0.00    +0.215 C 
BRANCH  16  17
ATOM     17  O   UNL     1       3.529   5.248   2.207  0.00  0.00    -0.281 OA
BRANCH  17  18
ATOM     18  P   UNL     1       3.026   6.362   3.255  0.00  0.00    +0.513 P 
ATOM     19  O   UNL     1       4.223   7.235   3.694  0.00  0.00    -0.224 OA
ATOM     20  O   UNL     1       1.957   7.254   2.585  0.00  0.00    -0.116 OA
BRANCH  18  21
ATOM     21  O   UNL     1       2.389   5.638   4.544  0.00  0.00    -0.183 OA
BRANCH  21  22
ATOM     22  P   UNL     1       2.002   6.131   6.027  0.00  0.00    +0.522 P 
ATOM     23  O   UNL     1       3.091   7.094   6.550  0.00  0.00    -0.224 OA
ATOM     24  O   UNL     1       0.642   6.864   5.987  0.00  0.00    -0.116 OA
BRANCH  22  25
ATOM     25  O   UNL     1       1.896   4.857   7.005  0.00  0.00    -0.181 OA
BRANCH  25  26
ATOM     26  P   UNL     1       1.854   4.676   8.605  0.00  0.00    +0.540 P 
ATOM     27  O   UNL     1       2.862   5.673   9.270  0.00  0.00    -0.222 OA
ATOM     28  O   UNL     1       0.406   4.971   9.126  0.00  0.00    -0.114 OA
ATOM     29  O   UNL     1       2.253   3.206   8.974  0.00  0.00    -0.114 OA
ENDBRANCH  25  26
ENDBRANCH  22  25
ENDBRANCH  21  22
ENDBRANCH  18  21
ENDBRANCH  17  18
ENDBRANCH  16  17
ENDBRANCH   4  16
TORSDOF 8
