REMARK  Name = ZINC64479953
REMARK  5 active torsions:
REMARK  status: ('A' for Active; 'I' for Inactive)
REMARK    1  A    between atoms: C_1  and  C_2
REMARK    2  A    between atoms: C_2  and  C_3
REMARK    3  A    between atoms: C_3  and  C_4
REMARK    4  A    between atoms: C_4  and  N_5
REMARK    5  A    between atoms: C_8  and  C_14
REMARK                            x       y       z     vdW  Elec       q    Type
REMARK                         _______ _______ _______ _____ _____    ______ ____
ROOT
ATOM      1  C   UNL     1       0.615  -3.429  -6.024  0.00  0.00    -0.003 C 
ATOM      2  C   UNL     1      -0.074  -2.140  -6.476  0.00  0.00    +0.097 C 
ATOM      3  C   UNL     1      -1.110  -1.815  -5.406  0.00  0.00    -0.041 C 
ATOM      4  C   UNL     1      -0.873  -0.569  -5.021  0.00  0.00    -0.001 A 
ATOM      5  C   UNL     1      -1.583   0.325  -4.091  0.00  0.00    +0.010 A 
ATOM      6  C   UNL     1      -1.043   1.560  -3.916  0.00  0.00    +0.001 A 
ATOM      7  C   UNL     1       0.119   1.991  -4.564  0.00  0.00    +0.002 A 
ATOM      8  C   UNL     1       0.832   1.239  -5.440  0.00  0.00    +0.026 A 
ATOM      9  C   UNL     1       0.360  -0.078  -5.710  0.00  0.00    +0.043 A 
ATOM     10  N   UNL     1       0.837  -0.998  -6.527  0.00  0.00    -0.379 N 
ATOM     11  C   UNL     1      -2.085  -2.855  -4.911  0.00  0.00    +0.014 C 
ATOM     12  C   UNL     1      -1.253  -4.119  -4.626  0.00  0.00    -0.077 C 
ATOM     13  N   UNL     1      -0.417  -4.449  -5.784  0.00  0.00    +0.386 N 
ATOM     14  H   UNL     1      -1.004  -4.521  -6.601  0.00  0.00    -0.085 HD
ATOM     15  H   UNL     1       1.644  -0.939  -7.061  0.00  0.00    +0.160 HD
ATOM     16  H   UNL     1       0.031  -5.338  -5.624  0.00  0.00    -0.085 HD
ENDROOT
BRANCH   1  20
ATOM     17  N   UNL     1       3.424  -3.235  -3.530  0.00  0.00    -0.288 N 
ATOM     18  C   UNL     1       2.756  -3.470  -4.677  0.00  0.00    +0.260 A 
ATOM     19  O   UNL     1       3.337  -3.936  -5.641  0.00  0.00    -0.267 OA
ATOM     20  C   UNL     1       1.383  -3.174  -4.752  0.00  0.00    +0.070 A 
ATOM     21  C   UNL     1       0.756  -2.654  -3.659  0.00  0.00    +0.257 A 
ATOM     22  N   UNL     1       1.474  -2.430  -2.512  0.00  0.00    -0.302 N 
ATOM     23  C   UNL     1       2.786  -2.725  -2.461  0.00  0.00    +0.163 A 
ATOM     24  S   UNL     1       3.658  -2.443  -1.014  0.00  0.00    -0.013 S 
ATOM     25  O   UNL     1      -0.561  -2.361  -3.705  0.00  0.00    -0.267 OA
ATOM     26  H   UNL     1       1.033  -2.059  -1.732  0.00  0.00    +0.171 HD
BRANCH  17  27
ATOM     27  C   UNL     1       4.854  -3.541  -3.446  0.00  0.00    +0.127 C 
BRANCH  27  28
ATOM     28  C   UNL     1       5.040  -4.982  -2.968  0.00  0.00    +0.021 C 
BRANCH  28  30
ATOM     29  C   UNL     1       6.719  -6.743  -2.402  0.00  0.00    +0.004 C 
ATOM     30  C   UNL     1       6.534  -5.302  -2.880  0.00  0.00    -0.002 C 
ENDBRANCH  28  30
ENDBRANCH  27  28
ENDBRANCH  17  27
ENDBRANCH   1  20
TORSDOF 4
