REMARK  Name = ZINC38546801
REMARK  9 active torsions:
REMARK  status: ('A' for Active; 'I' for Inactive)
REMARK    1  A    between atoms: C_1  and  C_2
REMARK    2  A    between atoms: C_2  and  N_3
REMARK    3  A    between atoms: N_6  and  C_9
REMARK    4  A    between atoms: C_9  and  C_11
REMARK    5  A    between atoms: C_9  and  C_20
REMARK    6  A    between atoms: C_21  and  C_34
REMARK    7  A    between atoms: C_22  and  C_33
REMARK    8  A    between atoms: C_24  and  N_25
REMARK    9  A    between atoms: C_26  and  C_28
REMARK                            x       y       z     vdW  Elec       q    Type
REMARK                         _______ _______ _______ _____ _____    ______ ____
ROOT
ATOM      1  C   UNL     1       3.491  -2.454  -3.747  0.00  0.00    +0.120 C 
ENDROOT
BRANCH   1   2
ATOM      2  C   UNL     1       3.026  -2.077  -5.130  0.00  0.00    -0.022 A 
ATOM      3  C   UNL     1       1.674  -2.020  -5.411  0.00  0.00    +0.009 A 
ATOM      4  C   UNL     1       1.242  -1.674  -6.678  0.00  0.00    +0.050 A 
ATOM      5  C   UNL     1       2.165  -1.384  -7.670  0.00  0.00    +0.166 A 
ATOM      6  C   UNL     1       3.528  -1.442  -7.386  0.00  0.00    +0.167 A 
ATOM      7  C   UNL     1       3.953  -1.784  -6.113  0.00  0.00    +0.055 A 
ATOM      8  O   UNL     1       4.222  -1.118  -8.516  0.00  0.00    -0.453 OA
ATOM      9  C   UNL     1       3.284  -1.259  -9.598  0.00  0.00    +0.466 C 
ATOM     10  O   UNL     1       2.006  -1.024  -8.977  0.00  0.00    -0.453 OA
ENDBRANCH   1   2
BRANCH   1  14
ATOM     11  N   UNL     1       1.712  -0.498  -0.449  0.00  0.00    +0.381 N 
ATOM     12  C   UNL     1       1.809  -1.963  -0.413  0.00  0.00    -0.063 C 
ATOM     13  C   UNL     1       2.877  -2.429  -1.404  0.00  0.00    +0.067 C 
ATOM     14  N   UNL     1       2.517  -1.978  -2.756  0.00  0.00    -0.295 NA
ATOM     15  C   UNL     1       2.392  -0.514  -2.802  0.00  0.00    +0.067 C 
ATOM     16  C   UNL     1       1.327  -0.064  -1.799  0.00  0.00    -0.063 C 
ATOM     17  H   UNL     1       2.606  -0.096  -0.209  0.00  0.00    -0.082 HD
BRANCH  11  19
ATOM     18  C   UNL     1       1.159  -0.392   1.934  0.00  0.00    -0.017 C 
ATOM     19  C   UNL     1       0.699  -0.050   0.516  0.00  0.00    -0.082 C 
ENDBRANCH  11  19
ENDBRANCH   1  14
BRANCH   1  20
ATOM     20  C   UNL     1       3.614  -3.953  -3.650  0.00  0.00    +0.006 A 
ATOM     21  C   UNL     1       4.855  -4.562  -3.693  0.00  0.00    -0.034 A 
ATOM     22  C   UNL     1       4.930  -5.912  -3.602  0.00  0.00    -0.008 A 
ATOM     23  S   UNL     1       3.212  -6.371  -3.450  0.00  0.00    -0.078 S 
ATOM     24  C   UNL     1       2.505  -4.733  -3.512  0.00  0.00    +0.077 A 
ATOM     25  C   UNL     1       6.150  -6.796  -3.625  0.00  0.00    +0.052 C 
ATOM     26  C   UNL     1       6.107  -3.735  -3.839  0.00  0.00    +0.045 C 
BRANCH  24  27
ATOM     27  N   UNL     1       1.164  -4.350  -3.439  0.00  0.00    -0.275 N 
ATOM     28  C   UNL     1       0.196  -5.287  -3.416  0.00  0.00    +0.255 C 
ATOM     29  O   UNL     1       0.492  -6.467  -3.366  0.00  0.00    -0.269 OA
ATOM     30  H   UNL     1       0.929  -3.409  -3.405  0.00  0.00    +0.156 HD
BRANCH  28  31
ATOM     31  C   UNL     1      -1.213  -4.886  -3.452  0.00  0.00    +0.074 A 
ATOM     32  C   UNL     1      -2.349  -5.674  -3.339  0.00  0.00    +0.021 A 
ATOM     33  C   UNL     1      -3.548  -5.006  -3.411  0.00  0.00    +0.008 A 
ATOM     34  C   UNL     1      -3.544  -3.661  -3.581  0.00  0.00    +0.046 A 
ATOM     35  S   UNL     1      -1.914  -3.259  -3.643  0.00  0.00    -0.092 S 
ENDBRANCH  28  31
ENDBRANCH  24  27
ENDBRANCH   1  20
TORSDOF 6
