REMARK  Name = ZINC08768217
REMARK  8 active torsions:
REMARK  status: ('A' for Active; 'I' for Inactive)
REMARK    1  A    between atoms: C_1  and  C_2
REMARK    2  A    between atoms: C_2  and  C_3
REMARK    3  A    between atoms: C_2  and  C_4
REMARK    4  A    between atoms: C_4  and  C_5
REMARK    5  A    between atoms: C_5  and  C_7
REMARK    6  A    between atoms: C_5  and  N_15
REMARK    7  A    between atoms: N_9  and  C_10
REMARK    8  A    between atoms: C_16  and  C_18
REMARK                            x       y       z     vdW  Elec       q    Type
REMARK                         _______ _______ _______ _____ _____    ______ ____
ROOT
ATOM      1  N   UNL     1       2.407   1.043  -0.015  0.00  0.00    -0.305 N 
ATOM      2  C   UNL     1       3.606   1.423   0.469  0.00  0.00    +0.200 C 
ATOM      3  O   UNL     1       3.752   2.540   0.917  0.00  0.00    -0.278 OA
ATOM      4  H   UNL     1       2.289   0.149  -0.374  0.00  0.00    +0.149 HD
ENDROOT
BRANCH   2   5
ATOM      5  C   UNL     1       4.764   0.459   0.452  0.00  0.00    +0.021 C 
ATOM      6  C   UNL     1       5.384   0.425  -0.945  0.00  0.00    +0.028 C 
ATOM      7  C   UNL     1       6.682  -0.341  -0.914  0.00  0.00    -0.047 A 
ATOM      8  C   UNL     1       7.215  -0.789  -2.113  0.00  0.00    +0.004 A 
ATOM      9  C   UNL     1       8.404  -1.490  -2.129  0.00  0.00    +0.000 A 
ATOM     10  C   UNL     1       9.067  -1.748  -0.944  0.00  0.00    +0.000 A 
ATOM     11  C   UNL     1       8.536  -1.304   0.251  0.00  0.00    +0.002 A 
ATOM     12  C   UNL     1       7.340  -0.601   0.269  0.00  0.00    -0.061 A 
ATOM     13  C   UNL     1       6.797  -0.145   1.598  0.00  0.00    -0.045 C 
ATOM     14  N   UNL     1       5.791   0.909   1.411  0.00  0.00    +0.389 N 
ATOM     15  H   UNL     1       5.346   1.119   2.312  0.00  0.00    -0.084 HD
ATOM     16  H   UNL     1       6.247   1.755   1.049  0.00  0.00    -0.084 HD
ENDBRANCH   2   5
BRANCH   1  17
ATOM     17  C   UNL     1       1.280   1.980   0.001  0.00  0.00    +0.159 C 
BRANCH  17  18
ATOM     18  C   UNL     1      -0.014   1.209   0.009  0.00  0.00    +0.234 C 
ATOM     19  O   UNL     1       0.002  -0.004   0.002  0.00  0.00    -0.274 OA
ATOM     20  N   UNL     1      -1.191   1.867   0.018  0.00  0.00    -0.311 N 
ATOM     21  H   UNL     1      -1.204   2.837   0.023  0.00  0.00    +0.149 HD
BRANCH  20  22
ATOM     22  C   UNL     1      -2.449   1.117   0.020  0.00  0.00    +0.073 C 
ATOM     23  C   UNL     1      -2.873   0.791  -1.427  0.00  0.00    +0.022 C 
ATOM     24  C   UNL     1      -4.416   0.929  -1.411  0.00  0.00    +0.002 C 
ATOM     25  C   UNL     1      -4.641   2.143  -0.476  0.00  0.00    +0.002 C 
ATOM     26  C   UNL     1      -3.573   1.976   0.625  0.00  0.00    +0.022 C 
ENDBRANCH  20  22
ENDBRANCH  17  18
BRANCH  17  27
ATOM     27  C   UNL     1       1.337   2.867  -1.245  0.00  0.00    +0.034 C 
BRANCH  27  29
ATOM     28  C   UNL     1       2.715   4.537  -2.491  0.00  0.00    +0.007 C 
ATOM     29  C   UNL     1       2.592   3.741  -1.191  0.00  0.00    -0.015 C 
ATOM     30  C   UNL     1       2.489   4.708  -0.009  0.00  0.00    +0.007 C 
ENDBRANCH  27  29
ENDBRANCH  17  27
ENDBRANCH   1  17
TORSDOF 6
