REMARK  Name = ZINC35397197
REMARK  7 active torsions:
REMARK  status: ('A' for Active; 'I' for Inactive)
REMARK    1  A    between atoms: C_1  and  C_2
REMARK    2  A    between atoms: C_3  and  N_9
REMARK    3  A    between atoms: C_10  and  C_12
REMARK    4  A    between atoms: C_12  and  S_13
REMARK    5  A    between atoms: S_13  and  C_14
REMARK    6  A    between atoms: N_19  and  C_22
REMARK    7  A    between atoms: C_24  and  C_25
REMARK                            x       y       z     vdW  Elec       q    Type
REMARK                         _______ _______ _______ _____ _____    ______ ____
ROOT
ATOM      1  C   UNL     1       0.424  -0.023  -7.682  0.00  0.00    +0.120 C 
ATOM      2  N   UNL     1       0.412   1.278  -7.668  0.00  0.00    -0.246 NA
ATOM      3  C   UNL     1       0.520   1.728  -9.058  0.00  0.00    +0.150 C 
ATOM      4  C   UNL     1      -0.711   2.549  -9.443  0.00  0.00    +0.035 C 
ATOM      5  C   UNL     1      -0.551   3.056 -10.878  0.00  0.00    -0.075 C 
ATOM      6  N   UNL     1       0.655   3.888 -10.974  0.00  0.00    +0.378 N 
ATOM      7  C   UNL     1       1.845   3.078 -10.685  0.00  0.00    -0.075 C 
ATOM      8  C   UNL     1       1.782   2.571  -9.242  0.00  0.00    +0.035 C 
ATOM      9  C   UNL     1       0.760   4.441 -12.331  0.00  0.00    -0.096 C 
ATOM     10  N   UNL     1       0.597   0.520  -9.883  0.00  0.00    -0.251 NA
ATOM     11  C   UNL     1       0.547  -0.500  -9.079  0.00  0.00    +0.100 C 
ATOM     12  H   UNL     1       0.595   4.644 -10.309  0.00  0.00    -0.082 HD
ENDROOT
BRANCH  11  13
ATOM     13  C   UNL     1       0.600  -1.920  -9.495  0.00  0.00    +0.003 A 
ATOM     14  C   UNL     1       0.201  -2.289 -10.781  0.00  0.00    +0.011 A 
ATOM     15  C   UNL     1       0.253  -3.613 -11.163  0.00  0.00    +0.016 A 
ATOM     16  C   UNL     1       0.700  -4.576 -10.274  0.00  0.00    +0.018 A 
ATOM     17  C   UNL     1       1.097  -4.216  -8.997  0.00  0.00    +0.016 A 
ATOM     18  C   UNL     1       1.055  -2.894  -8.606  0.00  0.00    +0.011 A 
ATOM     19 BR   UNL     1       0.768  -6.389 -10.806  0.00  0.00    -0.050 Br
ENDBRANCH  11  13
BRANCH   1  20
ATOM     20  S   UNL     1       0.320  -1.057  -6.259  0.00  0.00    -0.095 S 
BRANCH  20  21
ATOM     21  C   UNL     1       0.189   0.111  -4.877  0.00  0.00    +0.172 C 
BRANCH  21  23
ATOM     22  N   UNL     1      -0.014   0.011  -2.413  0.00  0.00    -0.285 N 
ATOM     23  C   UNL     1       0.091  -0.653  -3.581  0.00  0.00    +0.227 C 
ATOM     24  O   UNL     1       0.108  -1.866  -3.590  0.00  0.00    -0.275 OA
ATOM     25  H   UNL     1      -0.108   0.977  -2.412  0.00  0.00    +0.155 HD
BRANCH  22  28
ATOM     26  C   UNL     1      -1.269   1.190  -0.147  0.00  0.00    +0.047 C 
ATOM     27  C   UNL     1      -0.589  -0.153  -0.073  0.00  0.00    -0.011 A 
ATOM     28  C   UNL     1       0.011  -0.692  -1.204  0.00  0.00    +0.038 A 
ATOM     29  C   UNL     1       0.637  -1.929  -1.132  0.00  0.00    +0.023 A 
ATOM     30  C   UNL     1       0.660  -2.622   0.064  0.00  0.00    +0.003 A 
ATOM     31  C   UNL     1       0.062  -2.084   1.188  0.00  0.00    +0.020 A 
ATOM     32  C   UNL     1      -0.557  -0.848   1.121  0.00  0.00    +0.046 A 
ATOM     33 CL   UNL     1      -1.301  -0.172   2.537  0.00  0.00    -0.083 Cl
ENDBRANCH  22  28
ENDBRANCH  21  23
ENDBRANCH  20  21
ENDBRANCH   1  20
TORSDOF 5
