REMARK  Name = ZINC35718489
REMARK  8 active torsions:
REMARK  status: ('A' for Active; 'I' for Inactive)
REMARK    1  A    between atoms: C_1  and  C_2
REMARK    2  A    between atoms: C_2  and  C_4
REMARK    3  A    between atoms: C_2  and  N_15
REMARK    4  A    between atoms: N_6  and  C_7
REMARK    5  A    between atoms: C_10  and  N_14
REMARK    6  A    between atoms: N_15  and  C_16
REMARK    7  A    between atoms: N_15  and  C_17
REMARK    8  A    between atoms: C_17  and  C_18
REMARK                            x       y       z     vdW  Elec       q    Type
REMARK                         _______ _______ _______ _____ _____    ______ ____
ROOT
ATOM      1  C   UNL     1      -1.437  -0.210  -0.314  0.00  0.00    +0.203 C 
ATOM      2  O   UNL     1      -1.789  -0.789  -1.320  0.00  0.00    -0.277 OA
ATOM      3  N   UNL     1      -2.344   0.122   0.626  0.00  0.00    -0.286 N 
ATOM      4  H   UNL     1      -2.076   0.651   1.394  0.00  0.00    +0.155 HD
ENDROOT
BRANCH   3   5
ATOM      5  C   UNL     1      -3.675  -0.297   0.494  0.00  0.00    +0.052 A 
ATOM      6  C   UNL     1      -4.249  -0.400  -0.766  0.00  0.00    +0.026 A 
ATOM      7  C   UNL     1      -5.560  -0.812  -0.897  0.00  0.00    +0.024 A 
ATOM      8  C   UNL     1      -6.306  -1.124   0.233  0.00  0.00    +0.026 A 
ATOM      9  C   UNL     1      -5.733  -1.022   1.493  0.00  0.00    +0.044 A 
ATOM     10  C   UNL     1      -4.419  -0.614   1.624  0.00  0.00    +0.064 A 
ATOM     11 CL   UNL     1      -3.700  -0.492   3.199  0.00  0.00    -0.082 Cl
BRANCH   8  12
ATOM     12  N   UNL     1      -7.635  -1.541   0.100  0.00  0.00    -0.358 N 
ATOM     13  H   UNL     1      -8.035  -1.613  -0.781  0.00  0.00    +0.142 HD
ATOM     14  H   UNL     1      -8.156  -1.759   0.889  0.00  0.00    +0.142 HD
ENDBRANCH   8  12
ENDBRANCH   3   5
BRANCH   1  16
ATOM     15  C   UNL     1       0.213   1.641  -0.311  0.00  0.00    -0.004 C 
ATOM     16  C   UNL     1       0.016   0.137  -0.114  0.00  0.00    +0.016 C 
BRANCH  16  17
ATOM     17  N   UNL     1       0.833  -0.596  -1.090  0.00  0.00    +0.388 N 
ATOM     18  C   UNL     1       2.232  -0.159  -0.985  0.00  0.00    -0.095 C 
ATOM     19  H   UNL     1       0.492  -0.410  -2.022  0.00  0.00    -0.081 HD
BRANCH  17  20
ATOM     20  C   UNL     1       0.749  -2.037  -0.816  0.00  0.00    -0.042 C 
BRANCH  20  21
ATOM     21  C   UNL     1       1.482  -2.796  -1.891  0.00  0.00    -0.057 A 
ATOM     22  C   UNL     1       0.822  -3.209  -3.034  0.00  0.00    +0.009 A 
ATOM     23  C   UNL     1       1.511  -3.890  -3.981  0.00  0.00    +0.045 A 
ATOM     24  S   UNL     1       3.145  -3.967  -3.266  0.00  0.00    -0.105 S 
ATOM     25  C   UNL     1       2.801  -3.081  -1.755  0.00  0.00    +0.047 A 
ENDBRANCH  20  21
ENDBRANCH  17  20
ENDBRANCH  16  17
ENDBRANCH   1  16
TORSDOF 6
