REMARK  Name = ZINC02980016
REMARK  8 active torsions:
REMARK  status: ('A' for Active; 'I' for Inactive)
REMARK    1  A    between atoms: C_4  and  C_7
REMARK    2  A    between atoms: C_7  and  C_8
REMARK    3  A    between atoms: C_8  and  N_50
REMARK    4  A    between atoms: C_9  and  C_10
REMARK    5  A    between atoms: C_9  and  N_50
REMARK    6  A    between atoms: C_10  and  C_12
REMARK    7  A    between atoms: C_10  and  O_27
REMARK    8  A    between atoms: C_12  and  N_13
REMARK                            x       y       z     vdW  Elec       q    Type
REMARK                         _______ _______ _______ _____ _____    ______ ____
ROOT
ATOM      1  C   UNL     1       0.088   1.022   4.902  0.00  0.00    +0.115 C 
ENDROOT
BRANCH   1   2
ATOM      2  O   UNL     1       0.107  -0.406   4.873  0.00  0.00    -0.392 OA
ATOM      3  H   UNL     1      -0.771  -0.811   4.892  0.00  0.00    +0.210 HD
ENDBRANCH   1   2
BRANCH   1   4
ATOM      4  C   UNL     1      -0.679   1.548   3.687  0.00  0.00    -0.049 C 
BRANCH   4   5
ATOM      5  N   UNL     1      -0.009   1.087   2.457  0.00  0.00    +0.381 N 
ATOM      6  H   UNL     1       0.954   1.442   2.442  0.00  0.00    -0.086 HD
ATOM      7  H   UNL     1       0.004   0.060   2.443  0.00  0.00    -0.086 HD
BRANCH   5   8
ATOM      8  C   UNL     1      -0.729   1.579   1.267  0.00  0.00    -0.078 C 
BRANCH   8   9
ATOM      9  C   UNL     1      -0.013   1.086   0.008  0.00  0.00    +0.016 C 
BRANCH   9  13
ATOM     10  C   UNL     1      -2.079   2.501  -3.453  0.00  0.00    +0.000 A 
ATOM     11  C   UNL     1      -1.066   3.259  -2.894  0.00  0.00    +0.000 A 
ATOM     12  C   UNL     1      -0.398   2.801  -1.774  0.00  0.00    +0.003 A 
ATOM     13  C   UNL     1      -0.742   1.585  -1.213  0.00  0.00    -0.049 A 
ATOM     14  C   UNL     1      -1.750   0.825  -1.775  0.00  0.00    +0.003 A 
ATOM     15  C   UNL     1      -2.422   1.285  -2.892  0.00  0.00    +0.000 A 
ENDBRANCH   9  13
ENDBRANCH   8   9
ENDBRANCH   5   8
ENDBRANCH   4   5
ENDBRANCH   1   4
BRANCH   1  16
ATOM     16  C   UNL     1      -0.600   1.497   6.184  0.00  0.00    +0.140 C 
BRANCH  16  17
ATOM     17  N   UNL     1       0.199   1.095   7.345  0.00  0.00    -0.296 N 
ATOM     18  C   UNL     1      -0.051  -0.143   7.946  0.00  0.00    +0.048 A 
ATOM     19  C   UNL     1      -1.343  -0.626   8.050  0.00  0.00    +0.024 A 
ATOM     20  C   UNL     1      -1.578  -1.853   8.645  0.00  0.00    +0.002 A 
ATOM     21  C   UNL     1      -0.528  -2.607   9.134  0.00  0.00    +0.001 A 
ATOM     22  C   UNL     1       0.771  -2.137   9.031  0.00  0.00    +0.017 A 
ATOM     23  C   UNL     1       1.011  -0.912   8.438  0.00  0.00    +0.034 A 
ATOM     24  S   UNL     1       2.656  -0.287   8.291  0.00  0.00    -0.086 S 
ATOM     25  C   UNL     1       2.397   1.460   8.303  0.00  0.00    +0.034 A 
ATOM     26  C   UNL     1       1.185   1.964   7.824  0.00  0.00    +0.048 A 
ATOM     27  C   UNL     1       0.970   3.333   7.828  0.00  0.00    +0.024 A 
ATOM     28  C   UNL     1       1.950   4.186   8.305  0.00  0.00    +0.002 A 
ATOM     29  C   UNL     1       3.147   3.683   8.777  0.00  0.00    +0.001 A 
ATOM     30  C   UNL     1       3.373   2.316   8.778  0.00  0.00    +0.017 A 
ENDBRANCH  16  17
ENDBRANCH   1  16
TORSDOF 8
