REMARK  Name = ZINC39552536
REMARK  5 active torsions:
REMARK  status: ('A' for Active; 'I' for Inactive)
REMARK    1  A    between atoms: C_6  and  C_11
REMARK    2  A    between atoms: N_13  and  C_14
REMARK    3  A    between atoms: C_14  and  C_15
REMARK    4  A    between atoms: N_20  and  C_22
REMARK    5  A    between atoms: C_22  and  C_23
REMARK                            x       y       z     vdW  Elec       q    Type
REMARK                         _______ _______ _______ _____ _____    ______ ____
ROOT
ATOM      1  C   UNL     1      -8.563  -2.138   0.114  0.00  0.00    -0.011 C 
ATOM      2  C   UNL     1      -8.230  -2.667   1.511  0.00  0.00    +0.001 C 
ATOM      3  C   UNL     1      -8.820  -4.072   1.668  0.00  0.00    -0.018 C 
ATOM      4  C   UNL     1     -10.328  -4.018   1.412  0.00  0.00    -0.079 C 
ATOM      5  N   UNL     1     -10.579  -3.529   0.051  0.00  0.00    +0.382 N 
ATOM      6  C   UNL     1     -10.080  -2.155  -0.086  0.00  0.00    -0.074 C 
ATOM      7  H   UNL     1     -10.106  -4.125  -0.612  0.00  0.00    -0.082 HD
ENDROOT
BRANCH   1   8
ATOM      8  C   UNL     1      -8.046  -0.704  -0.026  0.00  0.00    +0.106 C 
BRANCH   8  11
ATOM      9  C   UNL     1      -5.904   0.456  -0.052  0.00  0.00    +0.260 C 
ATOM     10  O   UNL     1      -6.506   1.502  -0.204  0.00  0.00    -0.269 OA
ATOM     11  N   UNL     1      -6.583  -0.704   0.048  0.00  0.00    -0.310 N 
ATOM     12  H   UNL     1      -6.103  -1.538   0.169  0.00  0.00    +0.149 HD
BRANCH   9  18
ATOM     13  C   UNL     1       0.092   1.102   0.176  0.00  0.00    +0.001 A 
ATOM     14  C   UNL     1       0.069  -0.278   0.335  0.00  0.00    +0.002 A 
ATOM     15  C   UNL     1      -1.126  -0.963   0.354  0.00  0.00    +0.026 A 
ATOM     16  C   UNL     1      -2.324  -0.269   0.213  0.00  0.00    +0.047 A 
ATOM     17  N   UNL     1      -3.641  -0.660   0.192  0.00  0.00    -0.351 N 
ATOM     18  C   UNL     1      -4.435   0.457   0.022  0.00  0.00    +0.103 A 
ATOM     19  H   UNL     1      -3.961  -1.572   0.282  0.00  0.00    +0.166 HD
ATOM     20  C   UNL     1      -3.643   1.557  -0.065  0.00  0.00    +0.040 A 
ATOM     21  C   UNL     1      -2.298   1.131   0.052  0.00  0.00    +0.000 A 
ATOM     22  C   UNL     1      -1.070   1.805   0.041  0.00  0.00    +0.010 A 
ENDBRANCH   9  18
ENDBRANCH   8  11
ENDBRANCH   1   8
BRANCH   5  23
ATOM     23  C   UNL     1     -12.023  -3.553  -0.217  0.00  0.00    -0.045 C 
BRANCH  23  24
ATOM     24  C   UNL     1     -12.470  -4.993  -0.477  0.00  0.00    +0.117 C 
ATOM     25  N   UNL     1     -12.150  -5.860   0.665  0.00  0.00    -0.333 N 
ATOM     26  C   UNL     1     -11.267  -6.915   0.445  0.00  0.00    +0.042 A 
ATOM     27  C   UNL     1     -10.844  -7.845   1.413  0.00  0.00    +0.024 A 
ATOM     28  C   UNL     1      -9.966  -8.854   1.095  0.00  0.00    +0.002 A 
ATOM     29  C   UNL     1      -9.467  -8.990  -0.188  0.00  0.00    +0.001 A 
ATOM     30  C   UNL     1      -9.866  -8.089  -1.161  0.00  0.00    +0.016 A 
ATOM     31  C   UNL     1     -10.745  -7.079  -0.842  0.00  0.00    +0.030 A 
ATOM     32  S   UNL     1     -11.465  -5.767  -1.806  0.00  0.00    -0.103 S 
ATOM     33  H   UNL     1     -12.539  -5.703   1.540  0.00  0.00    +0.147 HD
ENDBRANCH  23  24
ENDBRANCH   5  23
TORSDOF 5
