REMARK  Name = ZINC67620348
REMARK  12 active torsions:
REMARK  status: ('A' for Active; 'I' for Inactive)
REMARK    1  A    between atoms: C_1  and  C_2
REMARK    2  A    between atoms: C_5  and  C_29
REMARK    3  A    between atoms: N_8  and  C_10
REMARK    4  A    between atoms: C_10  and  C_11
REMARK    5  A    between atoms: C_11  and  C_12
REMARK    6  A    between atoms: C_12  and  N_13
REMARK    7  A    between atoms: N_16  and  C_17
REMARK    8  A    between atoms: C_17  and  C_18
REMARK    9  A    between atoms: C_18  and  C_20
REMARK   10  A    between atoms: C_18  and  O_28
REMARK   11  A    between atoms: C_20  and  N_21
REMARK   12  A    between atoms: C_24  and  C_27
REMARK                            x       y       z     vdW  Elec       q    Type
REMARK                         _______ _______ _______ _____ _____    ______ ____
ROOT
ATOM      1  N   UNL     1       5.198  -2.115   3.294  0.00  0.00    -0.299 N 
ATOM      2  C   UNL     1       6.100  -2.446   4.238  0.00  0.00    +0.300 C 
ATOM      3  O   UNL     1       5.755  -3.090   5.210  0.00  0.00    -0.253 OA
ATOM      4  N   UNL     1       7.386  -2.065   4.106  0.00  0.00    -0.297 N 
ATOM      5  H   UNL     1       5.474  -1.601   2.519  0.00  0.00    +0.150 HD
ATOM      6  H   UNL     1       7.662  -1.551   3.330  0.00  0.00    +0.150 HD
ENDROOT
BRANCH   1   7
ATOM      7  C   UNL     1       3.800  -2.529   3.438  0.00  0.00    +0.104 C 
BRANCH   7   8
ATOM      8  C   UNL     1       2.993  -2.028   2.239  0.00  0.00    +0.000 C 
BRANCH   8   9
ATOM      9  C   UNL     1       1.534  -2.461   2.390  0.00  0.00    -0.077 C 
BRANCH   9  15
ATOM     10  C   UNL     1      -0.019   1.526   0.010  0.00  0.00    +0.005 C 
ATOM     11  C   UNL     1       0.002  -0.004   0.002  0.00  0.00    -0.031 C 
ATOM     12  C   UNL     1      -1.434  -0.535   0.015  0.00  0.00    +0.003 C 
ATOM     13  C   UNL     1      -1.402  -2.064   0.086  0.00  0.00    -0.031 C 
ATOM     14  C   UNL     1      -0.613  -2.496   1.324  0.00  0.00    -0.076 C 
ATOM     15  N   UNL     1       0.758  -1.980   1.239  0.00  0.00    +0.380 N 
ATOM     16  C   UNL     1       0.740  -0.512   1.242  0.00  0.00    -0.076 C 
ATOM     17  C   UNL     1      -2.832  -2.602   0.177  0.00  0.00    +0.005 C 
ATOM     18  H   UNL     1       1.188  -2.307   0.386  0.00  0.00    -0.082 HD
ENDBRANCH   9  15
ENDBRANCH   8   9
ENDBRANCH   7   8
ENDBRANCH   1   7
BRANCH   4  19
ATOM     19  C   UNL     1       8.367  -2.425   5.132  0.00  0.00    +0.135 C 
BRANCH  19  20
ATOM     20  C   UNL     1       9.740  -1.875   4.742  0.00  0.00    +0.115 C 
BRANCH  20  21
ATOM     21  O   UNL     1      10.137  -2.431   3.487  0.00  0.00    -0.392 OA
ATOM     22  H   UNL     1      10.207  -3.395   3.489  0.00  0.00    +0.210 HD
ENDBRANCH  20  21
BRANCH  20  23
ATOM     23  C   UNL     1      10.764  -2.251   5.814  0.00  0.00    -0.046 C 
BRANCH  23  24
ATOM     24  N   UNL     1      12.055  -1.622   5.501  0.00  0.00    +0.381 N 
ATOM     25  C   UNL     1      11.917  -0.163   5.579  0.00  0.00    -0.078 C 
ATOM     26  C   UNL     1      13.236   0.499   5.175  0.00  0.00    -0.016 C 
ATOM     27  C   UNL     1      14.345   0.038   6.125  0.00  0.00    -0.018 C 
ATOM     28  C   UNL     1      14.429  -1.491   6.092  0.00  0.00    -0.016 C 
ATOM     29  C   UNL     1      13.066  -2.079   6.462  0.00  0.00    -0.078 C 
ATOM     30  C   UNL     1      15.682   0.634   5.680  0.00  0.00    +0.007 C 
ATOM     31  H   UNL     1      12.337  -1.882   4.568  0.00  0.00    -0.082 HD
ENDBRANCH  23  24
ENDBRANCH  20  23
ENDBRANCH  19  20
ENDBRANCH   4  19
TORSDOF 9
