REMARK  Name = ZINC40711249
REMARK  7 active torsions:
REMARK  status: ('A' for Active; 'I' for Inactive)
REMARK    1  A    between atoms: C_3  and  O_9
REMARK    2  A    between atoms: C_6  and  C_7
REMARK    3  A    between atoms: C_7  and  O_8
REMARK    4  A    between atoms: O_9  and  C_10
REMARK    5  A    between atoms: C_15  and  C_16
REMARK    6  A    between atoms: C_16  and  N_17
REMARK    7  A    between atoms: N_17  and  C_18
REMARK                            x       y       z     vdW  Elec       q    Type
REMARK                         _______ _______ _______ _____ _____    ______ ____
ROOT
ATOM      1  C   UNL     1       4.708   1.401   0.069  0.00  0.00    +0.131 A 
ATOM      2  C   UNL     1       4.683   0.014   0.054  0.00  0.00    +0.061 A 
ATOM      3  C   UNL     1       5.864  -0.698   0.146  0.00  0.00    +0.021 A 
ATOM      4  C   UNL     1       7.070  -0.029   0.252  0.00  0.00    +0.016 A 
ATOM      5  C   UNL     1       7.097   1.353   0.267  0.00  0.00    +0.006 A 
ATOM      6  C   UNL     1       5.920   2.070   0.169  0.00  0.00    -0.022 A 
ATOM      7 BR   UNL     1       5.832  -2.589   0.127  0.00  0.00    -0.050 Br
ENDROOT
BRANCH   1   8
ATOM      8  O   UNL     1       3.548   2.103  -0.021  0.00  0.00    -0.456 OA
BRANCH   8  11
ATOM      9  C   UNL     1       0.796   0.057   1.192  0.00  0.00    +0.009 A 
ATOM     10  C   UNL     1       1.985   0.759   1.166  0.00  0.00    +0.046 A 
ATOM     11  C   UNL     1       2.379   1.411   0.007  0.00  0.00    +0.128 A 
ATOM     12  C   UNL     1       1.578   1.355  -1.125  0.00  0.00    +0.046 A 
ATOM     13  C   UNL     1       0.390   0.651  -1.094  0.00  0.00    +0.009 A 
ATOM     14  C   UNL     1      -0.001   0.003   0.063  0.00  0.00    -0.022 A 
BRANCH  14  15
ATOM     15  C   UNL     1      -1.297  -0.765   0.093  0.00  0.00    +0.191 C 
BRANCH  15  16
ATOM     16  O   UNL     1      -2.355   0.102   0.507  0.00  0.00    -0.390 OA
ATOM     17  H   UNL     1      -3.221  -0.326   0.550  0.00  0.00    +0.210 HD
ENDBRANCH  15  16
ENDBRANCH  14  15
ENDBRANCH   8  11
ENDBRANCH   1   8
BRANCH   6  18
ATOM     18  C   UNL     1       5.951   3.576   0.179  0.00  0.00    -0.043 C 
BRANCH  18  19
ATOM     19  N   UNL     1       5.612   4.064   1.522  0.00  0.00    +0.384 N 
ATOM     20  H   UNL     1       4.688   3.745   1.773  0.00  0.00    -0.085 HD
ATOM     21  H   UNL     1       6.282   3.710   2.188  0.00  0.00    -0.085 HD
BRANCH  19  22
ATOM     22  C   UNL     1       5.642   5.533   1.532  0.00  0.00    -0.072 C 
ATOM     23  C   UNL     1       6.681   6.213   2.426  0.00  0.00    -0.017 C 
ATOM     24  C   UNL     1       5.202   6.241   2.815  0.00  0.00    -0.017 C 
ENDBRANCH  19  22
ENDBRANCH  18  19
ENDBRANCH   6  18
TORSDOF 7
