REMARK  Name = ZINC39531700
REMARK  6 active torsions:
REMARK  status: ('A' for Active; 'I' for Inactive)
REMARK    1  A    between atoms: C_1  and  C_2
REMARK    2  A    between atoms: C_5  and  C_8
REMARK    3  A    between atoms: C_8  and  C_10
REMARK    4  A    between atoms: C_8  and  N_13
REMARK    5  A    between atoms: C_10  and  N_11
REMARK    6  A    between atoms: C_17  and  O_20
REMARK                            x       y       z     vdW  Elec       q    Type
REMARK                         _______ _______ _______ _____ _____    ______ ____
ROOT
ATOM      1  C   UNL     1       0.044  -4.276  -0.010  0.00  0.00    +0.101 C 
ENDROOT
BRANCH   1   2
ATOM      2  N   UNL     1       0.900  -4.849   1.037  0.00  0.00    -0.295 NA
ATOM      3  C   UNL     1       2.227  -4.216   1.038  0.00  0.00    +0.066 C 
ATOM      4  C   UNL     1       3.065  -4.798   2.178  0.00  0.00    -0.063 C 
ATOM      5  N   UNL     1       3.196  -6.250   1.999  0.00  0.00    +0.398 N 
ATOM      6  C   UNL     1       1.865  -6.870   2.025  0.00  0.00    +0.073 C 
ATOM      7  C   UNL     1       1.017  -6.306   0.883  0.00  0.00    +0.096 C 
ATOM      8  H   UNL     1       3.639  -6.440   1.112  0.00  0.00    -0.082 HD
ATOM      9  H   UNL     1       3.760  -6.631   2.744  0.00  0.00    -0.082 HD
BRANCH   6  10
ATOM     10  O   UNL     1       1.996  -8.284   1.867  0.00  0.00    -0.409 OA
ATOM     11  H   UNL     1       2.523  -8.710   2.558  0.00  0.00    +0.207 HD
ENDBRANCH   6  10
ENDBRANCH   1   2
BRANCH   1  16
ATOM     12  C   UNL     1      -0.596   1.393   0.910  0.00  0.00    +0.044 C 
ATOM     13  C   UNL     1      -0.428  -0.085   0.670  0.00  0.00    -0.050 A 
ATOM     14  C   UNL     1      -0.261  -0.562  -0.617  0.00  0.00    +0.003 A 
ATOM     15  C   UNL     1      -0.107  -1.918  -0.837  0.00  0.00    +0.005 A 
ATOM     16  C   UNL     1      -0.122  -2.798   0.230  0.00  0.00    -0.029 A 
ATOM     17  C   UNL     1      -0.289  -2.321   1.516  0.00  0.00    +0.005 A 
ATOM     18  C   UNL     1      -0.438  -0.964   1.737  0.00  0.00    +0.003 A 
ENDBRANCH   1  16
BRANCH   1  19
ATOM     19  C   UNL     1      -1.326  -4.955   0.023  0.00  0.00    +0.117 C 
BRANCH  19  20
ATOM     20  N   UNL     1      -2.154  -4.442  -1.077  0.00  0.00    -0.254 NA
ATOM     21 BR   UNL     1      -3.874  -5.116  -0.982  0.00  0.00    +0.010 Br
ATOM     22  H   UNL     1      -1.734  -4.646  -1.971  0.00  0.00    +0.135 HD
ENDBRANCH  19  20
ENDBRANCH   1  19
TORSDOF 5
