REMARK  Name = ZINC40570220
REMARK  9 active torsions:
REMARK  status: ('A' for Active; 'I' for Inactive)
REMARK    1  A    between atoms: C_1  and  C_2
REMARK    2  A    between atoms: C_7  and  O_8
REMARK    3  A    between atoms: O_8  and  C_9
REMARK    4  A    between atoms: C_9  and  C_11
REMARK    5  A    between atoms: C_12  and  N_33
REMARK    6  A    between atoms: C_14  and  C_25
REMARK    7  A    between atoms: N_22  and  C_24
REMARK    8  A    between atoms: C_30  and  O_31
REMARK    9  A    between atoms: O_31  and  C_32
REMARK                            x       y       z     vdW  Elec       q    Type
REMARK                         _______ _______ _______ _____ _____    ______ ____
ROOT
ATOM      1  C   UNL     1      -0.167  -0.096   4.766  0.00  0.00    +0.120 A 
ATOM      2  C   UNL     1      -0.256  -0.656   6.025  0.00  0.00    +0.056 A 
ATOM      3  C   UNL     1      -0.360   0.233   7.168  0.00  0.00    +0.037 A 
ATOM      4  C   UNL     1      -0.465  -0.098   8.551  0.00  0.00    +0.000 A 
ATOM      5  C   UNL     1      -0.555   0.927   9.490  0.00  0.00    -0.034 A 
ATOM      6  C   UNL     1      -0.540   2.244   9.076  0.00  0.00    +0.043 A 
ATOM      7  N   UNL     1      -0.445   2.539   7.788  0.00  0.00    -0.244 NA
ATOM      8  C   UNL     1      -0.358   1.612   6.861  0.00  0.00    +0.112 A 
ATOM      9  S   UNL     1      -0.214   1.655   5.091  0.00  0.00    -0.060 S 
ATOM     10  C   UNL     1      -0.628   3.378  10.066  0.00  0.00    +0.037 C 
ATOM     11  C   UNL     1      -1.132   2.855  11.411  0.00  0.00    -0.073 C 
ATOM     12  N   UNL     1      -0.314   1.695  11.798  0.00  0.00    +0.381 N 
ATOM     13  C   UNL     1      -0.669   0.556  10.946  0.00  0.00    -0.041 C 
ATOM     14  C   UNL     1      -0.575   1.357  13.204  0.00  0.00    -0.096 C 
ATOM     15  H   UNL     1       0.663   1.915  11.678  0.00  0.00    -0.082 HD
ENDROOT
BRANCH   4  16
ATOM     16  C   UNL     1      -0.479  -1.514   8.983  0.00  0.00    +0.025 A 
ATOM     17  C   UNL     1       0.717  -2.165   9.289  0.00  0.00    +0.012 A 
ATOM     18  C   UNL     1       0.698  -3.484   9.691  0.00  0.00    +0.001 A 
ATOM     19  C   UNL     1      -0.503  -4.165   9.793  0.00  0.00    +0.004 A 
ATOM     20  C   UNL     1      -1.693  -3.531   9.493  0.00  0.00    +0.046 A 
ATOM     21  C   UNL     1      -1.691  -2.204   9.093  0.00  0.00    +0.128 A 
BRANCH  21  22
ATOM     22  O   UNL     1      -2.861  -1.578   8.803  0.00  0.00    -0.495 OA
ATOM     23  C   UNL     1      -4.058  -2.346   8.938  0.00  0.00    +0.277 C 
ENDBRANCH  21  22
ENDBRANCH   4  16
BRANCH   2  24
ATOM     24  N   UNL     1      -0.247  -2.033   6.193  0.00  0.00    -0.356 N 
ATOM     25  H   UNL     1      -0.177  -2.616   5.421  0.00  0.00    +0.142 HD
ATOM     26  H   UNL     1      -0.311  -2.413   7.083  0.00  0.00    +0.142 HD
ENDBRANCH   2  24
BRANCH   1  27
ATOM     27  C   UNL     1      -0.059  -0.754   3.519  0.00  0.00    +0.353 C 
ATOM     28  O   UNL     1      -0.041  -1.970   3.473  0.00  0.00    -0.244 OA
BRANCH  27  29
ATOM     29  O   UNL     1       0.025  -0.033   2.381  0.00  0.00    -0.422 OA
BRANCH  29  36
ATOM     30  C   UNL     1       2.507  -0.975   1.415  0.00  0.00    +0.047 C 
ATOM     31  C   UNL     1       1.212  -1.190   0.674  0.00  0.00    -0.008 A 
ATOM     32  C   UNL     1       1.207  -1.877  -0.524  0.00  0.00    +0.007 A 
ATOM     33  C   UNL     1       0.019  -2.076  -1.204  0.00  0.00    +0.000 A 
ATOM     34  C   UNL     1      -1.167  -1.588  -0.685  0.00  0.00    +0.004 A 
ATOM     35  C   UNL     1      -1.167  -0.900   0.513  0.00  0.00    +0.046 A 
ATOM     36  C   UNL     1       0.023  -0.705   1.199  0.00  0.00    +0.135 A 
ENDBRANCH  29  36
ENDBRANCH  27  29
ENDBRANCH   1  27
TORSDOF 6
