REMARK  Name = ZINC04688755
REMARK  13 active torsions:
REMARK  status: ('A' for Active; 'I' for Inactive)
REMARK    1  A    between atoms: C_1  and  C_2
REMARK    2  A    between atoms: C_2  and  C_3
REMARK    3  A    between atoms: C_3  and  C_4
REMARK    4  A    between atoms: C_4  and  N_5
REMARK    5  A    between atoms: N_5  and  C_6
REMARK    6  A    between atoms: N_5  and  C_10
REMARK    7  A    between atoms: C_6  and  C_7
REMARK    8  A    between atoms: C_7  and  C_8
REMARK    9  A    between atoms: C_8  and  C_9
REMARK   10  A    between atoms: C_10  and  C_11
REMARK   11  A    between atoms: C_14  and  C_16
REMARK   12  A    between atoms: N_18  and  N_19
REMARK   13  A    between atoms: N_22  and  C_23
REMARK                            x       y       z     vdW  Elec       q    Type
REMARK                         _______ _______ _______ _____ _____    ______ ____
ROOT
ATOM      1  C   UNL     1       0.417  -5.043   3.635  0.00  0.00    +0.295 C 
ATOM      2  O   UNL     1       0.408  -5.204   4.841  0.00  0.00    -0.265 OA
ATOM      3  N   UNL     1       1.571  -5.160   2.948  0.00  0.00    -0.227 N 
ATOM      4  H   UNL     1       1.579  -5.031   1.987  0.00  0.00    +0.173 HD
ENDROOT
BRANCH   3   5
ATOM      5  N   UNL     1       2.760  -5.468   3.624  0.00  0.00    -0.218 N 
ATOM      6  C   UNL     1       3.914  -5.586   2.937  0.00  0.00    +0.320 C 
ATOM      7  O   UNL     1       4.945  -5.854   3.523  0.00  0.00    -0.251 OA
ATOM      8  N   UNL     1       3.925  -5.407   1.601  0.00  0.00    -0.268 N 
ATOM      9  H   UNL     1       2.752  -5.597   4.585  0.00  0.00    +0.174 HD
ATOM     10  H   UNL     1       3.119  -5.120   1.144  0.00  0.00    +0.156 HD
BRANCH   8  11
ATOM     11  C   UNL     1       5.099  -5.636   0.874  0.00  0.00    +0.035 A 
ATOM     12  C   UNL     1       5.396  -4.851  -0.232  0.00  0.00    +0.025 A 
ATOM     13  C   UNL     1       6.555  -5.078  -0.947  0.00  0.00    +0.022 A 
ATOM     14  C   UNL     1       7.420  -6.088  -0.564  0.00  0.00    +0.041 A 
ATOM     15  C   UNL     1       7.125  -6.873   0.538  0.00  0.00    +0.022 A 
ATOM     16  C   UNL     1       5.971  -6.645   1.261  0.00  0.00    +0.025 A 
ATOM     17 CL   UNL     1       8.875  -6.372  -1.465  0.00  0.00    -0.084 Cl
ENDBRANCH   8  11
ENDBRANCH   3   5
BRANCH   1  21
ATOM     18  C   UNL     1      -2.234  -4.244   1.313  0.00  0.00    +0.090 A 
ATOM     19  C   UNL     1      -2.951  -4.269   2.458  0.00  0.00    +0.043 A 
ATOM     20  C   UNL     1      -2.058  -4.572   3.498  0.00  0.00    +0.055 A 
ATOM     21  C   UNL     1      -0.826  -4.720   2.928  0.00  0.00    +0.191 A 
ATOM     22  O   UNL     1      -0.955  -4.522   1.600  0.00  0.00    -0.457 OA
BRANCH  18  23
ATOM     23  C   UNL     1      -2.783  -3.958  -0.060  0.00  0.00    -0.003 C 
BRANCH  23  24
ATOM     24  N   UNL     1      -2.709  -2.515  -0.327  0.00  0.00    +0.384 N 
ATOM     25  H   UNL     1      -3.183  -2.013   0.409  0.00  0.00    -0.081 HD
BRANCH  24  26
ATOM     26  C   UNL     1      -1.301  -2.098  -0.376  0.00  0.00    -0.078 C 
BRANCH  26  27
ATOM     27  C   UNL     1      -1.225  -0.576  -0.508  0.00  0.00    -0.019 C 
BRANCH  27  29
ATOM     28  C   UNL     1       0.313   1.393  -0.561  0.00  0.00    +0.004 C 
ATOM     29  C   UNL     1       0.237  -0.130  -0.430  0.00  0.00    -0.005 C 
ENDBRANCH  27  29
ENDBRANCH  26  27
ENDBRANCH  24  26
BRANCH  24  30
ATOM     30  C   UNL     1      -3.353  -2.221  -1.614  0.00  0.00    -0.078 C 
BRANCH  30  31
ATOM     31  C   UNL     1      -4.850  -2.521  -1.515  0.00  0.00    -0.019 C 
BRANCH  31  32
ATOM     32  C   UNL     1      -5.542  -2.094  -2.812  0.00  0.00    -0.005 C 
ATOM     33  C   UNL     1      -7.039  -2.393  -2.713  0.00  0.00    +0.004 C 
ENDBRANCH  31  32
ENDBRANCH  30  31
ENDBRANCH  24  30
ENDBRANCH  23  24
ENDBRANCH  18  23
ENDBRANCH   1  21
TORSDOF 11
