REMARK  Name = ZINC51044964
REMARK  6 active torsions:
REMARK  status: ('A' for Active; 'I' for Inactive)
REMARK    1  A    between atoms: C_1  and  C_2
REMARK    2  A    between atoms: C_2  and  C_4
REMARK    3  A    between atoms: C_2  and  N_16
REMARK    4  A    between atoms: C_10  and  C_13
REMARK    5  A    between atoms: C_20  and  C_23
REMARK    6  A    between atoms: N_25  and  C_26
REMARK                            x       y       z     vdW  Elec       q    Type
REMARK                         _______ _______ _______ _____ _____    ______ ____
ROOT
ATOM      1  C   UNL     1      -0.063   1.484   0.011  0.00  0.00    -0.004 C 
ATOM      2  C   UNL     1       0.009  -0.043   0.083  0.00  0.00    +0.016 C 
ENDROOT
BRANCH   2   3
ATOM      3  C   UNL     1       0.622  -0.456   1.396  0.00  0.00    +0.202 C 
ATOM      4  O   UNL     1      -0.091  -0.782   2.322  0.00  0.00    -0.277 OA
ATOM      5  N   UNL     1       1.961  -0.464   1.541  0.00  0.00    -0.302 N 
ATOM      6  C   UNL     1       2.840  -0.170   0.401  0.00  0.00    +0.108 C 
ATOM      7  C   UNL     1       3.801   0.955   0.797  0.00  0.00    +0.020 C 
ATOM      8  C   UNL     1       4.543   0.561   2.076  0.00  0.00    +0.016 C 
ATOM      9  C   UNL     1       3.535   0.364   3.212  0.00  0.00    +0.092 C 
ATOM     10  C   UNL     1       2.571  -0.761   2.845  0.00  0.00    +0.120 C 
BRANCH   9  11
ATOM     11  C   UNL     1       4.269   0.008   4.479  0.00  0.00    +0.215 C 
ATOM     12  O   UNL     1       4.042  -1.045   5.035  0.00  0.00    -0.276 OA
ATOM     13  N   UNL     1       5.177   0.861   4.994  0.00  0.00    -0.329 N 
ATOM     14  H   UNL     1       5.359   1.703   4.549  0.00  0.00    +0.145 HD
ATOM     15  H   UNL     1       5.650   0.631   5.809  0.00  0.00    +0.145 HD
ENDBRANCH   9  11
ENDBRANCH   2   3
BRANCH   2  16
ATOM     16  N   UNL     1      -1.346  -0.602  -0.023  0.00  0.00    +0.388 N 
ATOM     17  C   UNL     1      -1.267  -2.068  -0.056  0.00  0.00    -0.078 C 
ATOM     18  C   UNL     1      -2.679  -2.657  -0.084  0.00  0.00    -0.018 C 
ATOM     19  C   UNL     1      -3.410  -2.156  -1.333  0.00  0.00    +0.009 C 
ATOM     20  C   UNL     1      -3.421  -0.625  -1.326  0.00  0.00    +0.058 C 
ATOM     21  C   UNL     1      -1.982  -0.110  -1.251  0.00  0.00    -0.065 C 
ATOM     22  H   UNL     1      -1.891  -0.314   0.775  0.00  0.00    -0.081 HD
BRANCH  20  23
ATOM     23  C   UNL     1      -4.072  -0.120  -2.588  0.00  0.00    +0.215 C 
ATOM     24  O   UNL     1      -3.448   0.585  -3.352  0.00  0.00    -0.276 OA
ATOM     25  N   UNL     1      -5.348  -0.453  -2.868  0.00  0.00    -0.312 N 
ATOM     26  H   UNL     1      -5.847  -1.018  -2.257  0.00  0.00    +0.149 HD
BRANCH  25  27
ATOM     27  C   UNL     1      -5.980   0.037  -4.095  0.00  0.00    +0.073 C 
ATOM     28  C   UNL     1      -7.413   0.564  -3.989  0.00  0.00    +0.024 C 
ATOM     29  C   UNL     1      -7.140  -0.781  -4.667  0.00  0.00    +0.024 C 
ENDBRANCH  25  27
ENDBRANCH  20  23
ENDBRANCH   2  16
TORSDOF 5
