REMARK  Name = ZINC05516240
REMARK  10 active torsions:
REMARK  status: ('A' for Active; 'I' for Inactive)
REMARK    1  A    between atoms: C_1  and  C_2
REMARK    2  A    between atoms: C_4  and  C_25
REMARK    3  A    between atoms: C_5  and  S_9
REMARK    4  A    between atoms: C_6  and  C_8
REMARK    5  A    between atoms: S_9  and  N_12
REMARK    6  A    between atoms: N_12  and  C_13
REMARK    7  A    between atoms: C_15  and  S_21
REMARK    8  A    between atoms: C_16  and  O_20
REMARK    9  A    between atoms: C_18  and  C_19
REMARK   10  A    between atoms: S_21  and  C_22
REMARK                            x       y       z     vdW  Elec       q    Type
REMARK                         _______ _______ _______ _____ _____    ______ ____
ROOT
ATOM      1  C   UNL     1       4.708  -0.296  -1.057  0.00  0.00    +0.052 A 
ATOM      2  C   UNL     1       3.932   0.405  -1.970  0.00  0.00    +0.043 A 
ATOM      3  C   UNL     1       4.530   1.309  -2.835  0.00  0.00    +0.058 A 
ATOM      4  C   UNL     1       5.910   1.502  -2.793  0.00  0.00    +0.131 A 
ATOM      5  C   UNL     1       6.680   0.796  -1.885  0.00  0.00    +0.051 A 
ATOM      6  C   UNL     1       6.082  -0.100  -1.018  0.00  0.00    -0.025 A 
ATOM      7  C   UNL     1       6.924  -0.867  -0.030  0.00  0.00    +0.046 C 
ENDROOT
BRANCH   1   8
ATOM      8  N   UNL     1       4.106  -1.204  -0.179  0.00  0.00    -0.216 N 
ATOM      9  H   UNL     1       4.076  -2.274  -0.430  0.00  0.00    +0.174 HD
BRANCH   8  10
ATOM     10  S   UNL     1       3.438  -0.667   1.238  0.00  0.00    +0.073 S 
ATOM     11  O   UNL     1       4.415   0.157   1.861  0.00  0.00    -0.150 OA
ATOM     12  O   UNL     1       2.879  -1.804   1.881  0.00  0.00    -0.150 OA
BRANCH  10  17
ATOM     13  C   UNL     1      -1.180   2.936  -0.211  0.00  0.00    +0.044 C 
ATOM     14  C   UNL     1      -0.025   2.036   0.146  0.00  0.00    -0.050 A 
ATOM     15  C   UNL     1      -0.229   0.676   0.293  0.00  0.00    +0.008 A 
ATOM     16  C   UNL     1       0.829  -0.149   0.627  0.00  0.00    -0.023 A 
ATOM     17  C   UNL     1       2.090   0.385   0.813  0.00  0.00    +0.114 A 
ATOM     18  C   UNL     1       2.294   1.745   0.666  0.00  0.00    -0.023 A 
ATOM     19  C   UNL     1       1.236   2.570   0.332  0.00  0.00    +0.008 A 
ATOM     20  C   UNL     1       3.669   2.327   0.869  0.00  0.00    +0.046 C 
ATOM     21  C   UNL     1       0.607  -1.631   0.787  0.00  0.00    +0.046 C 
ENDBRANCH  10  17
ENDBRANCH   8  10
ENDBRANCH   1   8
BRANCH   4  22
ATOM     22  O   UNL     1       6.500   2.384  -3.645  0.00  0.00    -0.506 OA
ATOM     23  H   UNL     1       7.588   2.537  -3.612  0.00  0.00    +0.292 HD
ENDBRANCH   4  22
BRANCH   3  24
ATOM     24  S   UNL     1       3.548   2.206  -3.991  0.00  0.00    -0.053 S 
BRANCH  24  25
ATOM     25  C   UNL     1       3.967   1.354  -5.475  0.00  0.00    +0.127 C 
ATOM     26  N   UNL     1       4.727   0.295  -5.427  0.00  0.00    -0.382 N 
ATOM     27  N   UNL     1       3.492   1.805  -6.685  0.00  0.00    -0.339 N 
ATOM     28  H   UNL     1       4.989  -0.237  -6.353  0.00  0.00    +0.158 HD
ATOM     29  H   UNL     1       3.754   1.273  -7.611  0.00  0.00    +0.144 HD
ATOM     30  H   UNL     1       2.851   2.698  -6.725  0.00  0.00    +0.144 HD
ATOM     31  H   UNL     1       5.107  -0.066  -4.459  0.00  0.00    +0.158 HD
ENDBRANCH  24  25
ENDBRANCH   3  24
TORSDOF 6
