REMARK  Name = ZINC15935618
REMARK  9 active torsions:
REMARK  status: ('A' for Active; 'I' for Inactive)
REMARK    1  A    between atoms: C_1  and  C_2
REMARK    2  A    between atoms: C_4  and  C_25
REMARK    3  A    between atoms: C_6  and  N_8
REMARK    4  A    between atoms: C_9  and  C_11
REMARK    5  A    between atoms: C_11  and  C_12
REMARK    6  A    between atoms: C_12  and  N_13
REMARK    7  A    between atoms: N_13  and  S_14
REMARK    8  A    between atoms: S_14  and  C_17
REMARK    9  A    between atoms: C_22  and  N_23
REMARK                            x       y       z     vdW  Elec       q    Type
REMARK                         _______ _______ _______ _____ _____    ______ ____
ROOT
ATOM      1  N   UNL     1       0.443  -2.772   7.398  0.00  0.00    -0.189 NA
ATOM      2  H   UNL     1       0.275  -3.722   7.501  0.00  0.00    +0.148 HD
ENDROOT
BRANCH   1   3
ATOM      3  S   UNL     1       0.875  -1.861   8.711  0.00  0.00    +0.062 S 
ATOM      4  O   UNL     1       0.864  -2.733   9.833  0.00  0.00    -0.153 OA
ATOM      5  O   UNL     1       2.029  -1.123   8.331  0.00  0.00    -0.153 OA
BRANCH   3   6
ATOM      6  C   UNL     1      -0.410  -0.684   8.974  0.00  0.00    +0.146 A 
ATOM      7  C   UNL     1      -0.159   0.670   8.841  0.00  0.00    +0.048 A 
ATOM      8  C   UNL     1      -1.201   1.562   9.058  0.00  0.00    +0.038 A 
ATOM      9  C   UNL     1      -2.449   1.074   9.398  0.00  0.00    +0.128 A 
ATOM     10  N   UNL     1      -2.658  -0.223   9.517  0.00  0.00    -0.238 NA
ATOM     11  C   UNL     1      -1.692  -1.105   9.313  0.00  0.00    +0.143 A 
ATOM     12 BR   UNL     1      -0.916   3.424   8.892  0.00  0.00    -0.049 Br
BRANCH  11  13
ATOM     13  N   UNL     1      -1.959  -2.463   9.443  0.00  0.00    -0.342 N 
ATOM     14  H   UNL     1      -1.240  -3.109   9.361  0.00  0.00    +0.144 HD
ATOM     15  H   UNL     1      -2.865  -2.764   9.617  0.00  0.00    +0.144 HD
ENDBRANCH  11  13
ENDBRANCH   3   6
ENDBRANCH   1   3
BRANCH   1  16
ATOM     16  C   UNL     1       0.313  -2.145   6.080  0.00  0.00    +0.115 C 
BRANCH  16  17
ATOM     17  C   UNL     1       0.294  -3.227   4.999  0.00  0.00    +0.113 C 
BRANCH  17  19
ATOM     18  N   UNL     1       0.122  -3.345   2.535  0.00  0.00    -0.285 N 
ATOM     19  C   UNL     1       0.160  -2.582   3.644  0.00  0.00    +0.218 C 
ATOM     20  O   UNL     1       0.088  -1.374   3.552  0.00  0.00    -0.275 OA
ATOM     21  H   UNL     1       0.103  -4.312   2.612  0.00  0.00    +0.155 HD
BRANCH  18  27
ATOM     22  C   UNL     1      -1.339  -3.392  -2.159  0.00  0.00    +0.044 C 
ATOM     23  C   UNL     1      -0.592  -2.745  -1.022  0.00  0.00    -0.048 A 
ATOM     24  C   UNL     1       0.083  -1.555  -1.227  0.00  0.00    +0.006 A 
ATOM     25  C   UNL     1       0.769  -0.958  -0.186  0.00  0.00    -0.048 A 
ATOM     26  C   UNL     1       0.784  -1.549   1.062  0.00  0.00    +0.026 A 
ATOM     27  C   UNL     1       0.108  -2.744   1.271  0.00  0.00    +0.034 A 
ATOM     28  C   UNL     1      -0.585  -3.338   0.225  0.00  0.00    +0.026 A 
ATOM     29  C   UNL     1       1.503   0.338  -0.414  0.00  0.00    +0.044 C 
ENDBRANCH  18  27
ENDBRANCH  17  19
ENDBRANCH  16  17
ENDBRANCH   1  16
TORSDOF 7
