REMARK  Name = ZINC22803929
REMARK  7 active torsions:
REMARK  status: ('A' for Active; 'I' for Inactive)
REMARK    1  A    between atoms: C_1  and  C_2
REMARK    2  A    between atoms: C_8  and  C_10
REMARK    3  A    between atoms: C_10  and  C_12
REMARK    4  A    between atoms: C_10  and  N_19
REMARK    5  A    between atoms: N_22  and  C_25
REMARK    6  A    between atoms: C_25  and  C_26
REMARK    7  A    between atoms: C_25  and  C_32
REMARK                            x       y       z     vdW  Elec       q    Type
REMARK                         _______ _______ _______ _____ _____    ______ ____
ROOT
ATOM      1  N   UNL     1       4.956   4.284   0.880  0.00  0.00    +0.389 N 
ATOM      2  C   UNL     1       6.269   4.926   0.731  0.00  0.00    -0.062 C 
ATOM      3  C   UNL     1       6.446   5.979   1.827  0.00  0.00    +0.067 C 
ATOM      4  N   UNL     1       6.322   5.338   3.144  0.00  0.00    -0.295 NA
ATOM      5  C   UNL     1       5.009   4.696   3.292  0.00  0.00    +0.067 C 
ATOM      6  C   UNL     1       4.832   3.642   2.196  0.00  0.00    -0.062 C 
ATOM      7  H   UNL     1       4.185   5.065   0.809  0.00  0.00    -0.080 HD
ENDROOT
BRANCH   1   8
ATOM      8  C   UNL     1       4.717   3.317  -0.201  0.00  0.00    +0.009 C 
BRANCH   8  16
ATOM      9  C   UNL     1      -1.653  -0.536   0.252  0.00  0.00    +0.090 C 
ATOM     10  C   UNL     1      -0.455   0.376   0.190  0.00  0.00    +0.150 A 
ATOM     11  N   UNL     1      -0.481   1.696   0.356  0.00  0.00    -0.205 NA
ATOM     12  C   UNL     1       0.729   2.171   0.238  0.00  0.00    +0.199 A 
ATOM     13  N   UNL     1       1.596   1.152  -0.013  0.00  0.00    -0.170 N 
ATOM     14  N   UNL     1       0.774  -0.005  -0.035  0.00  0.00    -0.147 NA
ATOM     15  C   UNL     1       2.922   1.477  -0.166  0.00  0.00    +0.282 A 
ATOM     16  C   UNL     1       3.328   2.749  -0.069  0.00  0.00    +0.050 A 
ATOM     17  S   UNL     1       1.789   3.596   0.259  0.00  0.00    -0.050 S 
ATOM     18  O   UNL     1       3.832   0.498  -0.418  0.00  0.00    -0.265 OA
ENDBRANCH   8  16
BRANCH   8  19
ATOM     19  C   UNL     1       4.852   4.010  -1.532  0.00  0.00    -0.021 A 
ATOM     20  C   UNL     1       4.744   5.386  -1.610  0.00  0.00    +0.005 A 
ATOM     21  C   UNL     1       4.868   6.021  -2.832  0.00  0.00    +0.000 A 
ATOM     22  C   UNL     1       5.101   5.281  -3.977  0.00  0.00    +0.003 A 
ATOM     23  C   UNL     1       5.209   3.906  -3.901  0.00  0.00    +0.038 A 
ATOM     24  C   UNL     1       5.090   3.269  -2.677  0.00  0.00    +0.125 A 
ATOM     25  F   UNL     1       5.201   1.924  -2.602  0.00  0.00    -0.205 F 
ENDBRANCH   8  19
ENDBRANCH   1   8
BRANCH   4  26
ATOM     26  C   UNL     1       6.561   6.304   4.224  0.00  0.00    +0.117 C 
BRANCH  26  27
ATOM     27  C   UNL     1       6.452   5.606   5.556  0.00  0.00    -0.026 A 
ATOM     28  C   UNL     1       7.042   4.369   5.737  0.00  0.00    +0.005 A 
ATOM     29  C   UNL     1       6.946   3.731   6.960  0.00  0.00    +0.000 A 
ATOM     30  C   UNL     1       6.252   4.325   7.997  0.00  0.00    +0.000 A 
ATOM     31  C   UNL     1       5.658   5.560   7.814  0.00  0.00    +0.000 A 
ATOM     32  C   UNL     1       5.758   6.200   6.593  0.00  0.00    +0.005 A 
ENDBRANCH  26  27
BRANCH  26  33
ATOM     33  C   UNL     1       7.941   6.892   4.077  0.00  0.00    -0.026 A 
ATOM     34  C   UNL     1       9.015   6.071   3.792  0.00  0.00    +0.005 A 
ATOM     35  C   UNL     1      10.280   6.611   3.652  0.00  0.00    +0.000 A 
ATOM     36  C   UNL     1      10.472   7.971   3.807  0.00  0.00    +0.000 A 
ATOM     37  C   UNL     1       9.398   8.792   4.097  0.00  0.00    +0.000 A 
ATOM     38  C   UNL     1       8.133   8.252   4.232  0.00  0.00    +0.005 A 
ENDBRANCH  26  33
ENDBRANCH   4  26
TORSDOF 6
