REMARK  Name = ZINC02319885
REMARK  10 active torsions:
REMARK  status: ('A' for Active; 'I' for Inactive)
REMARK    1  A    between atoms: C_1  and  C_2
REMARK    2  A    between atoms: C_2  and  C_3
REMARK    3  A    between atoms: C_2  and  N_4
REMARK    4  A    between atoms: C_5  and  C_7
REMARK    5  A    between atoms: C_7  and  N_29
REMARK    6  A    between atoms: C_8  and  C_9
REMARK    7  A    between atoms: N_11  and  C_23
REMARK    8  A    between atoms: C_13  and  C_14
REMARK    9  A    between atoms: C_18  and  N_20
REMARK   10  A    between atoms: C_30  and  C_32
REMARK                            x       y       z     vdW  Elec       q    Type
REMARK                         _______ _______ _______ _____ _____    ______ ____
ROOT
ATOM      1  C   UNL     1       0.159  -1.461   6.182  0.00  0.00    +0.023 A 
ATOM      2  C   UNL     1       1.424  -1.669   6.696  0.00  0.00    +0.123 A 
ATOM      3  N   UNL     1       1.305  -1.843   8.026  0.00  0.00    -0.239 N 
ATOM      4  N   UNL     1      -0.041  -1.751   8.393  0.00  0.00    -0.166 NA
ATOM      5  C   UNL     1      -0.764  -1.517   7.321  0.00  0.00    +0.100 A 
ENDROOT
BRANCH   5   6
ATOM      6  C   UNL     1      -2.236  -1.345   7.271  0.00  0.00    +0.005 A 
ATOM      7  C   UNL     1      -2.807  -0.457   6.361  0.00  0.00    +0.010 A 
ATOM      8  C   UNL     1      -4.177  -0.302   6.319  0.00  0.00    +0.003 A 
ATOM      9  C   UNL     1      -4.984  -1.026   7.178  0.00  0.00    +0.033 A 
ATOM     10  C   UNL     1      -4.424  -1.908   8.084  0.00  0.00    +0.127 A 
ATOM     11  C   UNL     1      -3.055  -2.076   8.131  0.00  0.00    +0.042 A 
BRANCH  10  12
ATOM     12  N   UNL     1      -5.294  -2.678   9.000  0.00  0.00    +0.056 N 
ATOM     13  O   UNL     1      -6.494  -2.535   8.957  0.00  0.00    -0.126 OA
ATOM     14  O   UNL     1      -4.805  -3.450   9.793  0.00  0.00    -0.126 OA
ENDBRANCH  10  12
ENDBRANCH   5   6
BRANCH   3  15
ATOM     15  C   UNL     1       2.367  -2.081   8.908  0.00  0.00    +0.065 A 
ATOM     16  C   UNL     1       3.677  -2.033   8.448  0.00  0.00    +0.028 A 
ATOM     17  C   UNL     1       4.722  -2.268   9.320  0.00  0.00    +0.002 A 
ATOM     18  C   UNL     1       4.466  -2.550  10.649  0.00  0.00    +0.000 A 
ATOM     19  C   UNL     1       3.163  -2.599  11.110  0.00  0.00    +0.002 A 
ATOM     20  C   UNL     1       2.113  -2.359  10.244  0.00  0.00    +0.028 A 
ENDBRANCH   3  15
BRANCH   1  22
ATOM     21  C   UNL     1       0.730  -1.431   3.804  0.00  0.00    +0.097 C 
ATOM     22  C   UNL     1      -0.192  -1.226   4.775  0.00  0.00    +0.040 C 
BRANCH  21  24
ATOM     23  N   UNL     1       1.298  -1.376   1.434  0.00  0.00    -0.308 N 
ATOM     24  C   UNL     1       0.419  -1.085   2.413  0.00  0.00    +0.258 C 
ATOM     25  O   UNL     1      -0.632  -0.534   2.144  0.00  0.00    -0.269 OA
ATOM     26  H   UNL     1       2.161  -1.761   1.654  0.00  0.00    +0.149 HD
BRANCH  23  28
ATOM     27  C   UNL     1       1.277   0.343  -0.306  0.00  0.00    +0.027 C 
ATOM     28  C   UNL     1       0.950  -1.112   0.035  0.00  0.00    +0.067 C 
ATOM     29  C   UNL     1       1.755  -2.042  -0.875  0.00  0.00    +0.027 C 
ENDBRANCH  23  28
ENDBRANCH  21  24
BRANCH  21  30
ATOM     30  N   UNL     1       1.981  -1.974   4.128  0.00  0.00    -0.277 N 
ATOM     31  C   UNL     1       3.107  -1.290   3.843  0.00  0.00    +0.248 C 
ATOM     32  O   UNL     1       3.036  -0.166   3.384  0.00  0.00    -0.270 OA
ATOM     33  H   UNL     1       2.036  -2.842   4.557  0.00  0.00    +0.155 HD
BRANCH  31  34
ATOM     34  C   UNL     1       4.428  -1.905   4.090  0.00  0.00    +0.037 A 
ATOM     35  C   UNL     1       4.515  -3.236   4.503  0.00  0.00    +0.013 A 
ATOM     36  C   UNL     1       5.751  -3.804   4.731  0.00  0.00    +0.001 A 
ATOM     37  C   UNL     1       6.903  -3.059   4.551  0.00  0.00    +0.000 A 
ATOM     38  C   UNL     1       6.823  -1.740   4.141  0.00  0.00    +0.001 A 
ATOM     39  C   UNL     1       5.594  -1.161   3.904  0.00  0.00    +0.013 A 
ENDBRANCH  31  34
ENDBRANCH  21  30
ENDBRANCH   1  22
TORSDOF 8
