REMARK  Name = ZINC40571918
REMARK  5 active torsions:
REMARK  status: ('A' for Active; 'I' for Inactive)
REMARK    1  A    between atoms: C_1  and  C_2
REMARK    2  A    between atoms: C_7  and  N_10
REMARK    3  A    between atoms: N_13  and  CA_14
REMARK    4  A    between atoms: CA_14  and  CB_16
REMARK    5  A    between atoms: CA_14  and  C_17
REMARK                            x       y       z     vdW  Elec       q    Type
REMARK                         _______ _______ _______ _____ _____    ______ ____
ROOT
ATOM      1  N   UNK A   0       1.448  -2.513   0.028  0.00  0.00    -0.297 N 
ATOM      2  C   UNK A   0       2.034  -3.727   0.018  0.00  0.00    +0.300 C 
ATOM      3  O   UNK A   0       1.992  -4.431   1.008  0.00  0.00    -0.253 OA
ATOM      4  N   ALA A   1       2.664  -4.162  -1.091  0.00  0.00    -0.286 N 
ATOM      5  H   UNK A   0       1.482  -1.952  -0.763  0.00  0.00    +0.151 HD
ATOM      6  H   ALA A   1       2.697  -3.601  -1.882  0.00  0.00    +0.151 HD
ENDROOT
BRANCH   1  12
ATOM      7  C   UNK A   0      -0.019   1.526   0.010  0.00  0.00    +0.007 C 
ATOM      8  C   UNK A   0       0.002  -0.004   0.002  0.00  0.00    -0.012 C 
ATOM      9  C   UNK A   0      -1.433  -0.534   0.013  0.00  0.00    +0.003 C 
ATOM     10  C   UNK A   0      -1.413  -2.063   0.004  0.00  0.00    +0.002 C 
ATOM     11  C   UNK A   0      -0.673  -2.570   1.244  0.00  0.00    +0.022 C 
ATOM     12  C   UNK A   0       0.763  -2.041   1.233  0.00  0.00    +0.075 C 
ATOM     13  C   UNK A   0       0.742  -0.511   1.242  0.00  0.00    +0.025 C 
ENDBRANCH   1  12
BRANCH   4  14
ATOM     14  CA  ALA A   1       3.300  -5.482  -1.103  0.00  0.00    +0.184 C 
ATOM     15  CB  ALA A   1       2.260  -6.546  -1.455  0.00  0.00    +0.040 C 
BRANCH  14  16
ATOM     16  C   ALA A   1       4.404  -5.499  -2.129  0.00  0.00    +0.376 C 
ATOM     17  O   ALA A   1       4.637  -4.501  -2.790  0.00  0.00    -0.244 OA
ATOM     18  OXT ALA A   1       5.063  -6.510  -2.298  0.00  0.00    -0.244 OA
ENDBRANCH  14  16
ENDBRANCH   4  14
TORSDOF 3
