REMARK  Name = ZINC48212302
REMARK  8 active torsions:
REMARK  status: ('A' for Active; 'I' for Inactive)
REMARK    1  A    between atoms: C_1  and  C_2
REMARK    2  A    between atoms: C_2  and  N_3
REMARK    3  A    between atoms: C_6  and  N_9
REMARK    4  A    between atoms: C_12  and  N_15
REMARK    5  A    between atoms: C_17  and  C_20
REMARK    6  A    between atoms: C_20  and  C_21
REMARK    7  A    between atoms: C_20  and  C_22
REMARK    8  A    between atoms: C_20  and  N_23
REMARK                            x       y       z     vdW  Elec       q    Type
REMARK                         _______ _______ _______ _____ _____    ______ ____
ROOT
ATOM      1  N   UNL     1       3.182  -2.353  -4.045  0.00  0.00    +0.382 N 
ATOM      2  C   UNL     1       4.601  -1.982  -4.077  0.00  0.00    -0.076 C 
ATOM      3  C   UNL     1       5.180  -2.282  -5.462  0.00  0.00    +0.008 C 
ATOM      4  C   UNL     1       5.035  -3.777  -5.757  0.00  0.00    +0.105 C 
ATOM      5  C   UNL     1       3.558  -4.168  -5.648  0.00  0.00    +0.008 C 
ATOM      6  C   UNL     1       3.040  -3.798  -4.256  0.00  0.00    -0.076 C 
ATOM      7  H   UNL     1       2.690  -1.858  -4.774  0.00  0.00    -0.081 HD
ENDROOT
BRANCH   1  11
ATOM      8  N   UNL     1       0.690  -0.478  -1.207  0.00  0.00    -0.303 NA
ATOM      9  C   UNL     1       2.110  -0.104  -1.185  0.00  0.00    +0.083 C 
ATOM     10  C   UNL     1       2.759  -0.484  -2.518  0.00  0.00    +0.000 C 
ATOM     11  C   UNL     1       2.612  -1.991  -2.740  0.00  0.00    -0.066 C 
ATOM     12  C   UNL     1       1.127  -2.362  -2.710  0.00  0.00    +0.000 C 
ATOM     13  C   UNL     1       0.525  -1.928  -1.372  0.00  0.00    +0.083 C 
BRANCH   8  15
ATOM     14  C   UNL     1      -0.019   1.526   0.010  0.00  0.00    +0.020 C 
ATOM     15  C   UNL     1       0.002  -0.004   0.002  0.00  0.00    +0.081 C 
ENDBRANCH   8  15
ENDBRANCH   1  11
BRANCH   4  16
ATOM     16  N   UNL     1       5.517  -4.059  -7.111  0.00  0.00    -0.249 N 
ATOM     17  C   UNL     1       4.796  -3.938  -8.250  0.00  0.00    +0.132 A 
ATOM     18  C   UNL     1       5.624  -4.296  -9.260  0.00  0.00    +0.071 A 
ATOM     19  N   UNL     1       6.795  -4.614  -8.696  0.00  0.00    -0.136 NA
ATOM     20  N   UNL     1       6.700  -4.458  -7.423  0.00  0.00    -0.065 NA
BRANCH  18  21
ATOM     21  C   UNL     1       5.292  -4.331 -10.729  0.00  0.00    -0.030 C 
ATOM     22  C   UNL     1       6.518  -4.794 -11.518  0.00  0.00    -0.004 C 
ATOM     23  C   UNL     1       4.134  -5.303 -10.968  0.00  0.00    -0.004 C 
BRANCH  21  24
ATOM     24  N   UNL     1       4.902  -2.986 -11.175  0.00  0.00    +0.385 N 
ATOM     25  H   UNL     1       5.665  -2.346 -11.017  0.00  0.00    -0.089 HD
ATOM     26  H   UNL     1       4.680  -3.010 -12.159  0.00  0.00    -0.089 HD
ATOM     27  H   UNL     1       4.094  -2.681 -10.654  0.00  0.00    -0.089 HD
ENDBRANCH  21  24
ENDBRANCH  18  21
ENDBRANCH   4  16
TORSDOF 5
