REMARK  Name = ZINC13087779
REMARK  8 active torsions:
REMARK  status: ('A' for Active; 'I' for Inactive)
REMARK    1  A    between atoms: C_3  and  S_11
REMARK    2  A    between atoms: C_6  and  C_7
REMARK    3  A    between atoms: C_7  and  C_8
REMARK    4  A    between atoms: C_8  and  C_9
REMARK    5  A    between atoms: S_11  and  N_14
REMARK    6  A    between atoms: N_17  and  S_20
REMARK    7  A    between atoms: S_20  and  C_23
REMARK    8  A    between atoms: C_26  and  N_29
REMARK                            x       y       z     vdW  Elec       q    Type
REMARK                         _______ _______ _______ _____ _____    ______ ____
ROOT
ATOM      1  N   UNL     1       1.190  -2.498  -4.306  0.00  0.00    -0.174 NA
ATOM      2  C   UNL     1       2.459  -2.262  -3.603  0.00  0.00    +0.126 C 
ATOM      3  C   UNL     1       2.484  -3.123  -2.334  0.00  0.00    +0.126 C 
ATOM      4  N   UNL     1       1.223  -2.923  -1.606  0.00  0.00    -0.174 NA
ATOM      5  C   UNL     1      -0.046  -3.164  -2.307  0.00  0.00    +0.126 C 
ATOM      6  C   UNL     1      -0.070  -2.297  -3.578  0.00  0.00    +0.126 C 
ENDROOT
BRANCH   1   7
ATOM      7  S   UNL     1       1.181  -2.981  -5.890  0.00  0.00    +0.061 S 
ATOM      8  O   UNL     1      -0.075  -2.590  -6.426  0.00  0.00    -0.153 OA
ATOM      9  O   UNL     1       2.416  -2.556  -6.451  0.00  0.00    -0.153 OA
BRANCH   7  12
ATOM     10  C   UNL     1       0.036  -6.832  -5.894  0.00  0.00    +0.005 A 
ATOM     11  C   UNL     1       0.018  -5.450  -5.888  0.00  0.00    +0.029 A 
ATOM     12  C   UNL     1       1.205  -4.743  -5.897  0.00  0.00    +0.105 A 
ATOM     13  C   UNL     1       2.412  -5.418  -5.918  0.00  0.00    +0.029 A 
ATOM     14  C   UNL     1       2.430  -6.800  -5.919  0.00  0.00    +0.005 A 
ATOM     15  C   UNL     1       1.243  -7.507  -5.909  0.00  0.00    -0.047 A 
BRANCH  15  16
ATOM     16  C   UNL     1       1.263  -9.014  -5.914  0.00  0.00    +0.046 C 
BRANCH  16  17
ATOM     17  C   UNL     1       1.255  -9.519  -7.358  0.00  0.00    +0.130 C 
BRANCH  17  18
ATOM     18  C   UNL     1       1.275 -11.026  -7.364  0.00  0.00    +0.356 C 
ATOM     19  O   UNL     1       1.295 -11.634  -6.319  0.00  0.00    -0.246 OA
ATOM     20  O   UNL     1       1.272 -11.693  -8.528  0.00  0.00    -0.246 OA
ENDBRANCH  17  18
ENDBRANCH  16  17
ENDBRANCH  15  16
ENDBRANCH   7  12
ENDBRANCH   1   7
BRANCH   4  21
ATOM     21  S   UNL     1       1.232  -2.441  -0.022  0.00  0.00    +0.061 S 
ATOM     22  O   UNL     1       2.489  -2.832   0.515  0.00  0.00    -0.153 OA
ATOM     23  O   UNL     1      -0.002  -2.866   0.539  0.00  0.00    -0.153 OA
BRANCH  21  24
ATOM     24  C   UNL     1       1.208  -0.679  -0.013  0.00  0.00    +0.106 A 
ATOM     25  C   UNL     1       0.002  -0.004   0.002  0.00  0.00    +0.031 A 
ATOM     26  C   UNL     1      -0.017   1.378   0.010  0.00  0.00    +0.034 A 
ATOM     27  C   UNL     1       1.171   2.086   0.002  0.00  0.00    +0.126 A 
ATOM     28  C   UNL     1       2.377   1.411  -0.015  0.00  0.00    +0.034 A 
ATOM     29  C   UNL     1       2.396   0.029  -0.021  0.00  0.00    +0.031 A 
BRANCH  27  30
ATOM     30  N   UNL     1       1.151   3.566   0.010  0.00  0.00    +0.056 N 
ATOM     31  O   UNL     1       0.088   4.160   0.023  0.00  0.00    -0.126 OA
ATOM     32  O   UNL     1       2.197   4.189   0.003  0.00  0.00    -0.126 OA
ENDBRANCH  27  30
ENDBRANCH  21  24
ENDBRANCH   4  21
TORSDOF 8
