REMARK  Name = ZINC04999696
REMARK  7 active torsions:
REMARK  status: ('A' for Active; 'I' for Inactive)
REMARK    1  A    between atoms: C_3  and  O_16
REMARK    2  A    between atoms: C_4  and  C_8
REMARK    3  A    between atoms: C_8  and  N_38
REMARK    4  A    between atoms: C_9  and  C_10
REMARK    5  A    between atoms: C_9  and  N_38
REMARK    6  A    between atoms: O_16  and  C_17
REMARK    7  A    between atoms: C_17  and  C_18
REMARK                            x       y       z     vdW  Elec       q    Type
REMARK                         _______ _______ _______ _____ _____    ______ ____
ROOT
ATOM      1  C   UNL     1      -9.497   1.897  -0.015  0.00  0.00    +0.019 A 
ATOM      2  C   UNL     1      -8.857   2.692  -0.947  0.00  0.00    +0.047 A 
ATOM      3  C   UNL     1      -7.614   2.321  -1.437  0.00  0.00    +0.123 A 
ATOM      4  C   UNL     1      -7.020   1.146  -0.999  0.00  0.00    -0.022 A 
ATOM      5  C   UNL     1      -7.663   0.354  -0.068  0.00  0.00    +0.020 A 
ATOM      6  C   UNL     1      -8.901   0.729   0.424  0.00  0.00    +0.018 A 
ATOM      7 BR   UNL     1      -9.778  -0.357   1.699  0.00  0.00    -0.050 Br
ENDROOT
BRANCH   4   8
ATOM      8  C   UNL     1      -5.671   0.738  -1.533  0.00  0.00    -0.043 C 
BRANCH   8   9
ATOM      9  N   UNL     1      -4.622   1.500  -0.830  0.00  0.00    +0.383 N 
ATOM     10  H   UNL     1      -4.674   1.299   0.176  0.00  0.00    -0.085 HD
ATOM     11  H   UNL     1      -4.770   2.504  -0.986  0.00  0.00    -0.085 HD
BRANCH   9  12
ATOM     12  C   UNL     1      -3.289   1.120  -1.334  0.00  0.00    -0.050 C 
BRANCH  12  13
ATOM     13  C   UNL     1      -2.223   1.924  -0.587  0.00  0.00    +0.101 C 
ATOM     14  C   UNL     1      -0.833   1.634  -1.185  0.00  0.00    +0.032 C 
ATOM     15  C   UNL     1      -0.013   1.086   0.008  0.00  0.00    +0.030 C 
ATOM     16  C   UNL     1      -0.810   1.621   1.224  0.00  0.00    +0.160 C 
ATOM     17  O   UNL     1      -2.186   1.524   0.793  0.00  0.00    -0.378 OA
ENDBRANCH  12  13
ENDBRANCH   9  12
ENDBRANCH   8   9
ENDBRANCH   4   8
BRANCH   3  18
ATOM     18  O   UNL     1      -6.980   3.105  -2.348  0.00  0.00    -0.483 OA
BRANCH  18  19
ATOM     19  C   UNL     1      -7.651   4.300  -2.754  0.00  0.00    +0.324 C 
BRANCH  19  20
ATOM     20  C   UNL     1      -6.803   5.035  -3.761  0.00  0.00    +0.248 C 
ATOM     21  O   UNL     1      -5.731   4.580  -4.098  0.00  0.00    -0.272 OA
ATOM     22  N   UNL     1      -7.237   6.197  -4.287  0.00  0.00    -0.327 N 
ATOM     23  H   UNL     1      -8.095   6.561  -4.017  0.00  0.00    +0.145 HD
ATOM     24  H   UNL     1      -6.692   6.670  -4.934  0.00  0.00    +0.145 HD
ENDBRANCH  19  20
ENDBRANCH  18  19
ENDBRANCH   3  18
TORSDOF 7
