REMARK  Name = ZINC42360897
REMARK  6 active torsions:
REMARK  status: ('A' for Active; 'I' for Inactive)
REMARK    1  A    between atoms: C_1  and  N_2
REMARK    2  A    between atoms: N_2  and  C_3
REMARK    3  A    between atoms: N_2  and  S_10
REMARK    4  A    between atoms: C_3  and  C_4
REMARK    5  A    between atoms: S_10  and  C_13
REMARK    6  A    between atoms: C_17  and  N_19
REMARK                            x       y       z     vdW  Elec       q    Type
REMARK                         _______ _______ _______ _____ _____    ______ ____
ROOT
ATOM      1  S   UNL     1      -0.000  -0.824  -1.437  0.00  0.00    +0.061 S 
ATOM      2  O   UNL     1      -0.531  -2.115  -1.167  0.00  0.00    -0.153 OA
ATOM      3  O   UNL     1      -0.572   0.049  -2.401  0.00  0.00    -0.153 OA
ENDROOT
BRANCH   1   4
ATOM      4  C   UNL     1       1.682  -1.059  -1.905  0.00  0.00    +0.107 A 
ATOM      5  C   UNL     1       2.323  -0.108  -2.677  0.00  0.00    +0.028 A 
ATOM      6  C   UNL     1       3.643  -0.289  -3.048  0.00  0.00    +0.004 A 
ATOM      7  C   UNL     1       4.326  -1.421  -2.647  0.00  0.00    +0.023 A 
ATOM      8  C   UNL     1       3.685  -2.378  -1.871  0.00  0.00    +0.026 A 
ATOM      9  C   UNL     1       2.360  -2.191  -1.496  0.00  0.00    +0.051 A 
BRANCH   8  10
ATOM     10  N   UNL     1       4.372  -3.524  -1.464  0.00  0.00    -0.358 N 
ATOM     11  H   UNL     1       5.298  -3.651  -1.723  0.00  0.00    +0.142 HD
ATOM     12  H   UNL     1       3.923  -4.191  -0.921  0.00  0.00    +0.142 HD
ENDBRANCH   8  10
ENDBRANCH   1   4
BRANCH   1  14
ATOM     13  C   UNL     1      -0.018   1.461   0.010  0.00  0.00    +0.132 C 
ATOM     14  N   UNL     1       0.002  -0.004   0.002  0.00  0.00    -0.175 NA
BRANCH  14  15
ATOM     15  C   UNL     1       0.024  -0.743   1.267  0.00  0.00    +0.144 C 
BRANCH  15  16
ATOM     16  C   UNL     1      -1.384  -0.909   1.776  0.00  0.00    -0.024 A 
ATOM     17  C   UNL     1      -1.946   0.042   2.607  0.00  0.00    +0.028 A 
ATOM     18  C   UNL     1      -3.216  -0.138   3.048  0.00  0.00    +0.055 A 
ATOM     19  S   UNL     1      -3.656  -1.689   2.282  0.00  0.00    -0.090 S 
ATOM     20  C   UNL     1      -2.121  -1.990   1.422  0.00  0.00    +0.051 A 
ATOM     21 BR   UNL     1      -4.252   0.967   4.180  0.00  0.00    -0.043 Br
ENDBRANCH  15  16
ENDBRANCH  14  15
ENDBRANCH   1  14
TORSDOF 5
