REMARK  Name = ZINC47777600
REMARK  6 active torsions:
REMARK  status: ('A' for Active; 'I' for Inactive)
REMARK    1  A    between atoms: C_3  and  C_6
REMARK    2  A    between atoms: C_6  and  C_8
REMARK    3  A    between atoms: C_6  and  N_25
REMARK    4  A    between atoms: C_8  and  N_9
REMARK    5  A    between atoms: N_12  and  C_13
REMARK    6  A    between atoms: C_13  and  C_14
REMARK                            x       y       z     vdW  Elec       q    Type
REMARK                         _______ _______ _______ _____ _____    ______ ____
ROOT
ATOM      1  N   UNL     1       5.570   0.024  -1.358  0.00  0.00    -0.301 N 
ATOM      2  C   UNL     1       6.234  -0.409  -2.448  0.00  0.00    +0.300 C 
ATOM      3  O   UNL     1       5.633  -0.605  -3.487  0.00  0.00    -0.253 OA
ATOM      4  N   UNL     1       7.563  -0.626  -2.386  0.00  0.00    -0.295 N 
ATOM      5  H   UNL     1       6.049   0.180  -0.529  0.00  0.00    +0.150 HD
ATOM      6  H   UNL     1       8.041  -0.470  -1.557  0.00  0.00    +0.151 HD
ENDROOT
BRANCH   1   7
ATOM      7  C   UNL     1       4.126   0.260  -1.425  0.00  0.00    +0.098 C 
BRANCH   7   8
ATOM      8  C   UNL     1       3.602   0.617  -0.032  0.00  0.00    +0.016 C 
BRANCH   8   9
ATOM      9  N   UNL     1       3.975  -0.441   0.917  0.00  0.00    +0.387 N 
ATOM     10  C   UNL     1       3.460  -1.729   0.439  0.00  0.00    -0.078 C 
ATOM     11  C   UNL     1       3.914  -2.846   1.381  0.00  0.00    -0.019 C 
ATOM     12  C   UNL     1       3.374  -2.570   2.788  0.00  0.00    -0.004 C 
ATOM     13  C   UNL     1       3.857  -1.191   3.247  0.00  0.00    -0.019 C 
ATOM     14  C   UNL     1       3.405  -0.136   2.235  0.00  0.00    -0.078 C 
ATOM     15  H   UNL     1       4.980  -0.488   0.989  0.00  0.00    -0.081 HD
ENDBRANCH   8   9
BRANCH   8  18
ATOM     16  C   UNL     1       0.038   1.554  -0.081  0.00  0.00    +0.041 A 
ATOM     17  C   UNL     1       1.408   1.895   0.005  0.00  0.00    +0.043 A 
ATOM     18  C   UNL     1       2.102   0.746  -0.077  0.00  0.00    +0.093 A 
ATOM     19  O   UNL     1       1.230  -0.268  -0.207  0.00  0.00    -0.469 OA
ATOM     20  C   UNL     1      -0.023   0.217  -0.210  0.00  0.00    +0.195 A 
ENDBRANCH   8  18
ENDBRANCH   7   8
ENDBRANCH   1   7
BRANCH   4  21
ATOM     21  C   UNL     1       8.284  -1.097  -3.571  0.00  0.00    +0.142 C 
BRANCH  21  22
ATOM     22  C   UNL     1       9.745  -1.258  -3.239  0.00  0.00    -0.014 A 
ATOM     23  C   UNL     1      10.624  -0.197  -3.409  0.00  0.00    +0.010 A 
ATOM     24  C   UNL     1      11.957  -0.387  -3.092  0.00  0.00    +0.042 A 
ATOM     25  C   UNL     1      12.369  -1.628  -2.617  0.00  0.00    +0.099 A 
ATOM     26  N   UNL     1      11.500  -2.615  -2.469  0.00  0.00    -0.349 N 
ATOM     27  C   UNL     1      10.222  -2.461  -2.758  0.00  0.00    +0.089 A 
ATOM     28  N   UNL     1      13.706  -1.832  -2.296  0.00  0.00    -0.317 N 
ATOM     29  C   UNL     1      14.776  -0.830  -2.403  0.00  0.00    +0.106 C 
ATOM     30  C   UNL     1      16.089  -1.513  -1.965  0.00  0.00    +0.020 C 
ATOM     31  C   UNL     1      15.784  -3.020  -2.174  0.00  0.00    +0.020 C 
ATOM     32  C   UNL     1      14.284  -3.088  -1.784  0.00  0.00    +0.106 C 
ATOM     33  H   UNL     1      11.810  -3.472  -2.137  0.00  0.00    +0.167 HD
ENDBRANCH  21  22
ENDBRANCH   4  21
TORSDOF 6
