REMARK  Name = ZINC63127496
REMARK  6 active torsions:
REMARK  status: ('A' for Active; 'I' for Inactive)
REMARK    1  A    between atoms: C_7  and  C_20
REMARK    2  A    between atoms: N_10  and  C_11
REMARK    3  A    between atoms: C_11  and  C_12
REMARK    4  A    between atoms: C_15  and  O_19
REMARK    5  A    between atoms: C_20  and  C_21
REMARK    6  A    between atoms: C_21  and  N_22
REMARK                            x       y       z     vdW  Elec       q    Type
REMARK                         _______ _______ _______ _____ _____    ______ ____
ROOT
ATOM      1  C   UNL     1       0.214   1.465   0.160  0.00  0.00    +0.000 A 
ATOM      2  C   UNL     1       1.446   2.093   0.129  0.00  0.00    +0.002 A 
ATOM      3  C   UNL     1       2.603   1.347   0.051  0.00  0.00    +0.023 A 
ATOM      4  C   UNL     1       2.540  -0.048   0.005  0.00  0.00    +0.034 A 
ATOM      5  C   UNL     1       1.301  -0.666   0.037  0.00  0.00    -0.022 A 
ATOM      6  C   UNL     1       0.144   0.085   0.114  0.00  0.00    +0.006 A 
ATOM      7  C   UNL     1       1.509  -2.163  -0.024  0.00  0.00    +0.036 C 
ATOM      8  C   UNL     1       3.034  -2.338  -0.097  0.00  0.00    +0.113 C 
ATOM      9  N   UNL     1       3.578  -0.977  -0.073  0.00  0.00    -0.325 N 
ENDROOT
BRANCH   9  10
ATOM     10  C   UNL     1       5.003  -0.642  -0.125  0.00  0.00    +0.140 C 
BRANCH  10  11
ATOM     11  C   UNL     1       5.555  -0.577   1.276  0.00  0.00    -0.029 A 
ATOM     12  C   UNL     1       5.530   0.618   1.973  0.00  0.00    +0.009 A 
ATOM     13  C   UNL     1       6.035   0.681   3.257  0.00  0.00    +0.047 A 
ATOM     14  C   UNL     1       6.567  -0.455   3.849  0.00  0.00    +0.135 A 
ATOM     15  C   UNL     1       6.591  -1.653   3.148  0.00  0.00    +0.083 A 
ATOM     16  C   UNL     1       6.080  -1.712   1.865  0.00  0.00    +0.028 A 
ATOM     17 CL   UNL     1       7.257  -3.077   3.885  0.00  0.00    -0.080 Cl
BRANCH  14  18
ATOM     18  O   UNL     1       7.066  -0.394   5.112  0.00  0.00    -0.505 OA
ATOM     19  H   UNL     1       6.413  -0.582   5.801  0.00  0.00    +0.292 HD
ENDBRANCH  14  18
ENDBRANCH  10  11
ENDBRANCH   9  10
BRANCH   7  20
ATOM     20  C   UNL     1       0.952  -2.831   1.234  0.00  0.00    -0.010 C 
BRANCH  20  21
ATOM     21  C   UNL     1       1.048  -4.351   1.090  0.00  0.00    -0.086 C 
BRANCH  21  22
ATOM     22  N   UNL     1       0.403  -4.995   2.242  0.00  0.00    +0.378 N 
ATOM     23  H   UNL     1      -0.567  -4.721   2.281  0.00  0.00    -0.090 HD
ATOM     24  H   UNL     1       0.467  -5.997   2.147  0.00  0.00    -0.090 HD
ATOM     25  H   UNL     1       0.868  -4.708   3.091  0.00  0.00    -0.090 HD
ENDBRANCH  21  22
ENDBRANCH  20  21
ENDBRANCH   7  20
TORSDOF 6
