REMARK  Name = ZINC17013993
REMARK  7 active torsions:
REMARK  status: ('A' for Active; 'I' for Inactive)
REMARK    1  A    between atoms: C_1  and  C_2
REMARK    2  A    between atoms: C_4  and  N_26
REMARK    3  A    between atoms: N_8  and  C_9
REMARK    4  A    between atoms: C_12  and  N_15
REMARK    5  A    between atoms: N_15  and  S_16
REMARK    6  A    between atoms: S_16  and  C_19
REMARK    7  A    between atoms: N_26  and  C_27
REMARK                            x       y       z     vdW  Elec       q    Type
REMARK                         _______ _______ _______ _____ _____    ______ ____
ROOT
ATOM      1  C   UNL     1      -3.925   9.401  -0.157  0.00  0.00    +0.034 A 
ATOM      2  C   UNL     1      -5.185   8.839   0.001  0.00  0.00    +0.025 A 
ATOM      3  C   UNL     1      -6.307   9.643  -0.019  0.00  0.00    +0.026 A 
ATOM      4  C   UNL     1      -6.176  11.012  -0.207  0.00  0.00    +0.048 A 
ATOM      5  C   UNL     1      -4.917  11.574  -0.370  0.00  0.00    +0.026 A 
ATOM      6  C   UNL     1      -3.794  10.770  -0.346  0.00  0.00    +0.025 A 
ENDROOT
BRANCH   1  14
ATOM      7  C   UNL     1      -4.868   6.014   3.336  0.00  0.00    +0.066 C 
ATOM      8  C   UNL     1      -3.730   6.235   2.373  0.00  0.00    +0.045 A 
ATOM      9  C   UNL     1      -2.671   5.348   2.328  0.00  0.00    +0.067 A 
ATOM     10  C   UNL     1      -1.635   5.593   1.425  0.00  0.00    +0.128 A 
ATOM     11  N   UNL     1      -1.706   6.660   0.635  0.00  0.00    -0.199 NA
ATOM     12  C   UNL     1      -2.742   7.483   0.705  0.00  0.00    +0.221 A 
ATOM     13  N   UNL     1      -3.736   7.278   1.556  0.00  0.00    -0.219 NA
ATOM     14  N   UNL     1      -2.786   8.585  -0.132  0.00  0.00    -0.284 N 
ATOM     15  H   UNL     1      -2.028   8.793  -0.701  0.00  0.00    +0.155 HD
BRANCH  10  16
ATOM     16  N   UNL     1      -0.550   4.734   1.349  0.00  0.00    -0.299 N 
ATOM     17  H   UNL     1       0.103   4.838   0.639  0.00  0.00    +0.154 HD
BRANCH  16  18
ATOM     18  C   UNL     1      -0.396   3.717   2.296  0.00  0.00    +0.032 A 
ATOM     19  C   UNL     1       0.082   2.472   1.909  0.00  0.00    +0.023 A 
ATOM     20  C   UNL     1       0.233   1.470   2.848  0.00  0.00    +0.002 A 
ATOM     21  C   UNL     1      -0.092   1.705   4.171  0.00  0.00    +0.000 A 
ATOM     22  C   UNL     1      -0.573   2.942   4.559  0.00  0.00    +0.002 A 
ATOM     23  C   UNL     1      -0.721   3.950   3.627  0.00  0.00    +0.023 A 
ENDBRANCH  16  18
ENDBRANCH  10  16
ENDBRANCH   1  14
BRANCH   4  24
ATOM     24  N   UNL     1      -7.314  11.827  -0.232  0.00  0.00    -0.216 N 
ATOM     25  H   UNL     1      -7.339  12.642   0.294  0.00  0.00    +0.174 HD
BRANCH  24  26
ATOM     26  S   UNL     1      -8.618  11.400  -1.159  0.00  0.00    +0.075 S 
ATOM     27  O   UNL     1      -8.924  10.051  -0.833  0.00  0.00    -0.150 OA
ATOM     28  O   UNL     1      -9.568  12.449  -1.031  0.00  0.00    -0.150 OA
BRANCH  26  29
ATOM     29  C   UNL     1      -8.087  11.404  -2.839  0.00  0.00    +0.143 A 
ATOM     30  C   UNL     1      -8.084  10.228  -3.566  0.00  0.00    +0.032 A 
ATOM     31  C   UNL     1      -7.673  10.232  -4.886  0.00  0.00    +0.002 A 
ATOM     32  C   UNL     1      -7.253  11.409  -5.476  0.00  0.00    +0.003 A 
ATOM     33  C   UNL     1      -7.249  12.585  -4.750  0.00  0.00    +0.040 A 
ATOM     34  C   UNL     1      -7.667  12.583  -3.430  0.00  0.00    +0.150 A 
ATOM     35  F   UNL     1      -7.663  13.732  -2.718  0.00  0.00    -0.203 F 
ENDBRANCH  26  29
ENDBRANCH  24  26
ENDBRANCH   4  24
TORSDOF 6
