REMARK  Name = ZINC43093289
REMARK  12 active torsions:
REMARK  status: ('A' for Active; 'I' for Inactive)
REMARK    1  A    between atoms: C_1  and  C_2
REMARK    2  A    between atoms: C_2  and  C_3
REMARK    3  A    between atoms: C_3  and  C_5
REMARK    4  A    between atoms: C_3  and  N_21
REMARK    5  A    between atoms: C_5  and  C_7
REMARK    6  A    between atoms: C_5  and  N_14
REMARK    7  A    between atoms: N_14  and  C_15
REMARK    8  A    between atoms: N_14  and  C_18
REMARK    9  A    between atoms: C_15  and  C_16
REMARK   10  A    between atoms: C_16  and  O_17
REMARK   11  A    between atoms: C_18  and  C_19
REMARK   12  A    between atoms: C_18  and  C_20
REMARK                            x       y       z     vdW  Elec       q    Type
REMARK                         _______ _______ _______ _____ _____    ______ ____
ROOT
ATOM      1  C   UNL     1       1.447  -1.860  -0.502  0.00  0.00    -0.051 C 
ENDROOT
BRANCH   1   2
ATOM      2  C   UNL     1       1.896  -2.764  -1.621  0.00  0.00    -0.048 A 
ATOM      3  C   UNL     1       2.762  -3.810  -1.359  0.00  0.00    +0.003 A 
ATOM      4  C   UNL     1       3.174  -4.640  -2.385  0.00  0.00    +0.000 A 
ATOM      5  C   UNL     1       2.721  -4.424  -3.674  0.00  0.00    +0.001 A 
ATOM      6  C   UNL     1       1.856  -3.379  -3.936  0.00  0.00    +0.015 A 
ATOM      7  C   UNL     1       1.439  -2.551  -2.909  0.00  0.00    +0.019 A 
ATOM      8 BR   UNL     1       0.250  -1.125  -3.266  0.00  0.00    -0.050 Br
ENDBRANCH   1   2
BRANCH   1   9
ATOM      9  N   UNL     1       0.621  -2.624   0.443  0.00  0.00    +0.386 N 
ATOM     10  H   UNL     1      -0.026  -2.002   0.903  0.00  0.00    -0.081 HD
BRANCH   9  11
ATOM     11  C   UNL     1      -0.128  -3.657  -0.286  0.00  0.00    -0.074 C 
ATOM     12  C   UNL     1      -0.864  -3.018  -1.465  0.00  0.00    -0.013 C 
ATOM     13  C   UNL     1       0.843  -4.719  -0.806  0.00  0.00    -0.013 C 
ENDBRANCH   9  11
BRANCH   9  14
ATOM     14  C   UNL     1       1.486  -3.261   1.445  0.00  0.00    -0.050 C 
BRANCH  14  15
ATOM     15  C   UNL     1       0.831  -4.554   1.935  0.00  0.00    +0.137 C 
BRANCH  15  16
ATOM     16  O   UNL     1       1.370  -5.664   1.214  0.00  0.00    -0.397 OA
ATOM     17  H   UNL     1       0.947  -6.509   1.419  0.00  0.00    +0.209 HD
ENDBRANCH  15  16
ENDBRANCH  14  15
ENDBRANCH   9  14
ENDBRANCH   1   9
BRANCH   1  18
ATOM     18  C   UNL     1       2.671  -1.302   0.226  0.00  0.00    -0.085 C 
BRANCH  18  19
ATOM     19  N   UNL     1       3.462  -0.484  -0.703  0.00  0.00    +0.379 N 
ATOM     20  H   UNL     1       4.297  -0.160  -0.238  0.00  0.00    -0.090 HD
ATOM     21  H   UNL     1       3.718  -1.040  -1.506  0.00  0.00    -0.090 HD
ATOM     22  H   UNL     1       2.915   0.308  -1.003  0.00  0.00    -0.090 HD
ENDBRANCH  18  19
BRANCH  18  24
ATOM     23  C   UNL     1       3.350   0.497   1.821  0.00  0.00    +0.002 C 
ATOM     24  C   UNL     1       2.214  -0.439   1.403  0.00  0.00    -0.021 C 
ENDBRANCH  18  24
ENDBRANCH   1  18
TORSDOF 9
