REMARK  Name = ZINC50589178
REMARK  9 active torsions:
REMARK  status: ('A' for Active; 'I' for Inactive)
REMARK    1  A    between atoms: C_1  and  C_2
REMARK    2  A    between atoms: C_2  and  C_3
REMARK    3  A    between atoms: C_3  and  C_5
REMARK    4  A    between atoms: C_3  and  N_21
REMARK    5  A    between atoms: C_5  and  C_7
REMARK    6  A    between atoms: C_5  and  N_13
REMARK    7  A    between atoms: C_10  and  C_12
REMARK    8  A    between atoms: C_14  and  C_20
REMARK    9  A    between atoms: C_16  and  C_18
REMARK                            x       y       z     vdW  Elec       q    Type
REMARK                         _______ _______ _______ _____ _____    ______ ____
ROOT
ATOM      1  C   UNL     1       0.630  -2.023  -1.329  0.00  0.00    +0.159 C 
ENDROOT
BRANCH   1   2
ATOM      2  N   UNL     1       1.316  -2.496  -2.534  0.00  0.00    -0.258 N 
ATOM      3  C   UNL     1       2.369  -3.341  -2.569  0.00  0.00    +0.051 A 
ATOM      4  C   UNL     1       2.704  -3.526  -3.867  0.00  0.00    +0.061 A 
ATOM      5  C   UNL     1       1.827  -2.769  -4.652  0.00  0.00    +0.074 A 
ATOM      6  N   UNL     1       0.992  -2.155  -3.853  0.00  0.00    -0.175 NA
ATOM      7  C   UNL     1       1.839  -2.680  -6.156  0.00  0.00    +0.068 C 
ATOM      8 BR   UNL     1       4.111  -4.616  -4.508  0.00  0.00    -0.047 Br
ATOM      9  C   UNL     1       3.048  -3.964  -1.377  0.00  0.00    +0.066 C 
ENDBRANCH   1   2
BRANCH   1  10
ATOM     10  C   UNL     1      -0.817  -2.441  -1.377  0.00  0.00    +0.128 A 
ATOM     11  C   UNL     1      -1.441  -3.222  -0.477  0.00  0.00    +0.047 A 
ATOM     12  C   UNL     1      -2.780  -3.356  -0.910  0.00  0.00    +0.045 A 
ATOM     13  C   UNL     1      -2.894  -2.650  -2.049  0.00  0.00    +0.102 A 
ATOM     14  O   UNL     1      -1.703  -2.093  -2.324  0.00  0.00    -0.463 OA
ATOM     15  C   UNL     1      -4.147  -2.503  -2.873  0.00  0.00    +0.086 C 
ENDBRANCH   1  10
BRANCH   1  16
ATOM     16  C   UNL     1       0.718  -0.497  -1.257  0.00  0.00    -0.043 C 
BRANCH  16  17
ATOM     17  N   UNL     1       2.129  -0.090  -1.209  0.00  0.00    +0.382 N 
ATOM     18  H   UNL     1       2.567  -0.491  -0.394  0.00  0.00    -0.090 HD
ATOM     19  H   UNL     1       2.601  -0.415  -2.039  0.00  0.00    -0.090 HD
ATOM     20  H   UNL     1       2.187   0.916  -1.162  0.00  0.00    -0.090 HD
ENDBRANCH  16  17
BRANCH  16  22
ATOM     21  C   UNL     1      -0.019   1.526   0.010  0.00  0.00    +0.002 C 
ATOM     22  C   UNL     1       0.002  -0.004   0.002  0.00  0.00    -0.017 C 
ENDBRANCH  16  22
ENDBRANCH   1  16
TORSDOF 5
