REMARK  Name = ZINC58190771
REMARK  6 active torsions:
REMARK  status: ('A' for Active; 'I' for Inactive)
REMARK    1  A    between atoms: C_3  and  C_6
REMARK    2  A    between atoms: N_8  and  C_9
REMARK    3  A    between atoms: C_12  and  N_15
REMARK    4  A    between atoms: C_16  and  C_18
REMARK    5  A    between atoms: C_18  and  N_19
REMARK    6  A    between atoms: C_23  and  O_26
REMARK                            x       y       z     vdW  Elec       q    Type
REMARK                         _______ _______ _______ _____ _____    ______ ____
ROOT
ATOM      1  C   UNL     1       6.041   1.142   0.051  0.00  0.00    +0.034 A 
ATOM      2  C   UNL     1       6.396   2.184   0.897  0.00  0.00    +0.025 A 
ATOM      3  C   UNL     1       7.716   2.577   0.993  0.00  0.00    +0.025 A 
ATOM      4  C   UNL     1       8.689   1.930   0.243  0.00  0.00    +0.033 A 
ATOM      5  C   UNL     1       8.335   0.888  -0.604  0.00  0.00    +0.025 A 
ATOM      6  C   UNL     1       7.016   0.492  -0.695  0.00  0.00    +0.025 A 
ENDROOT
BRANCH   1   9
ATOM      7  C   UNL     1       4.398  -0.559  -0.212  0.00  0.00    +0.255 C 
ATOM      8  O   UNL     1       5.286  -1.378  -0.362  0.00  0.00    -0.269 OA
ATOM      9  N   UNL     1       4.703   0.743  -0.046  0.00  0.00    -0.281 N 
ATOM     10  H   UNL     1       3.995   1.404   0.006  0.00  0.00    +0.155 HD
BRANCH   7  13
ATOM     11  C   UNL     1       1.104  -2.358  -0.322  0.00  0.00    +0.008 A 
ATOM     12  C   UNL     1       2.475  -2.265  -0.366  0.00  0.00    +0.021 A 
ATOM     13  C   UNL     1       2.997  -0.989  -0.213  0.00  0.00    +0.074 A 
ATOM     14  S   UNL     1       1.521  -0.010  -0.017  0.00  0.00    -0.092 S 
ATOM     15  C   UNL     1       0.373  -1.231  -0.137  0.00  0.00    +0.046 A 
ENDBRANCH   7  13
ENDBRANCH   1   9
BRANCH   4  16
ATOM     16  N   UNL     1      10.028   2.329   0.341  0.00  0.00    -0.287 N 
ATOM     17  C   UNL     1      11.013   1.417   0.220  0.00  0.00    +0.201 C 
ATOM     18  O   UNL     1      10.741   0.239   0.120  0.00  0.00    -0.278 OA
ATOM     19  H   UNL     1      10.247   3.261   0.495  0.00  0.00    +0.155 HD
BRANCH  17  20
ATOM     20  C   UNL     1      12.454   1.861   0.210  0.00  0.00    +0.019 C 
BRANCH  20  21
ATOM     21  N   UNL     1      13.326   0.687   0.069  0.00  0.00    +0.387 N 
ATOM     22  C   UNL     1      13.184  -0.171   1.251  0.00  0.00    -0.078 C 
ATOM     23  C   UNL     1      14.029  -1.434   1.074  0.00  0.00    -0.016 C 
ATOM     24  C   UNL     1      15.498  -1.039   0.902  0.00  0.00    +0.027 C 
ATOM     25  C   UNL     1      15.624  -0.085  -0.289  0.00  0.00    +0.098 C 
ATOM     26  C   UNL     1      14.720   1.129  -0.061  0.00  0.00    -0.047 C 
ATOM     27  H   UNL     1      13.061   0.169  -0.754  0.00  0.00    -0.081 HD
BRANCH  25  28
ATOM     28  O   UNL     1      16.981   0.347  -0.413  0.00  0.00    -0.394 OA
ATOM     29  H   UNL     1      17.611  -0.372  -0.557  0.00  0.00    +0.210 HD
ENDBRANCH  25  28
ENDBRANCH  20  21
ENDBRANCH  17  20
ENDBRANCH   4  16
TORSDOF 6
