REMARK  Name = ZINC09152119
REMARK  10 active torsions:
REMARK  status: ('A' for Active; 'I' for Inactive)
REMARK    1  A    between atoms: C_1  and  C_2
REMARK    2  A    between atoms: C_2  and  C_3
REMARK    3  A    between atoms: C_2  and  C_4
REMARK    4  A    between atoms: C_7  and  S_10
REMARK    5  A    between atoms: S_10  and  C_13
REMARK    6  A    between atoms: C_16  and  S_20
REMARK    7  A    between atoms: C_18  and  N_19
REMARK    8  A    between atoms: S_20  and  C_21
REMARK    9  A    between atoms: C_21  and  C_22
REMARK   10  A    between atoms: N_24  and  C_25
REMARK                            x       y       z     vdW  Elec       q    Type
REMARK                         _______ _______ _______ _____ _____    ______ ____
ROOT
ATOM      1  C   UNL     1       0.551   4.490   1.981  0.00  0.00    +0.151 A 
ATOM      2  C   UNL     1       1.672   5.138   2.463  0.00  0.00    +0.144 A 
ATOM      3  N   UNL     1       1.643   5.667   3.677  0.00  0.00    -0.228 NA
ATOM      4  C   UNL     1       0.557   5.582   4.432  0.00  0.00    +0.190 A 
ATOM      5  N   UNL     1      -0.538   4.969   4.007  0.00  0.00    -0.205 NA
ATOM      6  C   UNL     1      -0.581   4.421   2.797  0.00  0.00    +0.146 A 
ENDROOT
BRANCH   1   7
ATOM      7  S   UNL     1       0.546   3.773   0.371  0.00  0.00    +0.030 S 
ATOM      8  O   UNL     1       1.837   4.001  -0.178  0.00  0.00    -0.164 OA
ATOM      9  O   UNL     1      -0.643   4.218  -0.268  0.00  0.00    -0.164 OA
BRANCH   7  13
ATOM     10  C   UNL     1       0.137  -0.704   0.900  0.00  0.00    -0.045 A 
ATOM     11  C   UNL     1      -0.982   0.067   0.641  0.00  0.00    +0.006 A 
ATOM     12  C   UNL     1      -0.856   1.434   0.480  0.00  0.00    +0.027 A 
ATOM     13  C   UNL     1       0.387   2.031   0.578  0.00  0.00    +0.094 A 
ATOM     14  C   UNL     1       1.505   1.260   0.835  0.00  0.00    +0.027 A 
ATOM     15  C   UNL     1       1.380  -0.107   0.997  0.00  0.00    +0.006 A 
BRANCH  10  17
ATOM     16  C   UNL     1       0.838  -2.912   0.017  0.00  0.00    +0.012 C 
ATOM     17  C   UNL     1       0.000  -2.194   1.077  0.00  0.00    +0.013 C 
ATOM     18  C   UNL     1       0.493  -2.590   2.470  0.00  0.00    +0.012 C 
ENDBRANCH  10  17
ENDBRANCH   7  13
ENDBRANCH   1   7
BRANCH   6  19
ATOM     19  N   UNL     1      -1.729   3.786   2.353  0.00  0.00    -0.342 N 
ATOM     20  H   UNL     1      -1.742   3.360   1.481  0.00  0.00    +0.144 HD
ATOM     21  H   UNL     1      -2.521   3.768   2.913  0.00  0.00    +0.144 HD
ENDBRANCH   6  19
BRANCH   4  22
ATOM     22  S   UNL     1       0.569   6.302   6.040  0.00  0.00    -0.077 S 
BRANCH  22  23
ATOM     23  C   UNL     1       2.252   6.969   6.072  0.00  0.00    +0.173 C 
BRANCH  23  24
ATOM     24  C   UNL     1       2.496   7.651   7.394  0.00  0.00    +0.227 C 
ATOM     25  O   UNL     1       1.619   7.684   8.231  0.00  0.00    -0.275 OA
ATOM     26  N   UNL     1       3.689   8.225   7.645  0.00  0.00    -0.285 N 
ATOM     27  H   UNL     1       4.366   8.261   6.952  0.00  0.00    +0.155 HD
BRANCH  26  28
ATOM     28  C   UNL     1       3.951   8.771   8.907  0.00  0.00    +0.033 A 
ATOM     29  C   UNL     1       4.755   9.897   9.025  0.00  0.00    +0.025 A 
ATOM     30  C   UNL     1       5.008  10.436  10.271  0.00  0.00    +0.022 A 
ATOM     31  C   UNL     1       4.471   9.848  11.403  0.00  0.00    +0.041 A 
ATOM     32  C   UNL     1       3.674   8.723  11.289  0.00  0.00    +0.022 A 
ATOM     33  C   UNL     1       3.413   8.183  10.044  0.00  0.00    +0.025 A 
ATOM     34 CL   UNL     1       4.796  10.524  12.968  0.00  0.00    -0.084 Cl
ENDBRANCH  26  28
ENDBRANCH  23  24
ENDBRANCH  22  23
ENDBRANCH   4  22
TORSDOF 8
