REMARK  Name = ZINC65480766
REMARK  8 active torsions:
REMARK  status: ('A' for Active; 'I' for Inactive)
REMARK    1  A    between atoms: C_1  and  C_2
REMARK    2  A    between atoms: C_10  and  C_11
REMARK    3  A    between atoms: N_13  and  N_14
REMARK    4  A    between atoms: N_17  and  C_18
REMARK    5  A    between atoms: C_18  and  C_19
REMARK    6  A    between atoms: C_19  and  C_20
REMARK    7  A    between atoms: C_19  and  N_21
REMARK    8  A    between atoms: C_24  and  C_27
REMARK                            x       y       z     vdW  Elec       q    Type
REMARK                         _______ _______ _______ _____ _____    ______ ____
ROOT
ATOM      1  N   UNL     1       0.690  -0.856   5.078  0.00  0.00    -0.218 N 
ATOM      2  C   UNL     1       0.575  -1.813   6.020  0.00  0.00    +0.316 C 
ATOM      3  O   UNL     1       0.712  -1.530   7.195  0.00  0.00    -0.251 OA
ATOM      4  N   UNL     1       0.307  -3.084   5.661  0.00  0.00    -0.300 N 
ATOM      5  H   UNL     1       0.883   0.059   5.337  0.00  0.00    +0.174 HD
ATOM      6  H   UNL     1       0.197  -3.310   4.724  0.00  0.00    +0.150 HD
ENDROOT
BRANCH   1   9
ATOM      7  C   UNL     1       0.648  -0.226   2.783  0.00  0.00    +0.296 C 
ATOM      8  O   UNL     1       0.890   0.921   3.107  0.00  0.00    -0.265 OA
ATOM      9  N   UNL     1       0.532  -1.183   3.725  0.00  0.00    -0.227 N 
ATOM     10  H   UNL     1       0.339  -2.098   3.466  0.00  0.00    +0.173 HD
BRANCH   7  20
ATOM     11  C   UNL     1       0.864   1.786   0.421  0.00  0.00    +0.048 C 
ATOM     12  C   UNL     1       0.576   0.309   0.331  0.00  0.00    +0.008 A 
ATOM     13  C   UNL     1       0.347  -0.470  -0.885  0.00  0.00    +0.024 A 
ATOM     14  C   UNL     1       0.317  -0.162  -2.248  0.00  0.00    +0.012 A 
ATOM     15  C   UNL     1       0.069  -1.149  -3.159  0.00  0.00    +0.001 A 
ATOM     16  C   UNL     1      -0.153  -2.454  -2.741  0.00  0.00    +0.004 A 
ATOM     17  C   UNL     1      -0.128  -2.778  -1.402  0.00  0.00    +0.047 A 
ATOM     18  C   UNL     1       0.123  -1.791  -0.455  0.00  0.00    +0.136 A 
ATOM     19  O   UNL     1       0.209  -1.802   0.889  0.00  0.00    -0.450 OA
ATOM     20  C   UNL     1       0.481  -0.569   1.363  0.00  0.00    +0.195 A 
ENDBRANCH   7  20
ENDBRANCH   1   9
BRANCH   4  21
ATOM     21  C   UNL     1       0.181  -4.124   6.685  0.00  0.00    +0.090 C 
BRANCH  21  22
ATOM     22  C   UNL     1       0.011  -5.486   6.010  0.00  0.00    -0.054 C 
ATOM     23  C   UNL     1      -0.029  -6.583   7.077  0.00  0.00    -0.012 C 
BRANCH  22  24
ATOM     24  N   UNL     1       1.139  -5.727   5.102  0.00  0.00    +0.382 N 
ATOM     25  C   UNL     1       2.378  -5.837   5.881  0.00  0.00    -0.078 C 
ATOM     26  C   UNL     1       3.568  -6.007   4.934  0.00  0.00    -0.016 C 
ATOM     27  C   UNL     1       3.373  -7.277   4.102  0.00  0.00    -0.018 C 
ATOM     28  C   UNL     1       2.042  -7.184   3.350  0.00  0.00    -0.016 C 
ATOM     29  C   UNL     1       0.909  -6.971   4.356  0.00  0.00    -0.078 C 
ATOM     30  C   UNL     1       4.519  -7.412   3.097  0.00  0.00    +0.007 C 
ATOM     31  H   UNL     1       1.219  -4.958   4.454  0.00  0.00    -0.081 HD
ENDBRANCH  22  24
ENDBRANCH  21  22
ENDBRANCH   4  21
TORSDOF 5
