REMARK  Name = ZINC42554310
REMARK  9 active torsions:
REMARK  status: ('A' for Active; 'I' for Inactive)
REMARK    1  A    between atoms: C_1  and  C_2
REMARK    2  A    between atoms: C_2  and  C_3
REMARK    3  A    between atoms: C_2  and  C_4
REMARK    4  A    between atoms: C_4  and  N_5
REMARK    5  A    between atoms: N_5  and  C_6
REMARK    6  A    between atoms: N_5  and  C_19
REMARK    7  A    between atoms: C_6  and  C_7
REMARK    8  A    between atoms: N_9  and  C_10
REMARK    9  A    between atoms: C_11  and  N_18
REMARK                            x       y       z     vdW  Elec       q    Type
REMARK                         _______ _______ _______ _____ _____    ______ ____
ROOT
ATOM      1  C   UNL     1      -2.857  -4.027  -0.920  0.00  0.00    +0.201 C 
ATOM      2  O   UNL     1      -1.937  -4.450  -1.588  0.00  0.00    -0.278 OA
ATOM      3  N   UNL     1      -3.684  -4.885  -0.290  0.00  0.00    -0.284 N 
ATOM      4  H   UNL     1      -4.366  -4.548   0.311  0.00  0.00    +0.155 HD
ENDROOT
BRANCH   3   5
ATOM      5  C   UNL     1      -3.557  -6.266  -0.504  0.00  0.00    +0.073 A 
ATOM      6  C   UNL     1      -4.661  -7.014  -0.911  0.00  0.00    +0.049 A 
ATOM      7  C   UNL     1      -4.530  -8.379  -1.121  0.00  0.00    +0.044 A 
ATOM      8  C   UNL     1      -3.306  -8.994  -0.928  0.00  0.00    +0.044 A 
ATOM      9  C   UNL     1      -2.210  -8.251  -0.525  0.00  0.00    +0.042 A 
ATOM     10  C   UNL     1      -2.332  -6.889  -0.318  0.00  0.00    +0.065 A 
ATOM     11 CL   UNL     1      -0.953  -5.960   0.181  0.00  0.00    -0.082 Cl
ATOM     12 CL   UNL     1      -3.144 -10.702  -1.192  0.00  0.00    -0.083 Cl
BRANCH   6  13
ATOM     13  N   UNL     1      -5.898  -6.391  -1.105  0.00  0.00    -0.356 N 
ATOM     14  H   UNL     1      -5.989  -5.436  -0.957  0.00  0.00    +0.142 HD
ATOM     15  H   UNL     1      -6.666  -6.913  -1.387  0.00  0.00    +0.142 HD
ENDBRANCH   6  13
ENDBRANCH   3   5
BRANCH   1  16
ATOM     16  C   UNL     1      -3.076  -2.541  -0.794  0.00  0.00    +0.019 C 
BRANCH  16  17
ATOM     17  N   UNL     1      -2.050  -1.828  -1.567  0.00  0.00    +0.387 N 
ATOM     18  H   UNL     1      -1.134  -2.127  -1.267  0.00  0.00    -0.081 HD
BRANCH  17  19
ATOM     19  C   UNL     1      -2.218  -2.126  -2.996  0.00  0.00    -0.068 C 
ATOM     20  C   UNL     1      -1.265  -3.147  -3.621  0.00  0.00    -0.017 C 
ATOM     21  C   UNL     1      -1.116  -1.660  -3.949  0.00  0.00    -0.017 C 
ENDBRANCH  17  19
BRANCH  17  22
ATOM     22  C   UNL     1      -2.189  -0.382  -1.349  0.00  0.00    -0.075 C 
BRANCH  22  24
ATOM     23  C   UNL     1      -1.092   1.839  -1.671  0.00  0.00    +0.005 C 
ATOM     24  C   UNL     1      -1.015   0.348  -2.004  0.00  0.00    -0.034 C 
ATOM     25  C   UNL     1       0.301  -0.226  -1.475  0.00  0.00    +0.005 C 
ENDBRANCH  22  24
ENDBRANCH  17  22
ENDBRANCH  16  17
ENDBRANCH   1  16
TORSDOF 7
