REMARK  Name = ZINC63743646
REMARK  9 active torsions:
REMARK  status: ('A' for Active; 'I' for Inactive)
REMARK    1  A    between atoms: C_1  and  O_2
REMARK    2  A    between atoms: O_2  and  C_3
REMARK    3  A    between atoms: C_5  and  N_13
REMARK    4  A    between atoms: C_7  and  O_11
REMARK    5  A    between atoms: C_8  and  O_9
REMARK    6  A    between atoms: O_9  and  C_10
REMARK    7  A    between atoms: O_11  and  C_12
REMARK    8  A    between atoms: N_16  and  C_17
REMARK    9  A    between atoms: C_21  and  C_23
REMARK                            x       y       z     vdW  Elec       q    Type
REMARK                         _______ _______ _______ _____ _____    ______ ____
ROOT
ATOM      1  N   UNL     1       2.492   0.307  -4.075  0.00  0.00    -0.269 N 
ATOM      2  C   UNL     1       3.184  -0.273  -5.076  0.00  0.00    +0.308 C 
ATOM      3  O   UNL     1       3.360  -1.476  -5.075  0.00  0.00    -0.252 OA
ATOM      4  N   UNL     1       3.680   0.480  -6.077  0.00  0.00    -0.269 N 
ATOM      5  H   UNL     1       2.287   1.254  -4.113  0.00  0.00    +0.156 HD
ATOM      6  H   UNL     1       3.606   1.447  -6.040  0.00  0.00    +0.156 HD
ENDROOT
BRANCH   1   9
ATOM      7  C   UNL     1       2.429  -2.276  -1.450  0.00  0.00    +0.167 A 
ATOM      8  C   UNL     1       2.846  -1.519  -2.534  0.00  0.00    +0.073 A 
ATOM      9  C   UNL     1       2.070  -0.458  -2.980  0.00  0.00    +0.042 A 
ATOM     10  C   UNL     1       0.875  -0.154  -2.341  0.00  0.00    +0.073 A 
ATOM     11  C   UNL     1       0.457  -0.910  -1.258  0.00  0.00    +0.167 A 
ATOM     12  C   UNL     1       1.231  -1.976  -0.814  0.00  0.00    +0.204 A 
BRANCH   7  14
ATOM     13  C   UNL     1       4.410  -3.565  -1.715  0.00  0.00    +0.277 C 
ATOM     14  O   UNL     1       3.191  -3.314  -1.014  0.00  0.00    -0.491 OA
ENDBRANCH   7  14
BRANCH  12  15
ATOM     15  O   UNL     1       0.818  -2.723   0.247  0.00  0.00    -0.488 OA
ATOM     16  C   UNL     1       1.237  -2.295   1.544  0.00  0.00    +0.277 C 
ENDBRANCH  12  15
BRANCH  11  17
ATOM     17  O   UNL     1      -0.713  -0.613  -0.632  0.00  0.00    -0.491 OA
ATOM     18  C   UNL     1      -1.460   0.493  -1.145  0.00  0.00    +0.277 C 
ENDBRANCH  11  17
ENDBRANCH   1   9
BRANCH   4  19
ATOM     19  C   UNL     1       4.304  -0.132  -7.170  0.00  0.00    +0.035 A 
ATOM     20  C   UNL     1       3.867  -1.373  -7.615  0.00  0.00    +0.023 A 
ATOM     21  C   UNL     1       4.484  -1.974  -8.695  0.00  0.00    +0.002 A 
ATOM     22  C   UNL     1       5.536  -1.342  -9.332  0.00  0.00    +0.006 A 
ATOM     23  C   UNL     1       5.974  -0.106  -8.891  0.00  0.00    -0.020 A 
ATOM     24  C   UNL     1       5.357   0.503  -7.816  0.00  0.00    +0.029 A 
BRANCH  23  25
ATOM     25  C   UNL     1       7.121   0.579  -9.588  0.00  0.00    +0.133 C 
ATOM     26  C   UNL     1       6.647   1.203 -10.881  0.00  0.00    +0.012 C 
ATOM     27  C   UNL     1       7.354   0.606 -11.867  0.00  0.00    -0.002 A 
ATOM     28  C   UNL     1       7.359   0.768 -13.326  0.00  0.00    +0.029 A 
ATOM     29  C   UNL     1       8.199   0.010 -14.068  0.00  0.00    +0.042 A 
ATOM     30  C   UNL     1       9.063  -0.926 -13.479  0.00  0.00    +0.022 A 
ATOM     31  C   UNL     1       9.115  -1.131 -12.146  0.00  0.00    +0.027 A 
ATOM     32  C   UNL     1       8.275  -0.388 -11.271  0.00  0.00    +0.043 A 
ATOM     33  N   UNL     1       8.143  -0.404  -9.965  0.00  0.00    -0.374 N 
ATOM     34 CL   UNL     1       8.207   0.199 -15.794  0.00  0.00    -0.084 Cl
ATOM     35  H   UNL     1       8.637  -0.970  -9.352  0.00  0.00    +0.161 HD
ENDBRANCH  23  25
ENDBRANCH   4  19
TORSDOF 6
