REMARK  Name = ZINC09346232
REMARK  9 active torsions:
REMARK  status: ('A' for Active; 'I' for Inactive)
REMARK    1  A    between atoms: C_1  and  C_2
REMARK    2  A    between atoms: C_2  and  O_3
REMARK    3  A    between atoms: O_3  and  C_4
REMARK    4  A    between atoms: C_7  and  C_12
REMARK    5  A    between atoms: C_9  and  O_10
REMARK    6  A    between atoms: O_10  and  C_11
REMARK    7  A    between atoms: C_23  and  C_25
REMARK    8  A    between atoms: C_35  and  S_37
REMARK    9  A    between atoms: S_37  and  C_38
REMARK                            x       y       z     vdW  Elec       q    Type
REMARK                         _______ _______ _______ _____ _____    ______ ____
ROOT
ATOM      1  C   UNL     1       1.148  -5.887  -2.083  0.00  0.00    +0.159 C 
ATOM      2  C   UNL     1       2.305  -6.410  -1.262  0.00  0.00    +0.025 C 
ATOM      3  C   UNL     1       2.040  -7.304  -0.287  0.00  0.00    +0.058 C 
ATOM      4  C   UNL     1       3.188  -7.816   0.503  0.00  0.00    +0.040 A 
ATOM      5  C   UNL     1       3.000  -8.474   1.711  0.00  0.00    +0.013 A 
ATOM      6  C   UNL     1       4.097  -8.932   2.415  0.00  0.00    +0.001 A 
ATOM      7  C   UNL     1       5.375  -8.737   1.921  0.00  0.00    +0.004 A 
ATOM      8  C   UNL     1       5.569  -8.083   0.718  0.00  0.00    +0.046 A 
ATOM      9  C   UNL     1       4.480  -7.619   0.001  0.00  0.00    +0.131 A 
ATOM     10  O   UNL     1       4.642  -6.980  -1.185  0.00  0.00    -0.479 OA
ATOM     11  C   UNL     1       3.711  -5.947  -1.513  0.00  0.00    +0.234 C 
ATOM     12  N   UNL     1       0.776  -7.723  -0.035  0.00  0.00    -0.326 N 
ATOM     13  C   UNL     1      -0.286  -7.319  -0.699  0.00  0.00    +0.216 C 
ATOM     14  N   UNL     1      -0.178  -6.408  -1.727  0.00  0.00    -0.209 N 
ATOM     15  N   UNL     1      -1.469  -6.194  -2.214  0.00  0.00    -0.239 N 
ATOM     16  C   UNL     1      -2.301  -6.979  -1.459  0.00  0.00    +0.174 C 
ATOM     17  N   UNL     1      -1.589  -7.633  -0.577  0.00  0.00    -0.192 NA
ATOM     18  H   UNL     1       0.646  -8.363   0.682  0.00  0.00    +0.169 HD
ATOM     19  H   UNL     1      -1.726  -5.608  -2.943  0.00  0.00    +0.172 HD
ENDROOT
BRANCH   1  23
ATOM     20  C   UNL     1       1.052  -1.629  -1.687  0.00  0.00    +0.162 A 
ATOM     21  C   UNL     1       0.565  -2.434  -0.670  0.00  0.00    +0.050 A 
ATOM     22  C   UNL     1       0.597  -3.810  -0.801  0.00  0.00    +0.009 A 
ATOM     23  C   UNL     1       1.115  -4.386  -1.946  0.00  0.00    -0.017 A 
ATOM     24  C   UNL     1       1.603  -3.589  -2.965  0.00  0.00    +0.055 A 
ATOM     25  C   UNL     1       1.568  -2.210  -2.842  0.00  0.00    +0.162 A 
BRANCH  25  26
ATOM     26  O   UNL     1       2.042  -1.424  -3.846  0.00  0.00    -0.491 OA
ATOM     27  C   UNL     1       2.557  -2.089  -5.002  0.00  0.00    +0.277 C 
ENDBRANCH  25  26
BRANCH  20  28
ATOM     28  O   UNL     1       1.021  -0.276  -1.560  0.00  0.00    -0.489 OA
BRANCH  28  30
ATOM     29  C   UNL     1       0.526   1.778  -0.387  0.00  0.00    +0.048 C 
ATOM     30  C   UNL     1       0.477   0.249  -0.347  0.00  0.00    +0.226 C 
ENDBRANCH  28  30
ENDBRANCH  20  28
ENDBRANCH   1  23
BRANCH  11  31
ATOM     31  C   UNL     1       3.994  -4.734  -0.666  0.00  0.00    -0.003 A 
ATOM     32  C   UNL     1       4.150  -4.866   0.701  0.00  0.00    +0.007 A 
ATOM     33  C   UNL     1       4.410  -3.753   1.479  0.00  0.00    +0.000 A 
ATOM     34  C   UNL     1       4.514  -2.507   0.889  0.00  0.00    +0.000 A 
ATOM     35  C   UNL     1       4.359  -2.375  -0.478  0.00  0.00    +0.000 A 
ATOM     36  C   UNL     1       4.104  -3.489  -1.256  0.00  0.00    +0.007 A 
ENDBRANCH  11  31
BRANCH  16  37
ATOM     37  S   UNL     1      -4.049  -7.093  -1.647  0.00  0.00    -0.092 S 
ATOM     38  C   UNL     1      -4.552  -8.277  -0.368  0.00  0.00    +0.093 C 
ENDBRANCH  16  37
TORSDOF 6
