REMARK  Name = ZINC63948444
REMARK  9 active torsions:
REMARK  status: ('A' for Active; 'I' for Inactive)
REMARK    1  A    between atoms: C_1  and  O_2
REMARK    2  A    between atoms: O_2  and  C_3
REMARK    3  A    between atoms: C_9  and  C_12
REMARK    4  A    between atoms: C_12  and  C_13
REMARK    5  A    between atoms: C_13  and  N_14
REMARK    6  A    between atoms: C_15  and  C_17
REMARK    7  A    between atoms: C_17  and  N_18
REMARK    8  A    between atoms: C_19  and  C_21
REMARK    9  A    between atoms: C_28  and  N_31
REMARK                            x       y       z     vdW  Elec       q    Type
REMARK                         _______ _______ _______ _____ _____    ______ ____
ROOT
ATOM      1  C   UNL     1       0.535  -8.564   2.584  0.00  0.00    +0.200 C 
ENDROOT
BRANCH   1   3
ATOM      2  N   UNL     1      -0.759  -6.798   1.434  0.00  0.00    -0.314 N 
ATOM      3  C   UNL     1      -0.408  -7.389   2.593  0.00  0.00    +0.230 C 
ATOM      4  O   UNL     1      -0.851  -6.975   3.644  0.00  0.00    -0.274 OA
ATOM      5  H   UNL     1      -0.405  -7.128   0.594  0.00  0.00    +0.149 HD
BRANCH   2   6
ATOM      6  C   UNL     1      -1.676  -5.655   1.443  0.00  0.00    +0.108 C 
BRANCH   6   7
ATOM      7  C   UNL     1      -1.908  -5.176   0.009  0.00  0.00    +0.052 C 
BRANCH   7  14
ATOM      8  C   UNL     1      -1.200  -0.637   0.010  0.00  0.00    +0.121 A 
ATOM      9  C   UNL     1      -2.375   0.135   0.020  0.00  0.00    +0.047 A 
ATOM     10  C   UNL     1      -3.607  -0.415   0.028  0.00  0.00    +0.029 A 
ATOM     11  C   UNL     1      -3.753  -1.875   0.027  0.00  0.00    +0.043 A 
ATOM     12  N   UNL     1      -4.809  -2.650   0.034  0.00  0.00    -0.380 N 
ATOM     13  C   UNL     1      -4.362  -4.047   0.029  0.00  0.00    +0.144 C 
ATOM     14  C   UNL     1      -2.851  -4.000   0.018  0.00  0.00    -0.040 C 
ATOM     15  C   UNL     1      -2.516  -2.690   0.016  0.00  0.00    +0.002 A 
ATOM     16  C   UNL     1      -1.226  -1.992   0.003  0.00  0.00    +0.055 A 
ATOM     17  H   UNL     1      -5.731  -2.350   0.042  0.00  0.00    +0.160 HD
BRANCH   8  19
ATOM     18  C   UNL     1      -0.017   1.425   0.010  0.00  0.00    +0.277 C 
ATOM     19  O   UNL     1       0.002  -0.004   0.002  0.00  0.00    -0.495 OA
ENDBRANCH   8  19
ENDBRANCH   7  14
ENDBRANCH   6   7
ENDBRANCH   2   6
ENDBRANCH   1   3
BRANCH   1  20
ATOM     20  N   UNL     1       0.757  -9.023   3.958  0.00  0.00    -0.303 N 
ATOM     21  C   UNL     1       1.571 -10.070   4.195  0.00  0.00    +0.244 C 
ATOM     22  O   UNL     1       2.121 -10.635   3.269  0.00  0.00    -0.270 OA
ATOM     23  H   UNL     1       0.318  -8.573   4.696  0.00  0.00    +0.150 HD
BRANCH  21  24
ATOM     24  C   UNL     1       1.794 -10.532   5.579  0.00  0.00    +0.038 A 
ATOM     25  C   UNL     1       1.165  -9.897   6.652  0.00  0.00    +0.015 A 
ATOM     26  C   UNL     1       1.368 -10.321   7.939  0.00  0.00    +0.025 A 
ATOM     27  C   UNL     1       2.216 -11.410   8.229  0.00  0.00    +0.043 A 
ATOM     28  C   UNL     1       2.836 -12.030   7.135  0.00  0.00    +0.033 A 
ATOM     29  C   UNL     1       2.638 -11.619   5.841  0.00  0.00    +0.029 A 
ATOM     30  S   UNL     1       3.816 -13.337   7.838  0.00  0.00    -0.079 S 
ATOM     31  C   UNL     1       3.395 -13.052   9.604  0.00  0.00    +0.237 C 
ATOM     32  N   UNL     1       2.481 -11.907   9.497  0.00  0.00    -0.314 N 
ATOM     33  H   UNL     1       2.076 -11.513  10.285  0.00  0.00    +0.149 HD
BRANCH  31  34
ATOM     34  N   UNL     1       4.587 -12.705  10.381  0.00  0.00    -0.326 N 
ATOM     35  C   UNL     1       5.073 -11.445  10.570  0.00  0.00    +0.088 A 
ATOM     36  C   UNL     1       6.179 -11.530  11.337  0.00  0.00    +0.019 A 
ATOM     37  C   UNL     1       6.383 -12.893  11.633  0.00  0.00    +0.019 A 
ATOM     38  C   UNL     1       5.391 -13.588  11.040  0.00  0.00    +0.088 A 
ENDBRANCH  31  34
ENDBRANCH  21  24
ENDBRANCH   1  20
TORSDOF 8
