REMARK  Name = ZINC48818748
REMARK  5 active torsions:
REMARK  status: ('A' for Active; 'I' for Inactive)
REMARK    1  A    between atoms: C_3  and  C_8
REMARK    2  A    between atoms: C_8  and  N_9
REMARK    3  A    between atoms: N_9  and  C_10
REMARK    4  A    between atoms: C_10  and  C_11
REMARK    5  A    between atoms: N_13  and  C_14
REMARK                            x       y       z     vdW  Elec       q    Type
REMARK                         _______ _______ _______ _____ _____    ______ ____
ROOT
ATOM      1  C   UNL     1       5.597   4.469   0.971  0.00  0.00    +0.016 C 
ENDROOT
BRANCH   1   2
ATOM      2  C   UNL     1       5.915   4.733   2.420  0.00  0.00    +0.200 C 
ATOM      3  O   UNL     1       5.236   5.510   3.058  0.00  0.00    -0.278 OA
ATOM      4  N   UNL     1       6.954   4.106   3.008  0.00  0.00    -0.285 N 
ATOM      5  H   UNL     1       7.452   3.432   2.520  0.00  0.00    +0.155 HD
BRANCH   4   6
ATOM      6  C   UNL     1       7.314   4.430   4.322  0.00  0.00    +0.070 A 
ATOM      7  C   UNL     1       6.766   3.726   5.387  0.00  0.00    +0.064 A 
ATOM      8  C   UNL     1       7.125   4.048   6.683  0.00  0.00    +0.022 A 
ATOM      9  C   UNL     1       8.027   5.069   6.919  0.00  0.00    +0.003 A 
ATOM     10  C   UNL     1       8.574   5.771   5.861  0.00  0.00    +0.022 A 
ATOM     11  C   UNL     1       8.225   5.451   4.563  0.00  0.00    +0.064 A 
ATOM     12 CL   UNL     1       8.918   6.328   3.235  0.00  0.00    -0.082 Cl
ATOM     13 CL   UNL     1       5.633   2.445   5.092  0.00  0.00    -0.082 Cl
ENDBRANCH   4   6
ENDBRANCH   1   2
BRANCH   1  14
ATOM     14  N   UNL     1       4.430   5.266   0.572  0.00  0.00    +0.387 N 
ATOM     15  H   UNL     1       4.633   6.247   0.699  0.00  0.00    -0.085 HD
ATOM     16  H   UNL     1       3.638   5.011   1.143  0.00  0.00    -0.085 HD
BRANCH  14  17
ATOM     17  C   UNL     1       4.120   5.009  -0.840  0.00  0.00    -0.046 C 
BRANCH  17  20
ATOM     18  C   UNL     1       1.999   7.851  -2.135  0.00  0.00    +0.001 A 
ATOM     19  C   UNL     1       3.097   7.100  -1.759  0.00  0.00    +0.002 A 
ATOM     20  C   UNL     1       2.923   5.827  -1.249  0.00  0.00    -0.063 A 
ATOM     21  C   UNL     1       1.650   5.305  -1.115  0.00  0.00    +0.017 A 
ATOM     22  C   UNL     1       0.551   6.056  -1.490  0.00  0.00    +0.018 A 
ATOM     23  C   UNL     1       0.726   7.330  -2.001  0.00  0.00    +0.015 A 
ATOM     24 BR   UNL     1      -1.190   5.342  -1.307  0.00  0.00    -0.050 Br
ENDBRANCH  17  20
ENDBRANCH  14  17
ENDBRANCH   1  14
TORSDOF 5
