REMARK  Name = ZINC32304142
REMARK  15 active torsions:
REMARK  status: ('A' for Active; 'I' for Inactive)
REMARK    1  A    between atoms: C_1  and  C_2
REMARK    2  A    between atoms: C_1  and  C_9
REMARK    3  A    between atoms: C_2  and  C_3
REMARK    4  A    between atoms: C_3  and  O_4
REMARK    5  A    between atoms: O_4  and  P_5
REMARK    6  A    between atoms: C_9  and  N_10
REMARK    7  A    between atoms: N_20  and  C_23
REMARK    8  A    between atoms: C_23  and  C_24
REMARK    9  A    between atoms: C_24  and  C_26
REMARK   10  A    between atoms: C_24  and  O_34
REMARK   11  A    between atoms: C_26  and  C_28
REMARK   12  A    between atoms: C_26  and  O_33
REMARK   13  A    between atoms: C_28  and  C_30
REMARK   14  A    between atoms: C_28  and  O_32
REMARK   15  A    between atoms: C_30  and  O_31
REMARK                            x       y       z     vdW  Elec       q    Type
REMARK                         _______ _______ _______ _____ _____    ______ ____
ROOT
ATOM      1  N   UNL     1       1.397   3.520   0.008  0.00  0.00    -0.286 N 
ATOM      2  C   UNL     1       1.369   4.348  -1.117  0.00  0.00    +0.154 A 
ATOM      3  C   UNL     1       1.358   5.658  -0.655  0.00  0.00    +0.172 A 
ATOM      4  N   UNL     1       1.332   6.668  -1.534  0.00  0.00    -0.173 NA
ATOM      5  C   UNL     1       1.317   6.441  -2.827  0.00  0.00    +0.351 A 
ATOM      6  O   UNL     1       1.291   7.489  -3.678  0.00  0.00    -0.245 OA
ATOM      7  N   UNL     1       1.327   5.178  -3.332  0.00  0.00    -0.272 N 
ATOM      8  H   UNL     1       1.315   5.042  -4.293  0.00  0.00    +0.174 HD
ATOM      9  C   UNL     1       1.353   4.114  -2.500  0.00  0.00    +0.280 A 
ATOM     10  O   UNL     1       1.362   2.976  -2.941  0.00  0.00    -0.265 OA
ATOM     11  N   UNL     1       1.379   5.600   0.723  0.00  0.00    -0.274 N 
ATOM     12  C   UNL     1       1.396   4.308   1.101  0.00  0.00    +0.332 A 
ATOM     13  O   UNL     1       1.411   3.912   2.252  0.00  0.00    -0.246 OA
ENDROOT
BRANCH   1  14
ATOM     14  C   UNL     1       1.417   2.055  -0.000  0.00  0.00    +0.127 C 
BRANCH  14  15
ATOM     15  C   UNL     1      -0.019   1.526   0.010  0.00  0.00    +0.024 C 
BRANCH  15  16
ATOM     16  C   UNL     1       0.002  -0.004   0.002  0.00  0.00    +0.030 C 
BRANCH  16  17
ATOM     17  C   UNL     1      -1.433  -0.534   0.013  0.00  0.00    +0.172 C 
BRANCH  17  18
ATOM     18  O   UNL     1      -1.414  -1.962   0.005  0.00  0.00    -0.284 OA
BRANCH  18  19
ATOM     19  P   UNL     1      -2.752  -2.858   0.013  0.00  0.00    +0.532 P 
ATOM     20  O   UNL     1      -3.646  -2.450   1.234  0.00  0.00    -0.222 OA
ATOM     21  O   UNL     1      -3.546  -2.622  -1.317  0.00  0.00    -0.115 OA
ATOM     22  O   UNL     1      -2.367  -4.372   0.130  0.00  0.00    -0.115 OA
ENDBRANCH  18  19
ENDBRANCH  17  18
ENDBRANCH  16  17
ENDBRANCH  15  16
ENDBRANCH  14  15
ENDBRANCH   1  14
BRANCH  11  23
ATOM     23  C   UNL     1       1.376   6.753   1.626  0.00  0.00    +0.162 C 
BRANCH  23  24
ATOM     24  C   UNL     1      -0.067   7.135   1.962  0.00  0.00    +0.165 C 
BRANCH  24  25
ATOM     25  O   UNL     1      -0.681   6.076   2.699  0.00  0.00    -0.387 OA
ATOM     26  H   UNL     1      -0.239   5.871   3.534  0.00  0.00    +0.210 HD
ENDBRANCH  24  25
BRANCH  24  27
ATOM     27  C   UNL     1      -0.074   8.413   2.803  0.00  0.00    +0.175 C 
BRANCH  27  28
ATOM     28  O   UNL     1       0.749   8.229   3.956  0.00  0.00    -0.387 OA
ATOM     29  H   UNL     1       0.463   7.507   4.532  0.00  0.00    +0.210 HD
ENDBRANCH  27  28
BRANCH  27  30
ATOM     30  C   UNL     1      -1.506   8.726   3.242  0.00  0.00    +0.171 C 
BRANCH  30  31
ATOM     31  O   UNL     1      -2.329   8.910   2.089  0.00  0.00    -0.387 OA
ATOM     32  H   UNL     1      -2.043   9.633   1.513  0.00  0.00    +0.210 HD
ENDBRANCH  30  31
BRANCH  30  33
ATOM     33  C   UNL     1      -1.513  10.004   4.083  0.00  0.00    +0.189 C 
BRANCH  33  34
ATOM     34  O   UNL     1      -2.829  10.233   4.591  0.00  0.00    -0.392 OA
ATOM     35  H   UNL     1      -2.908  11.029   5.135  0.00  0.00    +0.210 HD
ENDBRANCH  33  34
ENDBRANCH  30  33
ENDBRANCH  27  30
ENDBRANCH  24  27
ENDBRANCH  23  24
ENDBRANCH  11  23
TORSDOF 15
