REMARK  Name = ZINC13131961
REMARK  4 active torsions:
REMARK  status: ('A' for Active; 'I' for Inactive)
REMARK    1  A    between atoms: C_1  and  O_2
REMARK    2  A    between atoms: O_2  and  C_3
REMARK    3  A    between atoms: C_7  and  C_9
REMARK    4  A    between atoms: C_12  and  C_21
REMARK                            x       y       z     vdW  Elec       q    Type
REMARK                         _______ _______ _______ _____ _____    ______ ____
ROOT
ATOM      1  C   UNL     1       1.389  -4.130   2.211  0.00  0.00    +0.143 C 
ATOM      2  C   UNL     1       0.702  -4.625   3.490  0.00  0.00    +0.058 C 
ATOM      3  C   UNL     1       1.004  -6.114   3.695  0.00  0.00    +0.106 C 
ATOM      4  N   UNL     1       2.459  -6.280   3.872  0.00  0.00    -0.307 N 
ATOM      5  C   UNL     1       3.269  -5.556   3.007  0.00  0.00    +0.216 A 
ATOM      6  N   UNL     1       2.787  -4.558   2.226  0.00  0.00    -0.224 N 
ATOM      7  N   UNL     1       3.867  -4.064   1.493  0.00  0.00    -0.132 NA
ATOM      8  C   UNL     1       4.920  -4.765   1.851  0.00  0.00    +0.233 A 
ATOM      9  N   UNL     1       4.550  -5.669   2.777  0.00  0.00    -0.180 NA
ATOM     10  N   UNL     1       6.213  -4.595   1.355  0.00  0.00    -0.326 N 
ATOM     11  H   UNL     1       2.829  -6.862   4.554  0.00  0.00    +0.149 HD
ATOM     12  H   UNL     1       6.391  -3.913   0.688  0.00  0.00    +0.145 HD
ATOM     13  H   UNL     1       6.934  -5.158   1.677  0.00  0.00    +0.145 HD
ENDROOT
BRANCH   1  18
ATOM     14  C   UNL     1       0.626  -0.618   1.042  0.00  0.00    +0.120 A 
ATOM     15  C   UNL     1       1.202   0.139   2.051  0.00  0.00    +0.045 A 
ATOM     16  C   UNL     1       1.835  -0.488   3.107  0.00  0.00    +0.004 A 
ATOM     17  C   UNL     1       1.895  -1.869   3.158  0.00  0.00    +0.006 A 
ATOM     18  C   UNL     1       1.321  -2.625   2.153  0.00  0.00    -0.019 A 
ATOM     19  C   UNL     1       0.682  -2.003   1.097  0.00  0.00    +0.051 A 
BRANCH  14  21
ATOM     20  C   UNL     1      -0.017   1.425   0.010  0.00  0.00    +0.277 C 
ATOM     21  O   UNL     1       0.002  -0.004   0.002  0.00  0.00    -0.495 OA
ENDBRANCH  14  21
ENDBRANCH   1  18
BRANCH   3  22
ATOM     22  C   UNL     1       0.281  -6.613   4.920  0.00  0.00    -0.027 A 
ATOM     23  C   UNL     1       0.801  -6.366   6.177  0.00  0.00    +0.005 A 
ATOM     24  C   UNL     1       0.139  -6.824   7.301  0.00  0.00    +0.000 A 
ATOM     25  C   UNL     1      -1.044  -7.527   7.168  0.00  0.00    +0.000 A 
ATOM     26  C   UNL     1      -1.565  -7.772   5.911  0.00  0.00    +0.000 A 
ATOM     27  C   UNL     1      -0.904  -7.311   4.787  0.00  0.00    +0.005 A 
ENDBRANCH   3  22
TORSDOF 3
