REMARK  Name = ZINC09096540
REMARK  5 active torsions:
REMARK  status: ('A' for Active; 'I' for Inactive)
REMARK    1  A    between atoms: C_4  and  C_7
REMARK    2  A    between atoms: C_14  and  C_15
REMARK    3  A    between atoms: C_14  and  N_66
REMARK    4  A    between atoms: N_17  and  C_18
REMARK    5  A    between atoms: N_30  and  C_31
REMARK                            x       y       z     vdW  Elec       q    Type
REMARK                         _______ _______ _______ _____ _____    ______ ____
ROOT
ATOM      1  C   UNL     1      -5.986  -1.977  -2.549  0.00  0.00    +0.201 C 
ATOM      2  O   UNL     1      -6.238  -0.838  -2.878  0.00  0.00    -0.278 OA
ATOM      3  N   UNL     1      -6.883  -2.688  -1.836  0.00  0.00    -0.286 N 
ATOM      4  H   UNL     1      -6.652  -3.572  -1.510  0.00  0.00    +0.155 HD
ENDROOT
BRANCH   3   5
ATOM      5  C   UNL     1      -8.139  -2.153  -1.569  0.00  0.00    +0.049 A 
ATOM      6  C   UNL     1      -9.195  -2.274  -2.505  0.00  0.00    +0.022 A 
ATOM      7  C   UNL     1      -9.016  -2.932  -3.728  0.00  0.00    +0.012 A 
ATOM      8  C   UNL     1     -10.059  -3.026  -4.601  0.00  0.00    +0.001 A 
ATOM      9  C   UNL     1     -11.299  -2.476  -4.291  0.00  0.00    +0.002 A 
ATOM     10  C   UNL     1     -11.508  -1.837  -3.107  0.00  0.00    +0.028 A 
ATOM     11  C   UNL     1     -10.455  -1.716  -2.183  0.00  0.00    +0.075 A 
ATOM     12  N   UNL     1     -10.629  -1.083  -1.020  0.00  0.00    -0.231 NA
ATOM     13  C   UNL     1      -9.649  -0.956  -0.132  0.00  0.00    +0.131 A 
ATOM     14  C   UNL     1      -8.386  -1.491  -0.395  0.00  0.00    +0.016 A 
ATOM     15  C   UNL     1      -7.484  -1.195   0.781  0.00  0.00    +0.060 C 
ATOM     16  C   UNL     1      -8.378  -0.421   1.764  0.00  0.00    +0.117 C 
ATOM     17  N   UNL     1      -9.684  -0.329   1.108  0.00  0.00    -0.285 N 
BRANCH  17  18
ATOM     18  C   UNL     1     -10.807   0.301   1.651  0.00  0.00    +0.036 A 
ATOM     19  C   UNL     1     -10.734   0.894   2.905  0.00  0.00    +0.023 A 
ATOM     20  C   UNL     1     -11.843   1.521   3.438  0.00  0.00    +0.003 A 
ATOM     21  C   UNL     1     -13.030   1.549   2.729  0.00  0.00    +0.020 A 
ATOM     22  C   UNL     1     -13.109   0.954   1.482  0.00  0.00    +0.043 A 
ATOM     23  C   UNL     1     -12.000   0.330   0.941  0.00  0.00    +0.043 A 
ATOM     24 CL   UNL     1     -14.602   0.991   0.596  0.00  0.00    -0.083 Cl
ENDBRANCH  17  18
ENDBRANCH   3   5
BRANCH   1  25
ATOM     25  C   UNL     1      -4.669  -2.599  -2.936  0.00  0.00    +0.019 C 
BRANCH  25  33
ATOM     26  C   UNL     1      -1.674  -0.469  -6.928  0.00  0.00    +0.246 C 
ATOM     27  O   UNL     1      -0.530  -0.873  -7.005  0.00  0.00    -0.270 OA
ATOM     28  N   UNL     1      -2.338  -0.544  -5.758  0.00  0.00    -0.301 N 
ATOM     29  C   UNL     1      -3.758  -0.172  -5.670  0.00  0.00    +0.089 C 
ATOM     30  C   UNL     1      -4.516  -1.321  -4.987  0.00  0.00    -0.059 C 
ATOM     31  C   UNL     1      -2.500  -2.107  -3.893  0.00  0.00    -0.059 C 
ATOM     32  C   UNL     1      -1.660  -0.996  -4.533  0.00  0.00    +0.089 C 
ATOM     33  N   UNL     1      -3.874  -1.603  -3.685  0.00  0.00    +0.387 N 
ATOM     34  H   UNL     1      -3.831  -0.734  -3.140  0.00  0.00    -0.081 HD
BRANCH  26  38
ATOM     35  C   UNL     1      -3.576   1.186 -10.346  0.00  0.00    +0.000 A 
ATOM     36  C   UNL     1      -2.685   0.138 -10.494  0.00  0.00    +0.001 A 
ATOM     37  C   UNL     1      -2.064  -0.404  -9.387  0.00  0.00    +0.013 A 
ATOM     38  C   UNL     1      -2.336   0.107  -8.118  0.00  0.00    +0.037 A 
ATOM     39  C   UNL     1      -3.241   1.161  -7.975  0.00  0.00    +0.013 A 
ATOM     40  C   UNL     1      -3.851   1.697  -9.090  0.00  0.00    +0.001 A 
ENDBRANCH  26  38
ENDBRANCH  25  33
ENDBRANCH   1  25
TORSDOF 5
