REMARK  Name = ZINC08589659
REMARK  8 active torsions:
REMARK  status: ('A' for Active; 'I' for Inactive)
REMARK    1  A    between atoms: C_1  and  O_2
REMARK    2  A    between atoms: O_2  and  C_3
REMARK    3  A    between atoms: C_7  and  C_9
REMARK    4  A    between atoms: C_9  and  N_10
REMARK    5  A    between atoms: C_11  and  C_13
REMARK    6  A    between atoms: C_13  and  N_14
REMARK    7  A    between atoms: C_17  and  S_25
REMARK    8  A    between atoms: S_25  and  N_28
REMARK                            x       y       z     vdW  Elec       q    Type
REMARK                         _______ _______ _______ _____ _____    ______ ____
ROOT
ATOM      1  N   UNL     1       4.113  -7.864  -0.989  0.00  0.00    -0.256 N 
ATOM      2  C   UNL     1       3.539  -8.653   0.018  0.00  0.00    +0.081 A 
ATOM      3  C   UNL     1       2.648  -8.104   0.926  0.00  0.00    +0.055 A 
ATOM      4  C   UNL     1       2.094  -8.900   1.911  0.00  0.00    +0.107 A 
ATOM      5  C   UNL     1       2.426 -10.240   1.993  0.00  0.00    +0.032 A 
ATOM      6  C   UNL     1       3.315 -10.793   1.089  0.00  0.00    +0.049 A 
ATOM      7  C   UNL     1       3.873 -10.004   0.100  0.00  0.00    +0.143 A 
ATOM      8  O   UNL     1       4.746 -10.532  -0.799  0.00  0.00    -0.481 OA
ATOM      9  C   UNL     1       4.727  -9.977  -2.117  0.00  0.00    +0.325 C 
ATOM     10  C   UNL     1       4.712  -8.472  -2.036  0.00  0.00    +0.258 C 
ATOM     11  O   UNL     1       5.238  -7.810  -2.905  0.00  0.00    -0.271 OA
ENDROOT
BRANCH   4  12
ATOM     12  S   UNL     1       0.960  -8.204   3.067  0.00  0.00    +0.061 S 
ATOM     13  O   UNL     1       1.002  -9.029   4.224  0.00  0.00    -0.153 OA
ATOM     14  O   UNL     1       1.233  -6.811   3.115  0.00  0.00    -0.153 OA
BRANCH  12  15
ATOM     15  N   UNL     1      -0.557  -8.368   2.425  0.00  0.00    -0.177 NA
ATOM     16  C   UNL     1      -1.072  -7.309   1.586  0.00  0.00    +0.109 C 
ATOM     17  C   UNL     1      -1.810  -6.265   2.461  0.00  0.00    +0.017 C 
ATOM     18  C   UNL     1      -3.076  -6.821   2.961  0.00  0.00    +0.001 C 
ATOM     19  C   UNL     1      -2.914  -8.033   3.874  0.00  0.00    +0.001 C 
ATOM     20  C   UNL     1      -2.806  -9.281   3.034  0.00  0.00    +0.017 C 
ATOM     21  C   UNL     1      -1.325  -9.591   2.727  0.00  0.00    +0.109 C 
ENDBRANCH  12  15
ENDBRANCH   4  12
BRANCH   1  22
ATOM     22  C   UNL     1       4.060  -6.402  -0.909  0.00  0.00    +0.209 C 
BRANCH  22  24
ATOM     23  N   UNL     1       2.544  -4.586  -1.633  0.00  0.00    -0.310 N 
ATOM     24  C   UNL     1       2.807  -5.907  -1.583  0.00  0.00    +0.231 C 
ATOM     25  O   UNL     1       2.034  -6.698  -2.082  0.00  0.00    -0.274 OA
ATOM     26  H   UNL     1       3.162  -3.954  -1.234  0.00  0.00    +0.149 HD
BRANCH  23  27
ATOM     27  C   UNL     1       1.325  -4.106  -2.289  0.00  0.00    +0.139 C 
BRANCH  27  32
ATOM     28  C   UNL     1       0.606  -0.607  -1.056  0.00  0.00    +0.120 A 
ATOM     29  C   UNL     1       1.173   0.161  -2.063  0.00  0.00    +0.045 A 
ATOM     30  C   UNL     1       1.786  -0.455  -3.136  0.00  0.00    +0.004 A 
ATOM     31  C   UNL     1       1.836  -1.835  -3.208  0.00  0.00    +0.005 A 
ATOM     32  C   UNL     1       1.271  -2.602  -2.207  0.00  0.00    -0.027 A 
ATOM     33  C   UNL     1       0.661  -1.991  -1.128  0.00  0.00    +0.050 A 
BRANCH  28  35
ATOM     34  C   UNL     1      -0.017   1.425   0.010  0.00  0.00    +0.277 C 
ATOM     35  O   UNL     1       0.002  -0.004   0.002  0.00  0.00    -0.495 OA
ENDBRANCH  28  35
ENDBRANCH  27  32
ENDBRANCH  23  27
ENDBRANCH  22  24
ENDBRANCH   1  22
TORSDOF 7
