REMARK  Name = ZINC13401079
REMARK  10 active torsions:
REMARK  status: ('A' for Active; 'I' for Inactive)
REMARK    1  A    between atoms: C_4  and  N_33
REMARK    2  A    between atoms: C_5  and  C_7
REMARK    3  A    between atoms: C_7  and  O_9
REMARK    4  A    between atoms: O_9  and  C_10
REMARK    5  A    between atoms: C_13  and  C_16
REMARK    6  A    between atoms: C_17  and  C_18
REMARK    7  A    between atoms: C_17  and  C_20
REMARK    8  A    between atoms: N_22  and  C_23
REMARK    9  A    between atoms: C_26  and  S_29
REMARK   10  A    between atoms: S_29  and  N_32
REMARK                            x       y       z     vdW  Elec       q    Type
REMARK                         _______ _______ _______ _____ _____    ______ ____
ROOT
ATOM      1  C   UNL     1      -0.265  -4.972   0.777  0.00  0.00    +0.032 C 
ATOM      2  C   UNL     1      -1.001  -6.125   0.616  0.00  0.00    +0.114 C 
ENDROOT
BRANCH   1   6
ATOM      3  C   UNL     1      -2.197  -1.206   0.752  0.00  0.00    +0.132 A 
ATOM      4  C   UNL     1      -0.924  -1.335   0.207  0.00  0.00    +0.047 A 
ATOM      5  C   UNL     1      -0.291  -2.551   0.216  0.00  0.00    +0.011 A 
ATOM      6  C   UNL     1      -0.934  -3.669   0.768  0.00  0.00    -0.023 A 
ATOM      7  C   UNL     1      -2.219  -3.534   1.312  0.00  0.00    +0.011 A 
ATOM      8  C   UNL     1      -2.840  -2.311   1.301  0.00  0.00    +0.047 A 
BRANCH   3   9
ATOM      9  O   UNL     1      -2.816   0.001   0.745  0.00  0.00    -0.422 OA
BRANCH   9  10
ATOM     10  C   UNL     1      -2.954   0.625   1.931  0.00  0.00    +0.347 C 
ATOM     11  O   UNL     1      -2.450   0.151   2.929  0.00  0.00    -0.244 OA
BRANCH  10  16
ATOM     12  C   UNL     1      -5.724   3.137   1.589  0.00  0.00    +0.001 A 
ATOM     13  C   UNL     1      -5.153   4.250   2.180  0.00  0.00    +0.002 A 
ATOM     14  C   UNL     1      -3.868   4.188   2.689  0.00  0.00    +0.033 A 
ATOM     15  C   UNL     1      -3.148   3.013   2.611  0.00  0.00    +0.140 A 
ATOM     16  C   UNL     1      -3.719   1.886   2.017  0.00  0.00    +0.089 A 
ATOM     17  C   UNL     1      -5.014   1.958   1.500  0.00  0.00    +0.017 A 
BRANCH  15  18
ATOM     18  N   UNL     1      -1.773   2.949   3.156  0.00  0.00    +0.057 N 
ATOM     19  O   UNL     1      -1.330   3.881   3.802  0.00  0.00    -0.126 OA
ATOM     20  O   UNL     1      -1.086   1.963   2.959  0.00  0.00    -0.126 OA
ENDBRANCH  15  18
ENDBRANCH  10  16
ENDBRANCH   9  10
ENDBRANCH   3   9
ENDBRANCH   1   6
BRANCH   2  21
ATOM     21  C   UNL     1      -0.358  -7.438   0.782  0.00  0.00    +0.259 C 
ATOM     22  O   UNL     1       0.825  -7.505   1.062  0.00  0.00    -0.269 OA
ATOM     23  N   UNL     1      -1.078  -8.566   0.625  0.00  0.00    -0.281 N 
ATOM     24  H   UNL     1      -1.998  -8.516   0.322  0.00  0.00    +0.155 HD
BRANCH  23  25
ATOM     25  C   UNL     1      -0.499  -9.809   0.901  0.00  0.00    +0.034 A 
ATOM     26  C   UNL     1      -0.888 -10.932   0.182  0.00  0.00    +0.025 A 
ATOM     27  C   UNL     1      -0.311 -12.157   0.452  0.00  0.00    +0.030 A 
ATOM     28  C   UNL     1       0.646 -12.268   1.445  0.00  0.00    +0.105 A 
ATOM     29  C   UNL     1       1.031 -11.153   2.166  0.00  0.00    +0.030 A 
ATOM     30  C   UNL     1       0.461  -9.924   1.897  0.00  0.00    +0.025 A 
BRANCH  28  31
ATOM     31  S   UNL     1       1.376 -13.834   1.791  0.00  0.00    +0.056 S 
ATOM     32  O   UNL     1       1.242 -14.614   0.611  0.00  0.00    -0.153 OA
ATOM     33  O   UNL     1       2.636 -13.571   2.392  0.00  0.00    -0.153 OA
BRANCH  31  34
ATOM     34  N   UNL     1       0.443 -14.564   2.949  0.00  0.00    -0.204 NA
ATOM     35  H   UNL     1       0.377 -15.531   2.980  0.00  0.00    +0.144 HD
ATOM     36  H   UNL     1      -0.037 -14.024   3.596  0.00  0.00    +0.144 HD
ENDBRANCH  31  34
ENDBRANCH  28  31
ENDBRANCH  23  25
ENDBRANCH   2  21
BRANCH   2  37
ATOM     37  C   UNL     1      -2.393  -6.046   0.288  0.00  0.00    +0.104 C 
ATOM     38  N   UNL     1      -3.497  -5.984   0.027  0.00  0.00    -0.191 NA
ENDBRANCH   2  37
TORSDOF 10
