REMARK  Name = ZINC35778011
REMARK  16 active torsions:
REMARK  status: ('A' for Active; 'I' for Inactive)
REMARK    1  A    between atoms: C_1  and  C_2
REMARK    2  A    between atoms: C_6  and  O_8
REMARK    3  A    between atoms: O_8  and  C_9
REMARK    4  A    between atoms: C_10  and  C_21
REMARK    5  A    between atoms: C_11  and  C_20
REMARK    6  A    between atoms: N_13  and  C_14
REMARK    7  A    between atoms: C_21  and  N_22
REMARK    8  A    between atoms: N_22  and  C_23
REMARK    9  A    between atoms: N_22  and  C_31
REMARK   10  A    between atoms: C_23  and  C_24
REMARK   11  A    between atoms: C_24  and  C_26
REMARK   12  A    between atoms: C_24  and  O_30
REMARK   13  A    between atoms: C_26  and  C_27
REMARK   14  A    between atoms: C_27  and  C_28
REMARK   15  A    between atoms: C_31  and  C_32
REMARK   16  A    between atoms: C_31  and  C_33
REMARK                            x       y       z     vdW  Elec       q    Type
REMARK                         _______ _______ _______ _____ _____    ______ ____
ROOT
ATOM      1  C   UNL     1      -0.440  -4.018   2.328  0.00  0.00    +0.225 A 
ATOM      2  C   UNL     1       0.340  -4.632   3.258  0.00  0.00    +0.021 A 
ATOM      3  C   UNL     1       1.010  -5.685   2.628  0.00  0.00    +0.065 A 
ATOM      4  N   UNL     1       0.653  -5.710   1.369  0.00  0.00    -0.168 NA
ATOM      5  N   UNL     1      -0.265  -4.675   1.150  0.00  0.00    -0.200 N 
ATOM      6  C   UNL     1       1.981  -6.630   3.288  0.00  0.00    +0.068 C 
ENDROOT
BRANCH   5   7
ATOM      7  C   UNL     1      -0.889  -4.369  -0.067  0.00  0.00    +0.069 A 
ATOM      8  C   UNL     1      -2.225  -3.989  -0.087  0.00  0.00    +0.028 A 
ATOM      9  C   UNL     1      -2.837  -3.688  -1.288  0.00  0.00    +0.002 A 
ATOM     10  C   UNL     1      -2.123  -3.765  -2.469  0.00  0.00    +0.000 A 
ATOM     11  C   UNL     1      -0.793  -4.144  -2.452  0.00  0.00    +0.002 A 
ATOM     12  C   UNL     1      -0.173  -4.440  -1.254  0.00  0.00    +0.028 A 
ENDBRANCH   5   7
BRANCH   1  13
ATOM     13  O   UNL     1      -1.250  -2.949   2.539  0.00  0.00    -0.438 OA
BRANCH  13  19
ATOM     14  C   UNL     1      -1.957   1.870   2.223  0.00  0.00    +0.044 C 
ATOM     15  C   UNL     1      -1.065   0.660   2.118  0.00  0.00    -0.047 A 
ATOM     16  C   UNL     1       0.263   0.809   1.762  0.00  0.00    +0.003 A 
ATOM     17  C   UNL     1       1.084  -0.299   1.665  0.00  0.00    +0.004 A 
ATOM     18  C   UNL     1       0.580  -1.559   1.925  0.00  0.00    +0.046 A 
ATOM     19  C   UNL     1      -0.751  -1.711   2.283  0.00  0.00    +0.131 A 
ATOM     20  C   UNL     1      -1.572  -0.597   2.384  0.00  0.00    +0.049 A 
ENDBRANCH  13  19
ENDBRANCH   1  13
BRANCH   2  21
ATOM     21  C   UNL     1       0.459  -4.246   4.710  0.00  0.00    -0.035 C 
BRANCH  21  22
ATOM     22  N   UNL     1      -0.873  -4.245   5.328  0.00  0.00    +0.386 N 
ATOM     23  H   UNL     1      -1.497  -3.668   4.783  0.00  0.00    -0.081 HD
BRANCH  22  24
ATOM     24  C   UNL     1      -1.392  -5.619   5.374  0.00  0.00    -0.074 C 
ATOM     25  C   UNL     1      -1.695  -6.097   3.952  0.00  0.00    -0.014 C 
ATOM     26  C   UNL     1      -0.347  -6.538   6.009  0.00  0.00    -0.014 C 
ENDBRANCH  22  24
BRANCH  22  27
ATOM     27  C   UNL     1      -0.780  -3.712   6.693  0.00  0.00    -0.046 C 
BRANCH  27  28
ATOM     28  C   UNL     1      -2.187  -3.499   7.255  0.00  0.00    +0.098 C 
BRANCH  28  29
ATOM     29  O   UNL     1      -2.812  -4.767   7.466  0.00  0.00    -0.394 OA
ATOM     30  H   UNL     1      -2.384  -5.308   8.144  0.00  0.00    +0.210 HD
ENDBRANCH  28  29
BRANCH  28  31
ATOM     31  C   UNL     1      -2.096  -2.748   8.585  0.00  0.00    +0.033 C 
BRANCH  31  32
ATOM     32  C   UNL     1      -3.506  -2.425   9.085  0.00  0.00    +0.029 C 
BRANCH  32  33
ATOM     33  C   UNL     1      -3.417  -1.685  10.395  0.00  0.00    -0.034 C 
ATOM     34  C   UNL     1      -4.006  -0.523  10.532  0.00  0.00    +0.004 C 
ENDBRANCH  32  33
ENDBRANCH  31  32
ENDBRANCH  28  31
ENDBRANCH  27  28
ENDBRANCH  22  27
ENDBRANCH  21  22
ENDBRANCH   2  21
TORSDOF 12
