REMARK  Name = ZINC07914857
REMARK  14 active torsions:
REMARK  status: ('A' for Active; 'I' for Inactive)
REMARK    1  A    between atoms: C_1  and  C_2
REMARK    2  A    between atoms: C_2  and  N_3
REMARK    3  A    between atoms: N_3  and  C_4
REMARK    4  A    between atoms: N_3  and  C_20
REMARK    5  A    between atoms: C_4  and  C_5
REMARK    6  A    between atoms: N_7  and  C_8
REMARK    7  A    between atoms: C_8  and  C_9
REMARK    8  A    between atoms: N_11  and  C_12
REMARK    9  A    between atoms: C_17  and  C_18
REMARK   10  A    between atoms: C_20  and  C_21
REMARK   11  A    between atoms: N_23  and  C_24
REMARK   12  A    between atoms: C_24  and  C_25
REMARK   13  A    between atoms: C_24  and  C_26
REMARK   14  A    between atoms: C_24  and  C_27
REMARK                            x       y       z     vdW  Elec       q    Type
REMARK                         _______ _______ _______ _____ _____    ______ ____
ROOT
ATOM      1  C   UNL     1       2.579  -0.505  -2.655  0.00  0.00    +0.197 C 
ATOM      2  O   UNL     1       1.858  -0.959  -3.518  0.00  0.00    -0.278 OA
ATOM      3  N   UNL     1       3.860  -0.197  -2.939  0.00  0.00    -0.308 N 
ATOM      4  H   UNL     1       4.437   0.166  -2.249  0.00  0.00    +0.149 HD
ENDROOT
BRANCH   1   5
ATOM      5  C   UNL     1       2.043  -0.286  -1.263  0.00  0.00    +0.019 C 
BRANCH   5   6
ATOM      6  N   UNL     1       0.615  -0.630  -1.229  0.00  0.00    +0.391 N 
ATOM      7  H   UNL     1       0.132  -0.136  -1.965  0.00  0.00    -0.080 HD
BRANCH   6   9
ATOM      8  C   UNL     1       0.096   1.276   0.218  0.00  0.00    -0.017 C 
ATOM      9  C   UNL     1       0.050  -0.246   0.071  0.00  0.00    -0.081 C 
ENDBRANCH   6   9
BRANCH   6  10
ATOM     10  C   UNL     1       0.456  -2.077  -1.425  0.00  0.00    +0.019 C 
BRANCH  10  11
ATOM     11  C   UNL     1      -1.011  -2.413  -1.512  0.00  0.00    +0.197 C 
ATOM     12  O   UNL     1      -1.841  -1.534  -1.421  0.00  0.00    -0.278 OA
ATOM     13  N   UNL     1      -1.399  -3.691  -1.692  0.00  0.00    -0.312 N 
ATOM     14  H   UNL     1      -0.735  -4.394  -1.765  0.00  0.00    +0.149 HD
BRANCH  13  15
ATOM     15  C   UNL     1      -2.825  -4.018  -1.778  0.00  0.00    +0.026 C 
ATOM     16  C   UNL     1      -3.450  -3.272  -2.958  0.00  0.00    +0.031 C 
ATOM     17  C   UNL     1      -2.991  -5.526  -1.981  0.00  0.00    +0.031 C 
ATOM     18  C   UNL     1      -3.523  -3.599  -0.482  0.00  0.00    +0.031 C 
ENDBRANCH  13  15
ENDBRANCH  10  11
ENDBRANCH   6  10
ENDBRANCH   5   6
ENDBRANCH   1   5
BRANCH   3  19
ATOM     19  C   UNL     1       4.382  -0.410  -4.291  0.00  0.00    +0.200 C 
BRANCH  19  20
ATOM     20  C   UNL     1       5.827   0.011  -4.344  0.00  0.00    +0.234 C 
ATOM     21  O   UNL     1       6.369   0.447  -3.350  0.00  0.00    -0.274 OA
ATOM     22  N   UNL     1       6.519  -0.096  -5.496  0.00  0.00    -0.284 N 
ATOM     23  H   UNL     1       6.069  -0.379  -6.308  0.00  0.00    +0.155 HD
BRANCH  22  24
ATOM     24  C   UNL     1       7.886   0.201  -5.522  0.00  0.00    +0.038 A 
ATOM     25  C   UNL     1       8.421   1.094  -4.602  0.00  0.00    +0.023 A 
ATOM     26  C   UNL     1       9.771   1.385  -4.630  0.00  0.00    +0.003 A 
ATOM     27  C   UNL     1      10.590   0.790  -5.572  0.00  0.00    +0.020 A 
ATOM     28  C   UNL     1      10.060  -0.100  -6.489  0.00  0.00    +0.046 A 
ATOM     29  C   UNL     1       8.711  -0.400  -6.463  0.00  0.00    -0.011 A 
ATOM     30  C   UNL     1       8.135  -1.373  -7.459  0.00  0.00    +0.047 C 
ATOM     31 CL   UNL     1      11.092  -0.845  -7.671  0.00  0.00    -0.083 Cl
ENDBRANCH  22  24
ENDBRANCH  19  20
ENDBRANCH   3  19
TORSDOF 9
