REMARK  Name = ZINC43093080
REMARK  7 active torsions:
REMARK  status: ('A' for Active; 'I' for Inactive)
REMARK    1  A    between atoms: C_1  and  C_2
REMARK    2  A    between atoms: C_2  and  C_4
REMARK    3  A    between atoms: C_2  and  N_23
REMARK    4  A    between atoms: C_4  and  C_6
REMARK    5  A    between atoms: C_4  and  N_13
REMARK    6  A    between atoms: C_17  and  C_19
REMARK    7  A    between atoms: N_21  and  C_22
REMARK                            x       y       z     vdW  Elec       q    Type
REMARK                         _______ _______ _______ _____ _____    ______ ____
ROOT
ATOM      1  C   UNL     1       0.816  -0.694   0.960  0.00  0.00    +0.074 C 
ENDROOT
BRANCH   1   2
ATOM      2  C   UNL     1       0.705  -2.137   0.539  0.00  0.00    -0.018 A 
ATOM      3  C   UNL     1      -0.263  -2.949   1.102  0.00  0.00    +0.006 A 
ATOM      4  C   UNL     1      -0.365  -4.272   0.716  0.00  0.00    +0.000 A 
ATOM      5  C   UNL     1       0.500  -4.785  -0.233  0.00  0.00    +0.001 A 
ATOM      6  C   UNL     1       1.468  -3.974  -0.795  0.00  0.00    +0.015 A 
ATOM      7  C   UNL     1       1.567  -2.648  -0.413  0.00  0.00    +0.022 A 
ATOM      8 BR   UNL     1       2.887  -1.537  -1.188  0.00  0.00    -0.050 Br
ENDBRANCH   1   2
BRANCH   1   9
ATOM      9  N   UNL     1       0.075  -0.491   2.212  0.00  0.00    -0.286 NA
ATOM     10  C   UNL     1      -1.391  -0.556   1.979  0.00  0.00    +0.086 C 
ATOM     11  C   UNL     1      -1.961  -0.853   3.389  0.00  0.00    +0.017 C 
ATOM     12  C   UNL     1      -0.912  -1.817   3.990  0.00  0.00    +0.029 C 
ATOM     13  C   UNL     1       0.377  -1.561   3.187  0.00  0.00    +0.144 C 
BRANCH  13  14
ATOM     14  C   UNL     1       1.479  -1.116   4.113  0.00  0.00    +0.230 C 
ATOM     15  O   UNL     1       1.973  -0.016   3.983  0.00  0.00    -0.274 OA
ATOM     16  N   UNL     1       1.916  -1.941   5.085  0.00  0.00    -0.317 N 
ATOM     17  C   UNL     1       2.988  -1.508   5.986  0.00  0.00    +0.128 C 
ATOM     18  H   UNL     1       1.521  -2.820   5.189  0.00  0.00    +0.148 HD
ENDBRANCH  13  14
ENDBRANCH   1   9
BRANCH   1  20
ATOM     19  C   UNL     1       0.147   1.642   0.379  0.00  0.00    -0.012 C 
ATOM     20  C   UNL     1       0.228   0.202  -0.132  0.00  0.00    -0.056 C 
BRANCH  20  21
ATOM     21  N   UNL     1      -1.118  -0.271  -0.481  0.00  0.00    +0.381 N 
ATOM     22  H   UNL     1      -1.401   0.138  -1.359  0.00  0.00    -0.090 HD
ATOM     23  H   UNL     1      -1.111  -1.276  -0.565  0.00  0.00    -0.090 HD
ATOM     24  H   UNL     1      -1.768   0.002   0.241  0.00  0.00    -0.090 HD
ENDBRANCH  20  21
ENDBRANCH   1  20
TORSDOF 5
