REMARK  Name = ZINC44594575
REMARK  9 active torsions:
REMARK  status: ('A' for Active; 'I' for Inactive)
REMARK    1  A    between atoms: C_1  and  C_2
REMARK    2  A    between atoms: C_2  and  C_4
REMARK    3  A    between atoms: C_2  and  N_10
REMARK    4  A    between atoms: C_4  and  C_5
REMARK    5  A    between atoms: N_10  and  S_11
REMARK    6  A    between atoms: S_11  and  C_14
REMARK    7  A    between atoms: C_17  and  C_20
REMARK    8  A    between atoms: C_20  and  C_21
REMARK    9  A    between atoms: C_21  and  N_22
REMARK                            x       y       z     vdW  Elec       q    Type
REMARK                         _______ _______ _______ _____ _____    ______ ____
ROOT
ATOM      1  S   UNL     1       2.300  -0.849  -1.146  0.00  0.00    +0.059 S 
ATOM      2  O   UNL     1       2.660  -1.296  -2.446  0.00  0.00    -0.153 OA
ATOM      3  O   UNL     1       2.947   0.245  -0.511  0.00  0.00    -0.153 OA
ENDROOT
BRANCH   1   4
ATOM      4  C   UNL     1       2.478  -2.233  -0.071  0.00  0.00    +0.105 A 
ATOM      5  C   UNL     1       2.680  -2.035   1.282  0.00  0.00    +0.029 A 
ATOM      6  C   UNL     1       2.819  -3.121   2.126  0.00  0.00    +0.005 A 
ATOM      7  C   UNL     1       2.756  -4.405   1.617  0.00  0.00    -0.049 A 
ATOM      8  C   UNL     1       2.553  -4.603   0.264  0.00  0.00    +0.005 A 
ATOM      9  C   UNL     1       2.409  -3.517  -0.579  0.00  0.00    +0.029 A 
BRANCH   7  10
ATOM     10  C   UNL     1       2.908  -5.589   2.537  0.00  0.00    +0.015 C 
BRANCH  10  11
ATOM     11  C   UNL     1       1.534  -6.005   3.065  0.00  0.00    -0.082 C 
BRANCH  11  12
ATOM     12  N   UNL     1       1.683  -7.159   3.962  0.00  0.00    +0.378 N 
ATOM     13  H   UNL     1       2.095  -7.928   3.455  0.00  0.00    -0.090 HD
ATOM     14  H   UNL     1       2.279  -6.909   4.736  0.00  0.00    -0.090 HD
ATOM     15  H   UNL     1       0.776  -7.434   4.310  0.00  0.00    -0.090 HD
ENDBRANCH  11  12
ENDBRANCH  10  11
ENDBRANCH   7  10
ENDBRANCH   1   4
BRANCH   1  16
ATOM     16  N   UNL     1       0.688  -0.476  -1.203  0.00  0.00    -0.187 NA
ATOM     17  H   UNL     1       0.197  -0.571  -2.035  0.00  0.00    +0.148 HD
BRANCH  16  19
ATOM     18  C   UNL     1      -0.019   1.526   0.010  0.00  0.00    +0.026 C 
ATOM     19  C   UNL     1       0.002  -0.004   0.002  0.00  0.00    +0.078 C 
BRANCH  19  20
ATOM     20  C   UNL     1      -1.433  -0.534   0.013  0.00  0.00    +0.055 C 
BRANCH  20  21
ATOM     21  C   UNL     1      -1.414  -2.036   0.129  0.00  0.00    -0.039 A 
ATOM     22  C   UNL     1      -1.375  -2.826  -1.005  0.00  0.00    +0.011 A 
ATOM     23  C   UNL     1      -1.358  -4.175  -0.866  0.00  0.00    +0.045 A 
ATOM     24  S   UNL     1      -1.397  -4.363   0.909  0.00  0.00    -0.105 S 
ATOM     25  C   UNL     1      -1.428  -2.633   1.345  0.00  0.00    +0.048 A 
ENDBRANCH  20  21
ENDBRANCH  19  20
ENDBRANCH  16  19
ENDBRANCH   1  16
TORSDOF 8
