REMARK  Name = ZINC64801704
REMARK  9 active torsions:
REMARK  status: ('A' for Active; 'I' for Inactive)
REMARK    1  A    between atoms: C_1  and  C_2
REMARK    2  A    between atoms: C_2  and  N_3
REMARK    3  A    between atoms: C_6  and  C_28
REMARK    4  A    between atoms: C_8  and  N_10
REMARK    5  A    between atoms: N_10  and  C_11
REMARK    6  A    between atoms: C_14  and  N_17
REMARK    7  A    between atoms: N_17  and  S_18
REMARK    8  A    between atoms: S_18  and  C_21
REMARK    9  A    between atoms: C_25  and  C_27
REMARK                            x       y       z     vdW  Elec       q    Type
REMARK                         _______ _______ _______ _____ _____    ______ ____
ROOT
ATOM      1  C   UNL     1       2.013  -5.481  -4.069  0.00  0.00    +0.032 A 
ATOM      2  C   UNL     1       1.622  -6.535  -3.254  0.00  0.00    +0.025 A 
ATOM      3  C   UNL     1       2.049  -7.819  -3.533  0.00  0.00    +0.026 A 
ATOM      4  C   UNL     1       2.869  -8.055  -4.628  0.00  0.00    +0.048 A 
ATOM      5  C   UNL     1       3.260  -7.001  -5.443  0.00  0.00    +0.026 A 
ATOM      6  C   UNL     1       2.829  -5.718  -5.167  0.00  0.00    +0.025 A 
ENDROOT
BRANCH   1   7
ATOM      7  N   UNL     1       1.580  -4.179  -3.786  0.00  0.00    -0.299 N 
ATOM      8  H   UNL     1       1.415  -3.555  -4.510  0.00  0.00    +0.154 HD
BRANCH   7  14
ATOM      9  N   UNL     1       1.901  -5.074   0.809  0.00  0.00    -0.315 N 
ATOM     10  C   UNL     1       1.541  -4.212  -0.212  0.00  0.00    +0.195 A 
ATOM     11  N   UNL     1       1.023  -3.030   0.091  0.00  0.00    -0.332 N 
ATOM     12  C   UNL     1       0.667  -2.178  -0.859  0.00  0.00    +0.019 A 
ATOM     13  C   UNL     1       0.840  -2.531  -2.183  0.00  0.00    +0.064 A 
ATOM     14  C   UNL     1       1.388  -3.783  -2.472  0.00  0.00    +0.128 A 
ATOM     15  N   UNL     1       1.728  -4.586  -1.469  0.00  0.00    -0.201 NA
ATOM     16  C   UNL     1       0.079  -0.838  -0.498  0.00  0.00    +0.063 C 
ATOM     17  H   UNL     1       2.284  -5.940   0.600  0.00  0.00    +0.149 HD
ATOM     18  H   UNL     1       0.903  -2.786   1.022  0.00  0.00    +0.168 HD
BRANCH   9  20
ATOM     19  C   UNL     1       2.178  -5.803   3.127  0.00  0.00    +0.024 C 
ATOM     20  C   UNL     1       1.701  -4.678   2.205  0.00  0.00    +0.101 C 
ENDBRANCH   9  20
ENDBRANCH   7  14
ENDBRANCH   1   7
BRANCH   4  21
ATOM     21  N   UNL     1       3.302  -9.356  -4.910  0.00  0.00    -0.216 N 
ATOM     22  H   UNL     1       3.629  -9.924  -4.195  0.00  0.00    +0.174 HD
BRANCH  21  23
ATOM     23  S   UNL     1       3.256  -9.925  -6.464  0.00  0.00    +0.072 S 
ATOM     24  O   UNL     1       3.934  -8.968  -7.267  0.00  0.00    -0.150 OA
ATOM     25  O   UNL     1       3.651 -11.289  -6.409  0.00  0.00    -0.150 OA
BRANCH  23  26
ATOM     26  C   UNL     1       1.571  -9.908  -6.976  0.00  0.00    +0.109 A 
ATOM     27  C   UNL     1       0.742 -10.969  -6.662  0.00  0.00    +0.029 A 
ATOM     28  C   UNL     1      -0.580 -10.956  -7.063  0.00  0.00    +0.002 A 
ATOM     29  C   UNL     1      -1.075  -9.882  -7.779  0.00  0.00    +0.003 A 
ATOM     30  C   UNL     1      -0.247  -8.820  -8.092  0.00  0.00    -0.049 A 
ATOM     31  C   UNL     1       1.075  -8.832  -7.687  0.00  0.00    +0.032 A 
ATOM     32  C   UNL     1      -0.786  -7.649  -8.873  0.00  0.00    +0.044 C 
ENDBRANCH  23  26
ENDBRANCH  21  23
ENDBRANCH   4  21
TORSDOF 6
