REMARK  Name = ZINC38547015
REMARK  9 active torsions:
REMARK  status: ('A' for Active; 'I' for Inactive)
REMARK    1  A    between atoms: C_1  and  C_2
REMARK    2  A    between atoms: N_8  and  C_9
REMARK    3  A    between atoms: C_9  and  C_11
REMARK    4  A    between atoms: C_9  and  C_19
REMARK    5  A    between atoms: C_14  and  S_17
REMARK    6  A    between atoms: S_17  and  C_18
REMARK    7  A    between atoms: C_21  and  C_32
REMARK    8  A    between atoms: C_23  and  N_24
REMARK    9  A    between atoms: C_25  and  C_27
REMARK                            x       y       z     vdW  Elec       q    Type
REMARK                         _______ _______ _______ _____ _____    ______ ____
ROOT
ATOM      1  C   UNL     1      -0.043  -2.200   3.637  0.00  0.00    +0.135 C 
ENDROOT
BRANCH   1   9
ATOM      2  C   UNL     1       3.390  -5.785   4.916  0.00  0.00    +0.044 C 
ATOM      3  C   UNL     1       2.489  -5.545   3.732  0.00  0.00    -0.046 A 
ATOM      4  C   UNL     1       2.460  -6.438   2.668  0.00  0.00    +0.021 A 
ATOM      5  C   UNL     1       1.624  -6.189   1.599  0.00  0.00    +0.084 A 
ATOM      6  N   UNL     1       0.854  -5.117   1.577  0.00  0.00    -0.350 N 
ATOM      7  C   UNL     1       0.853  -4.242   2.571  0.00  0.00    +0.097 A 
ATOM      8  C   UNL     1       1.668  -4.433   3.682  0.00  0.00    +0.045 A 
ATOM      9  N   UNL     1       0.027  -3.127   2.505  0.00  0.00    -0.320 N 
ATOM     10  H   UNL     1      -0.503  -2.962   1.710  0.00  0.00    +0.148 HD
ATOM     11  H   UNL     1       0.276  -4.966   0.813  0.00  0.00    +0.166 HD
ENDBRANCH   1   9
BRANCH   1  12
ATOM     12  C   UNL     1      -1.374  -1.493   3.626  0.00  0.00    -0.023 A 
ATOM     13  C   UNL     1      -1.870  -0.975   2.444  0.00  0.00    +0.007 A 
ATOM     14  C   UNL     1      -3.089  -0.326   2.430  0.00  0.00    +0.015 A 
ATOM     15  C   UNL     1      -3.818  -0.195   3.606  0.00  0.00    +0.008 A 
ATOM     16  C   UNL     1      -3.316  -0.717   4.792  0.00  0.00    +0.015 A 
ATOM     17  C   UNL     1      -2.099  -1.369   4.797  0.00  0.00    +0.007 A 
BRANCH  15  18
ATOM     18  S   UNL     1      -5.373   0.633   3.593  0.00  0.00    -0.129 S 
ATOM     19  C   UNL     1      -5.927   0.553   5.318  0.00  0.00    +0.090 C 
ENDBRANCH  15  18
ENDBRANCH   1  12
BRANCH   1  20
ATOM     20  C   UNL     1       1.065  -1.185   3.525  0.00  0.00    +0.006 A 
ATOM     21  C   UNL     1       1.602  -0.862   2.293  0.00  0.00    +0.018 A 
ATOM     22  C   UNL     1       2.598   0.054   2.228  0.00  0.00    -0.011 A 
ATOM     23  S   UNL     1       2.809   0.497   3.944  0.00  0.00    -0.078 S 
ATOM     24  C   UNL     1       1.553  -0.565   4.636  0.00  0.00    +0.078 A 
ATOM     25  C   UNL     1       3.336   0.568   1.018  0.00  0.00    +0.051 C 
BRANCH  24  26
ATOM     26  N   UNL     1       1.171  -0.722   5.970  0.00  0.00    -0.273 N 
ATOM     27  C   UNL     1       1.783  -0.007   6.935  0.00  0.00    +0.284 C 
ATOM     28  O   UNL     1       2.670   0.774   6.644  0.00  0.00    -0.266 OA
ATOM     29  H   UNL     1       0.464  -1.345   6.203  0.00  0.00    +0.156 HD
BRANCH  27  30
ATOM     30  C   UNL     1       1.382  -0.172   8.336  0.00  0.00    +0.189 A 
ATOM     31  C   UNL     1       1.913   0.490   9.406  0.00  0.00    +0.054 A 
ATOM     32  C   UNL     1       1.235   0.027  10.544  0.00  0.00    +0.042 A 
ATOM     33  C   UNL     1       0.331  -0.885  10.124  0.00  0.00    +0.196 A 
ATOM     34  O   UNL     1       0.419  -0.999   8.793  0.00  0.00    -0.458 OA
ENDBRANCH  27  30
ENDBRANCH  24  26
ENDBRANCH   1  20
TORSDOF 6
