REMARK  Name = ZINC63234367
REMARK  13 active torsions:
REMARK  status: ('A' for Active; 'I' for Inactive)
REMARK    1  A    between atoms: C_1  and  O_2
REMARK    2  A    between atoms: O_2  and  C_3
REMARK    3  A    between atoms: C_6  and  C_9
REMARK    4  A    between atoms: C_9  and  C_11
REMARK    5  A    between atoms: C_9  and  C_31
REMARK    6  A    between atoms: C_11  and  N_12
REMARK    7  A    between atoms: N_12  and  C_13
REMARK    8  A    between atoms: C_13  and  C_15
REMARK    9  A    between atoms: C_18  and  O_23
REMARK   10  A    between atoms: C_19  and  O_21
REMARK   11  A    between atoms: O_21  and  C_22
REMARK   12  A    between atoms: O_23  and  C_24
REMARK   13  A    between atoms: C_24  and  C_25
REMARK                            x       y       z     vdW  Elec       q    Type
REMARK                         _______ _______ _______ _____ _____    ______ ____
ROOT
ATOM      1  C   UNL     1      -5.087  -3.506   1.284  0.00  0.00    +0.114 C 
ENDROOT
BRANCH   1   2
ATOM      2  N   UNL     1      -6.427  -4.096   1.355  0.00  0.00    -0.337 N 
ATOM      3  H   UNL     1      -7.080  -3.899   0.665  0.00  0.00    +0.147 HD
BRANCH   2   4
ATOM      4  C   UNL     1      -6.751  -4.910   2.378  0.00  0.00    +0.080 C 
ATOM      5  S   UNL     1      -5.598  -5.257   3.595  0.00  0.00    -0.035 S 
BRANCH   4   6
ATOM      6  C   UNL     1      -8.099  -5.503   2.449  0.00  0.00    +0.007 A 
ATOM      7  C   UNL     1      -8.763  -5.875   1.278  0.00  0.00    +0.014 A 
ATOM      8  C   UNL     1     -10.023  -6.429   1.346  0.00  0.00    +0.050 A 
ATOM      9  C   UNL     1     -10.635  -6.620   2.578  0.00  0.00    +0.162 A 
ATOM     10  C   UNL     1      -9.978  -6.251   3.750  0.00  0.00    +0.162 A 
ATOM     11  C   UNL     1      -8.713  -5.700   3.690  0.00  0.00    +0.059 A 
BRANCH  10  12
ATOM     12  O   UNL     1     -10.581  -6.439   4.955  0.00  0.00    -0.491 OA
ATOM     13  C   UNL     1      -9.850  -6.038   6.116  0.00  0.00    +0.277 C 
ENDBRANCH  10  12
BRANCH   9  14
ATOM     14  O   UNL     1     -11.877  -7.166   2.640  0.00  0.00    -0.484 OA
BRANCH  14  15
ATOM     15  C   UNL     1     -12.493  -7.521   1.400  0.00  0.00    +0.264 C 
BRANCH  15  16
ATOM     16  C   UNL     1     -13.855  -8.107   1.665  0.00  0.00    -0.010 A 
ATOM     17  C   UNL     1     -13.995  -9.468   1.864  0.00  0.00    +0.007 A 
ATOM     18  C   UNL     1     -15.245 -10.006   2.107  0.00  0.00    +0.000 A 
ATOM     19  C   UNL     1     -16.355  -9.183   2.152  0.00  0.00    +0.000 A 
ATOM     20  C   UNL     1     -16.215  -7.822   1.953  0.00  0.00    +0.000 A 
ATOM     21  C   UNL     1     -14.964  -7.284   1.714  0.00  0.00    +0.007 A 
ENDBRANCH  15  16
ENDBRANCH  14  15
ENDBRANCH   9  14
ENDBRANCH   4   6
ENDBRANCH   2   4
ENDBRANCH   1   2
BRANCH   1  22
ATOM     22  C   UNL     1      -4.981  -2.629   0.035  0.00  0.00    +0.064 C 
BRANCH  22  23
ATOM     23  C   UNL     1      -5.103  -3.490  -1.196  0.00  0.00    -0.033 C 
ATOM     24  C   UNL     1      -6.039  -3.392  -2.167  0.00  0.00    -0.000 A 
ATOM     25  C   UNL     1      -7.180  -2.489  -2.362  0.00  0.00    +0.010 A 
ATOM     26  C   UNL     1      -7.956  -2.639  -3.459  0.00  0.00    +0.001 A 
ATOM     27  C   UNL     1      -7.699  -3.633  -4.413  0.00  0.00    +0.002 A 
ATOM     28  C   UNL     1      -6.670  -4.500  -4.304  0.00  0.00    +0.026 A 
ATOM     29  C   UNL     1      -5.789  -4.433  -3.190  0.00  0.00    +0.043 A 
ATOM     30  N   UNL     1      -4.739  -5.147  -2.862  0.00  0.00    -0.380 N 
ATOM     31  C   UNL     1      -4.201  -4.636  -1.597  0.00  0.00    +0.145 C 
ATOM     32  H   UNL     1      -4.377  -5.888  -3.374  0.00  0.00    +0.160 HD
ENDBRANCH  22  23
BRANCH  22  36
ATOM     33  C   UNL     1      -1.200  -0.637   0.010  0.00  0.00    +0.120 A 
ATOM     34  C   UNL     1      -2.375   0.101   0.019  0.00  0.00    +0.046 A 
ATOM     35  C   UNL     1      -3.596  -0.545   0.027  0.00  0.00    +0.008 A 
ATOM     36  C   UNL     1      -3.648  -1.927   0.026  0.00  0.00    -0.038 A 
ATOM     37  C   UNL     1      -2.479  -2.665   0.017  0.00  0.00    +0.008 A 
ATOM     38  C   UNL     1      -1.255  -2.024   0.003  0.00  0.00    +0.046 A 
BRANCH  33  40
ATOM     39  C   UNL     1      -0.017   1.425   0.010  0.00  0.00    +0.277 C 
ATOM     40  O   UNL     1       0.002  -0.004   0.002  0.00  0.00    -0.495 OA
ENDBRANCH  33  40
ENDBRANCH  22  36
ENDBRANCH   1  22
TORSDOF 11
