REMARK  Name = ZINC63573077
REMARK  7 active torsions:
REMARK  status: ('A' for Active; 'I' for Inactive)
REMARK    1  A    between atoms: C_1  and  C_2
REMARK    2  A    between atoms: C_5  and  N_9
REMARK    3  A    between atoms: C_18  and  O_35
REMARK    4  A    between atoms: C_25  and  C_27
REMARK    5  A    between atoms: C_30  and  O_33
REMARK    6  A    between atoms: O_33  and  C_34
REMARK    7  A    between atoms: O_35  and  C_36
REMARK                            x       y       z     vdW  Elec       q    Type
REMARK                         _______ _______ _______ _____ _____    ______ ____
ROOT
ATOM      1  N   UNL     1       1.866  -4.315   0.334  0.00  0.00    -0.269 N 
ATOM      2  C   UNL     1       1.357  -4.976   1.392  0.00  0.00    +0.307 C 
ATOM      3  O   UNL     1       1.244  -4.412   2.464  0.00  0.00    -0.252 OA
ATOM      4  N   UNL     1       0.974  -6.262   1.263  0.00  0.00    -0.276 N 
ATOM      5  C   UNL     1       1.230  -6.972   0.006  0.00  0.00    +0.114 C 
ATOM      6  C   UNL     1      -0.100  -7.492  -0.569  0.00  0.00    +0.052 C 
ATOM      7  C   UNL     1      -0.852  -8.120   0.578  0.00  0.00    -0.035 C 
ATOM      8  C   UNL     1      -1.413  -9.315   0.710  0.00  0.00    +0.003 A 
ATOM      9  C   UNL     1      -1.605 -10.421  -0.241  0.00  0.00    +0.055 A 
ATOM     10  C   UNL     1      -2.216 -11.540   0.238  0.00  0.00    +0.121 A 
ATOM     11  C   UNL     1      -2.659 -11.685   1.561  0.00  0.00    +0.047 A 
ATOM     12  C   UNL     1      -2.541 -10.728   2.516  0.00  0.00    +0.029 A 
ATOM     13  C   UNL     1      -1.902  -9.466   2.115  0.00  0.00    +0.043 A 
ATOM     14  N   UNL     1      -1.676  -8.383   2.795  0.00  0.00    -0.375 N 
ATOM     15  C   UNL     1      -1.077  -7.393   1.899  0.00  0.00    +0.131 C 
ATOM     16  C   UNL     1       0.308  -6.939   2.387  0.00  0.00    +0.134 C 
ATOM     17  H   UNL     1       1.884  -4.738  -0.539  0.00  0.00    +0.156 HD
ATOM     18  H   UNL     1      -1.871  -8.253   3.736  0.00  0.00    +0.160 HD
ENDROOT
BRANCH   1  23
ATOM     19  C   UNL     1       3.904   0.942   0.977  0.00  0.00    +0.047 C 
ATOM     20  C   UNL     1       3.363  -0.454   0.807  0.00  0.00    -0.015 A 
ATOM     21  C   UNL     1       3.969  -1.326  -0.079  0.00  0.00    +0.008 A 
ATOM     22  C   UNL     1       3.474  -2.606  -0.237  0.00  0.00    +0.024 A 
ATOM     23  C   UNL     1       2.368  -3.018   0.494  0.00  0.00    +0.038 A 
ATOM     24  C   UNL     1       1.761  -2.143   1.383  0.00  0.00    +0.062 A 
ATOM     25  C   UNL     1       2.263  -0.863   1.542  0.00  0.00    +0.128 A 
ATOM     26  F   UNL     1       1.676  -0.011   2.411  0.00  0.00    -0.205 F 
ENDBRANCH   1  23
BRANCH  16  27
ATOM     27  C   UNL     1       0.157  -5.983   3.542  0.00  0.00    -0.024 A 
ATOM     28  C   UNL     1      -0.646  -4.865   3.412  0.00  0.00    +0.009 A 
ATOM     29  C   UNL     1      -0.786  -3.987   4.469  0.00  0.00    +0.046 A 
ATOM     30  C   UNL     1      -0.121  -4.228   5.662  0.00  0.00    +0.120 A 
ATOM     31  C   UNL     1       0.684  -5.350   5.790  0.00  0.00    +0.046 A 
ATOM     32  C   UNL     1       0.817  -6.228   4.732  0.00  0.00    +0.009 A 
BRANCH  30  33
ATOM     33  O   UNL     1      -0.256  -3.365   6.703  0.00  0.00    -0.495 OA
ATOM     34  C   UNL     1       0.458  -3.676   7.901  0.00  0.00    +0.277 C 
ENDBRANCH  30  33
ENDBRANCH  16  27
BRANCH  10  35
ATOM     35  O   UNL     1      -2.408 -12.578  -0.617  0.00  0.00    -0.495 OA
ATOM     36  C   UNL     1      -3.051 -13.741  -0.092  0.00  0.00    +0.277 C 
ENDBRANCH  10  35
TORSDOF 4
