REMARK  Name = ZINC66967260
REMARK  10 active torsions:
REMARK  status: ('A' for Active; 'I' for Inactive)
REMARK    1  A    between atoms: C_1  and  C_2
REMARK    2  A    between atoms: C_2  and  C_3
REMARK    3  A    between atoms: C_3  and  C_4
REMARK    4  A    between atoms: C_4  and  N_5
REMARK    5  A    between atoms: C_11  and  N_14
REMARK    6  A    between atoms: N_14  and  C_15
REMARK    7  A    between atoms: C_15  and  C_17
REMARK    8  A    between atoms: C_15  and  C_18
REMARK    9  A    between atoms: N_20  and  C_21
REMARK   10  A    between atoms: C_22  and  C_26
REMARK                            x       y       z     vdW  Elec       q    Type
REMARK                         _______ _______ _______ _____ _____    ______ ____
ROOT
ATOM      1  N   UNL     1       2.196  -6.688   3.828  0.00  0.00    -0.333 N 
ATOM      2  H   UNL     1       1.293  -6.590   3.487  0.00  0.00    +0.147 HD
ENDROOT
BRANCH   1   9
ATOM      3  N   UNL     1       1.473  -2.527   2.423  0.00  0.00    +0.385 N 
ATOM      4  C   UNL     1       2.923  -2.245   2.314  0.00  0.00    -0.042 C 
ATOM      5  C   UNL     1       3.616  -3.399   3.003  0.00  0.00    -0.061 A 
ATOM      6  C   UNL     1       4.902  -3.541   3.490  0.00  0.00    +0.002 A 
ATOM      7  C   UNL     1       5.292  -4.725   4.089  0.00  0.00    +0.002 A 
ATOM      8  C   UNL     1       4.397  -5.771   4.203  0.00  0.00    +0.023 A 
ATOM      9  C   UNL     1       3.104  -5.632   3.715  0.00  0.00    +0.029 A 
ATOM     10  C   UNL     1       2.715  -4.442   3.114  0.00  0.00    -0.042 A 
ATOM     11  C   UNL     1       1.404  -4.004   2.502  0.00  0.00    -0.040 C 
ATOM     12  H   UNL     1       1.091  -2.110   3.259  0.00  0.00    -0.081 HD
BRANCH   3  13
ATOM     13  C   UNL     1       0.763  -2.041   1.233  0.00  0.00    -0.078 C 
BRANCH  13  14
ATOM     14  C   UNL     1       0.742  -0.511   1.242  0.00  0.00    -0.019 C 
BRANCH  14  16
ATOM     15  C   UNL     1      -0.019   1.526   0.010  0.00  0.00    +0.004 C 
ATOM     16  C   UNL     1       0.002  -0.004   0.002  0.00  0.00    -0.005 C 
ENDBRANCH  14  16
ENDBRANCH  13  14
ENDBRANCH   3  13
ENDBRANCH   1   9
BRANCH   1  17
ATOM     17  C   UNL     1       2.608  -7.943   4.462  0.00  0.00    +0.154 C 
ATOM     18  C   UNL     1       2.439  -7.828   5.978  0.00  0.00    +0.038 C 
BRANCH  17  19
ATOM     19  C   UNL     1       1.752  -9.071   3.945  0.00  0.00    +0.238 C 
ATOM     20  O   UNL     1       0.885  -8.848   3.128  0.00  0.00    -0.273 OA
ATOM     21  N   UNL     1       1.952 -10.327   4.391  0.00  0.00    -0.278 N 
ATOM     22  H   UNL     1       2.646 -10.505   5.045  0.00  0.00    +0.155 HD
BRANCH  21  23
ATOM     23  C   UNL     1       1.165 -11.365   3.915  0.00  0.00    +0.084 A 
ATOM     24  C   UNL     1       1.223 -12.707   4.261  0.00  0.00    +0.065 A 
ATOM     25  C   UNL     1       0.278 -13.584   3.609  0.00  0.00    +0.022 A 
ATOM     26  C   UNL     1      -0.558 -12.997   2.733  0.00  0.00    +0.048 A 
ATOM     27  S   UNL     1      -0.081 -11.284   2.794  0.00  0.00    -0.081 S 
BRANCH  24  28
ATOM     28  C   UNL     1       2.194 -13.210   5.239  0.00  0.00    +0.244 C 
ATOM     29  O   UNL     1       2.976 -12.443   5.769  0.00  0.00    -0.270 OA
ATOM     30  N   UNL     1       2.220 -14.521   5.550  0.00  0.00    -0.325 N 
ATOM     31  H   UNL     1       1.596 -15.132   5.127  0.00  0.00    +0.145 HD
ATOM     32  H   UNL     1       2.862 -14.853   6.196  0.00  0.00    +0.145 HD
ENDBRANCH  24  28
ENDBRANCH  21  23
ENDBRANCH  17  19
ENDBRANCH   1  17
TORSDOF 8
