REMARK  Name = ZINC39468673
REMARK  7 active torsions:
REMARK  status: ('A' for Active; 'I' for Inactive)
REMARK    1  A    between atoms: C_1  and  S_2
REMARK    2  A    between atoms: S_2  and  P_3
REMARK    3  A    between atoms: C_11  and  C_31
REMARK    4  A    between atoms: C_12  and  S_21
REMARK    5  A    between atoms: S_21  and  O_24
REMARK    6  A    between atoms: O_24  and  C_25
REMARK    7  A    between atoms: C_31  and  C_32
REMARK                            x       y       z     vdW  Elec       q    Type
REMARK                         _______ _______ _______ _____ _____    ______ ____
ROOT
ATOM      1  P   UNL     1       1.820  -0.309   1.579  0.00  0.00    +0.314 P 
ATOM      2  O   UNL     1       0.909   0.104   2.669  0.00  0.00    -0.262 OA
ATOM      3  N   UNL     1       1.959  -1.953   1.536  0.00  0.00    -0.283 NA
ATOM      4  N   UNL     1       2.783  -2.553   2.465  0.00  0.00    +0.398 N 
ATOM      5  C   UNL     1       2.807  -3.984   2.123  0.00  0.00    -0.046 C 
ATOM      6  C   UNL     1       3.681  -4.765   3.094  0.00  0.00    +0.005 C 
ATOM      7  C   UNL     1       3.152  -4.645   4.498  0.00  0.00    -0.019 C 
ATOM      8  C   UNL     1       3.970  -4.856   5.527  0.00  0.00    -0.019 C 
ATOM      9  C   UNL     1       5.375  -5.215   5.273  0.00  0.00    +0.128 C 
ATOM     10  C   UNL     1       5.933  -4.920   4.103  0.00  0.00    +0.008 C 
ATOM     11  C   UNL     1       5.109  -4.214   3.054  0.00  0.00    +0.017 C 
ATOM     12  C   UNL     1       5.063  -2.718   3.370  0.00  0.00    -0.003 C 
ATOM     13  C   UNL     1       4.133  -1.990   2.393  0.00  0.00    -0.020 C 
ATOM     14  C   UNL     1       4.145  -0.505   2.782  0.00  0.00    +0.157 C 
ATOM     15  O   UNL     1       3.326   0.239   1.863  0.00  0.00    -0.312 OA
ATOM     16  H   UNL     1       1.477  -2.479   0.879  0.00  0.00    +0.112 HD
ATOM     17  H   UNL     1       2.407  -2.417   3.391  0.00  0.00    -0.055 HD
ENDROOT
BRANCH   9  18
ATOM     18  S   UNL     1       6.316  -6.035   6.518  0.00  0.00    +0.151 S 
ATOM     19  O   UNL     1       7.622  -6.214   5.988  0.00  0.00    -0.131 OA
ATOM     20  O   UNL     1       6.075  -5.339   7.733  0.00  0.00    -0.131 OA
BRANCH  18  21
ATOM     21  O   UNL     1       5.721  -7.426   6.688  0.00  0.00    -0.342 OA
BRANCH  21  22
ATOM     22  C   UNL     1       6.032  -8.287   5.684  0.00  0.00    +0.157 A 
ATOM     23  C   UNL     1       5.212  -8.377   4.568  0.00  0.00    +0.048 A 
ATOM     24  C   UNL     1       5.530  -9.252   3.548  0.00  0.00    +0.004 A 
ATOM     25  C   UNL     1       6.664 -10.039   3.638  0.00  0.00    +0.000 A 
ATOM     26  C   UNL     1       7.482  -9.951   4.750  0.00  0.00    +0.004 A 
ATOM     27  C   UNL     1       7.172  -9.073   5.770  0.00  0.00    +0.048 A 
ENDBRANCH  21  22
ENDBRANCH  18  21
ENDBRANCH   9  18
BRANCH   1  29
ATOM     28  C   UNL     1       1.149   2.221  -0.093  0.00  0.00    +0.096 C 
ATOM     29  S   UNL     1       1.113   0.418  -0.284  0.00  0.00    -0.059 S 
ENDBRANCH   1  29
BRANCH   8  30
ATOM     30  C   UNL     1       3.461  -4.728   6.939  0.00  0.00    +0.072 C 
BRANCH  30  31
ATOM     31  C   UNL     1       3.564  -3.292   7.383  0.00  0.00    -0.043 A 
ATOM     32  C   UNL     1       4.758  -2.808   7.886  0.00  0.00    +0.004 A 
ATOM     33  C   UNL     1       4.853  -1.490   8.292  0.00  0.00    +0.000 A 
ATOM     34  C   UNL     1       3.755  -0.656   8.196  0.00  0.00    +0.000 A 
ATOM     35  C   UNL     1       2.562  -1.140   7.692  0.00  0.00    +0.000 A 
ATOM     36  C   UNL     1       2.468  -2.456   7.281  0.00  0.00    +0.004 A 
ENDBRANCH  30  31
ENDBRANCH   8  30
TORSDOF 6
