REMARK  Name = ZINC35712633
REMARK  11 active torsions:
REMARK  status: ('A' for Active; 'I' for Inactive)
REMARK    1  A    between atoms: C_1  and  C_2
REMARK    2  A    between atoms: C_2  and  C_3
REMARK    3  A    between atoms: C_3  and  C_4
REMARK    4  A    between atoms: C_4  and  N_5
REMARK    5  A    between atoms: C_6  and  C_35
REMARK    6  A    between atoms: C_7  and  C_31
REMARK    7  A    between atoms: C_8  and  C_13
REMARK    8  A    between atoms: C_17  and  N_19
REMARK    9  A    between atoms: N_22  and  C_23
REMARK   10  A    between atoms: C_31  and  O_33
REMARK   11  A    between atoms: O_33  and  C_34
REMARK                            x       y       z     vdW  Elec       q    Type
REMARK                         _______ _______ _______ _____ _____    ______ ____
ROOT
ATOM      1  C   UNL     1       2.929  -4.918  -5.061  0.00  0.00    -0.021 A 
ATOM      2  C   UNL     1       2.982  -5.882  -4.071  0.00  0.00    +0.006 A 
ATOM      3  C   UNL     1       3.277  -7.194  -4.394  0.00  0.00    +0.002 A 
ATOM      4  C   UNL     1       3.520  -7.545  -5.708  0.00  0.00    +0.023 A 
ATOM      5  C   UNL     1       3.467  -6.579  -6.705  0.00  0.00    +0.035 A 
ATOM      6  C   UNL     1       3.164  -5.264  -6.377  0.00  0.00    +0.029 A 
ENDROOT
BRANCH   1  10
ATOM      7  N   UNL     1       1.497  -2.615  -2.327  0.00  0.00    -0.259 N 
ATOM      8  C   UNL     1       0.641  -2.943  -3.339  0.00  0.00    +0.024 C 
ATOM      9  C   UNL     1       1.106  -3.379  -4.530  0.00  0.00    +0.078 C 
ATOM     10  C   UNL     1       2.607  -3.490  -4.704  0.00  0.00    +0.144 C 
ATOM     11  N   UNL     1       3.442  -3.111  -3.552  0.00  0.00    -0.288 N 
ATOM     12  C   UNL     1       2.830  -2.690  -2.428  0.00  0.00    +0.307 C 
ATOM     13  O   UNL     1       3.511  -2.371  -1.472  0.00  0.00    -0.252 OA
ATOM     14  C   UNL     1      -0.845  -2.818  -3.123  0.00  0.00    +0.061 C 
ATOM     15  H   UNL     1       4.409  -3.161  -3.603  0.00  0.00    +0.151 HD
BRANCH   9  16
ATOM     16  C   UNL     1       0.220  -3.720  -5.580  0.00  0.00    +0.339 C 
ATOM     17  O   UNL     1      -0.982  -3.623  -5.417  0.00  0.00    -0.245 OA
BRANCH  16  18
ATOM     18  O   UNL     1       0.709  -4.152  -6.761  0.00  0.00    -0.465 OA
ATOM     19  C   UNL     1      -0.242  -4.479  -7.776  0.00  0.00    +0.280 C 
ENDBRANCH  16  18
ENDBRANCH   9  16
BRANCH   7  20
ATOM     20  C   UNL     1       0.924  -2.150  -1.061  0.00  0.00    +0.115 C 
BRANCH  20  21
ATOM     21  C   UNL     1       0.551  -3.356  -0.196  0.00  0.00    +0.019 C 
BRANCH  21  23
ATOM     22  C   UNL     1      -0.420  -4.076   1.990  0.00  0.00    +0.004 C 
ATOM     23  C   UNL     1      -0.047  -2.870   1.126  0.00  0.00    -0.002 C 
ENDBRANCH  21  23
ENDBRANCH  20  21
ENDBRANCH   7  20
ENDBRANCH   1  10
BRANCH   5  24
ATOM     24  N   UNL     1       3.712  -6.932  -8.036  0.00  0.00    -0.269 N 
ATOM     25  C   UNL     1       4.345  -6.069  -8.856  0.00  0.00    +0.308 C 
ATOM     26  O   UNL     1       4.630  -4.955  -8.463  0.00  0.00    -0.252 OA
ATOM     27  N   UNL     1       4.661  -6.442 -10.112  0.00  0.00    -0.269 N 
ATOM     28  H   UNL     1       3.427  -7.797  -8.369  0.00  0.00    +0.156 HD
ATOM     29  H   UNL     1       4.364  -7.300 -10.453  0.00  0.00    +0.156 HD
BRANCH  27  30
ATOM     30  C   UNL     1       5.420  -5.591 -10.925  0.00  0.00    +0.036 A 
ATOM     31  C   UNL     1       5.178  -5.536 -12.291  0.00  0.00    +0.026 A 
ATOM     32  C   UNL     1       5.927  -4.696 -13.092  0.00  0.00    +0.041 A 
ATOM     33  C   UNL     1       6.919  -3.908 -12.533  0.00  0.00    +0.142 A 
ATOM     34  C   UNL     1       7.163  -3.961 -11.170  0.00  0.00    +0.078 A 
ATOM     35  C   UNL     1       6.411  -4.796 -10.365  0.00  0.00    +0.046 A 
ATOM     36 CL   UNL     1       8.408  -2.973 -10.472  0.00  0.00    -0.081 Cl
ATOM     37  F   UNL     1       7.651  -3.087 -13.318  0.00  0.00    -0.204 F 
ENDBRANCH  27  30
ENDBRANCH   5  24
TORSDOF 8
