REMARK  Name = ZINC19362528
REMARK  6 active torsions:
REMARK  status: ('A' for Active; 'I' for Inactive)
REMARK    1  A    between atoms: C_1  and  N_2
REMARK    2  A    between atoms: C_6  and  N_7
REMARK    3  A    between atoms: N_7  and  C_8
REMARK    4  A    between atoms: C_8  and  C_9
REMARK    5  A    between atoms: C_9  and  N_10
REMARK    6  A    between atoms: N_18  and  C_21
REMARK                            x       y       z     vdW  Elec       q    Type
REMARK                         _______ _______ _______ _____ _____    ______ ____
ROOT
ATOM      1  C   UNL     1      -0.347   1.420   0.055  0.00  0.00    +0.143 C 
ATOM      2  N   UNL     1      -0.381  -0.044   0.015  0.00  0.00    -0.224 N 
ATOM      3  C   UNL     1      -0.154  -0.677  -1.155  0.00  0.00    +0.260 C 
ATOM      4  O   UNL     1       0.078  -0.048  -2.170  0.00  0.00    -0.269 OA
ATOM      5  C   UNL     1      -0.193  -2.150  -1.169  0.00  0.00    +0.113 C 
ATOM      6  C   UNL     1       0.030  -2.866  -2.330  0.00  0.00    +0.086 C 
ATOM      7  C   UNL     1      -0.481  -2.826   0.109  0.00  0.00    +0.260 C 
ATOM      8  O   UNL     1      -0.529  -4.040   0.176  0.00  0.00    -0.269 OA
ATOM      9  N   UNL     1      -0.688  -2.063   1.201  0.00  0.00    -0.224 N 
ATOM     10  C   UNL     1      -0.631  -0.725   1.142  0.00  0.00    +0.317 C 
ATOM     11  O   UNL     1      -0.822  -0.095   2.164  0.00  0.00    -0.252 OA
ATOM     12  C   UNL     1      -0.976  -2.711   2.483  0.00  0.00    +0.143 C 
ENDROOT
BRANCH   6  13
ATOM     13  N   UNL     1       0.150  -4.208  -2.282  0.00  0.00    -0.348 N 
ATOM     14  H   UNL     1       0.161  -4.664  -1.425  0.00  0.00    +0.146 HD
BRANCH  13  15
ATOM     15  C   UNL     1       0.266  -4.979  -3.522  0.00  0.00    +0.116 C 
BRANCH  15  16
ATOM     16  C   UNL     1       0.389  -6.467  -3.189  0.00  0.00    +0.103 C 
BRANCH  16  17
ATOM     17  N   UNL     1       0.505  -7.239  -4.433  0.00  0.00    -0.304 NA
ATOM     18  C   UNL     1       1.765  -6.936  -5.126  0.00  0.00    +0.065 C 
ATOM     19  C   UNL     1       1.819  -7.714  -6.443  0.00  0.00    -0.067 C 
ATOM     20  N   UNL     1       1.727  -9.153  -6.166  0.00  0.00    +0.381 N 
ATOM     21  C   UNL     1       0.453  -9.444  -5.496  0.00  0.00    -0.067 C 
ATOM     22  C   UNL     1       0.387  -8.681  -4.171  0.00  0.00    +0.065 C 
ATOM     23  H   UNL     1       1.775  -9.666  -7.033  0.00  0.00    -0.086 HD
ATOM     24  H   UNL     1       2.491  -9.430  -5.568  0.00  0.00    -0.086 HD
ENDBRANCH  16  17
ENDBRANCH  15  16
ENDBRANCH  13  15
ENDBRANCH   6  13
TORSDOF 4
