REMARK  Name = ZINC12630203
REMARK  6 active torsions:
REMARK  status: ('A' for Active; 'I' for Inactive)
REMARK    1  A    between atoms: C_1  and  C_2
REMARK    2  A    between atoms: C_2  and  O_3
REMARK    3  A    between atoms: O_3  and  C_4
REMARK    4  A    between atoms: C_8  and  C_12
REMARK    5  A    between atoms: C_9  and  O_10
REMARK    6  A    between atoms: O_10  and  C_11
REMARK                            x       y       z     vdW  Elec       q    Type
REMARK                         _______ _______ _______ _____ _____    ______ ____
ROOT
ATOM      1  C   UNL     1       2.274  -4.308   3.755  0.00  0.00    +0.212 C 
ATOM      2  N   UNL     1       1.892  -5.721   3.934  0.00  0.00    -0.294 N 
ATOM      3  C   UNL     1       2.513  -6.694   3.197  0.00  0.00    +0.160 C 
ATOM      4  N   UNL     1       3.762  -6.557   2.787  0.00  0.00    -0.302 N 
ATOM      5  C   UNL     1       4.406  -5.397   3.061  0.00  0.00    +0.213 A 
ATOM      6  N   UNL     1       3.725  -4.290   3.537  0.00  0.00    -0.286 N 
ATOM      7  C   UNL     1       4.641  -3.283   3.732  0.00  0.00    +0.076 A 
ATOM      8  C   UNL     1       4.562  -1.977   4.198  0.00  0.00    +0.077 A 
ATOM      9  C   UNL     1       5.704  -1.203   4.276  0.00  0.00    +0.164 A 
ATOM     10  C   UNL     1       6.936  -1.723   3.890  0.00  0.00    +0.164 A 
ATOM     11  C   UNL     1       7.033  -3.018   3.424  0.00  0.00    +0.079 A 
ATOM     12  C   UNL     1       5.885  -3.812   3.339  0.00  0.00    +0.095 A 
ATOM     13  N   UNL     1       5.671  -5.099   2.929  0.00  0.00    -0.212 NA
ATOM     14  O   UNL     1       8.054  -0.943   3.978  0.00  0.00    -0.488 OA
ATOM     15  C   UNL     1       8.120   0.160   3.072  0.00  0.00    +0.232 C 
ATOM     16  C   UNL     1       7.374   1.361   3.631  0.00  0.00    +0.082 C 
ATOM     17  C   UNL     1       5.882   1.104   3.768  0.00  0.00    +0.232 C 
ATOM     18  O   UNL     1       5.630   0.082   4.734  0.00  0.00    -0.488 OA
ATOM     19  N   UNL     1       1.825  -7.833   2.878  0.00  0.00    -0.332 N 
ATOM     20  H   UNL     1       1.202  -5.960   4.572  0.00  0.00    +0.151 HD
ATOM     21  H   UNL     1       0.907  -7.945   3.173  0.00  0.00    +0.145 HD
ATOM     22  H   UNL     1       2.254  -8.530   2.356  0.00  0.00    +0.145 HD
ATOM     23  H   UNL     1       4.207  -7.270   2.303  0.00  0.00    +0.171 HD
ENDROOT
BRANCH   1  28
ATOM     24  C   UNL     1       0.802  -1.825   1.306  0.00  0.00    +0.162 A 
ATOM     25  C   UNL     1       0.261  -2.673   0.353  0.00  0.00    +0.049 A 
ATOM     26  C   UNL     1       0.372  -4.043   0.502  0.00  0.00    +0.004 A 
ATOM     27  C   UNL     1       1.024  -4.570   1.602  0.00  0.00    +0.011 A 
ATOM     28  C   UNL     1       1.566  -3.730   2.557  0.00  0.00    +0.039 A 
ATOM     29  C   UNL     1       1.462  -2.356   2.410  0.00  0.00    +0.168 A 
BRANCH  29  30
ATOM     30  O   UNL     1       2.000  -1.528   3.345  0.00  0.00    -0.491 OA
ATOM     31  C   UNL     1       1.161  -1.151   4.438  0.00  0.00    +0.277 C 
ENDBRANCH  29  30
BRANCH  24  32
ATOM     32  O   UNL     1       0.693  -0.477   1.160  0.00  0.00    -0.489 OA
BRANCH  32  34
ATOM     33  C   UNL     1      -0.019   1.526   0.010  0.00  0.00    +0.048 C 
ATOM     34  C   UNL     1       0.002  -0.004   0.002  0.00  0.00    +0.226 C 
ENDBRANCH  32  34
ENDBRANCH  24  32
ENDBRANCH   1  28
TORSDOF 4
