REMARK  Name = ZINC59097996
REMARK  13 active torsions:
REMARK  status: ('A' for Active; 'I' for Inactive)
REMARK    1  A    between atoms: C_1  and  C_2
REMARK    2  A    between atoms: C_7  and  N_8
REMARK    3  A    between atoms: N_8  and  C_9
REMARK    4  A    between atoms: C_9  and  N_11
REMARK    5  A    between atoms: N_11  and  C_12
REMARK    6  A    between atoms: N_11  and  C_21
REMARK    7  A    between atoms: C_12  and  C_13
REMARK    8  A    between atoms: C_18  and  O_19
REMARK    9  A    between atoms: O_19  and  C_20
REMARK   10  A    between atoms: C_23  and  C_29
REMARK   11  A    between atoms: C_23  and  C_30
REMARK   12  A    between atoms: C_25  and  C_27
REMARK   13  A    between atoms: C_25  and  C_28
REMARK                            x       y       z     vdW  Elec       q    Type
REMARK                         _______ _______ _______ _____ _____    ______ ____
ROOT
ATOM      1  N   UNL     1      -0.095   0.029   4.761  0.00  0.00    -0.305 N 
ENDROOT
BRANCH   1   2
ATOM      2  C   UNL     1      -0.195   1.494   4.753  0.00  0.00    +0.073 C 
ATOM      3  C   UNL     1       1.069   2.080   4.122  0.00  0.00    +0.009 C 
ATOM      4  C   UNL     1       0.975   3.606   4.095  0.00  0.00    -0.072 C 
ATOM      5  N   UNL     1      -0.241   4.068   3.443  0.00  0.00    +0.386 N 
ATOM      6  C   UNL     1      -1.493   3.432   3.818  0.00  0.00    -0.072 C 
ATOM      7  C   UNL     1      -1.394   1.913   3.903  0.00  0.00    +0.009 C 
ATOM      8  C   UNL     1      -2.530   3.763   2.718  0.00  0.00    -0.010 C 
ATOM      9  C   UNL     1      -2.042   3.993   5.133  0.00  0.00    -0.010 C 
ATOM     10  C   UNL     1       1.120   4.169   5.508  0.00  0.00    -0.010 C 
ATOM     11  C   UNL     1       2.175   4.125   3.269  0.00  0.00    -0.010 C 
ATOM     12  H   UNL     1      -0.329   5.075   3.605  0.00  0.00    -0.084 HD
ATOM     13  H   UNL     1      -0.120   3.969   2.432  0.00  0.00    -0.084 HD
ENDBRANCH   1   2
BRANCH   1  14
ATOM     14  C   UNL     1      -0.080  -0.652   3.597  0.00  0.00    +0.138 C 
ATOM     15  S   UNL     1      -0.028  -2.363   3.607  0.00  0.00    -0.018 S 
BRANCH  14  16
ATOM     16  N   UNL     1      -0.105   0.015   2.426  0.00  0.00    -0.297 N 
ATOM     17  H   UNL     1      -0.027   0.982   2.417  0.00  0.00    +0.154 HD
BRANCH  16  24
ATOM     18  C   UNL     1      -2.348   0.606   0.777  0.00  0.00    +0.045 C 
ATOM     19  C   UNL     1      -1.324  -0.430   0.390  0.00  0.00    -0.029 A 
ATOM     20  C   UNL     1      -1.456  -1.121  -0.799  0.00  0.00    +0.005 A 
ATOM     21  C   UNL     1      -0.518  -2.072  -1.156  0.00  0.00    +0.000 A 
ATOM     22  C   UNL     1       0.555  -2.334  -0.324  0.00  0.00    +0.002 A 
ATOM     23  C   UNL     1       0.693  -1.647   0.866  0.00  0.00    +0.023 A 
ATOM     24  C   UNL     1      -0.245  -0.687   1.224  0.00  0.00    +0.036 A 
ENDBRANCH  16  24
ENDBRANCH  14  16
ENDBRANCH   1  14
BRANCH   1  25
ATOM     25  C   UNL     1      -0.011  -0.693   6.032  0.00  0.00    +0.145 C 
BRANCH  25  26
ATOM     26  C   UNL     1       1.434  -0.844   6.431  0.00  0.00    +0.011 A 
ATOM     27  C   UNL     1       2.095  -2.034   6.197  0.00  0.00    +0.009 A 
ATOM     28  C   UNL     1       3.421  -2.174   6.562  0.00  0.00    +0.001 A 
ATOM     29  C   UNL     1       4.089  -1.122   7.162  0.00  0.00    +0.004 A 
ATOM     30  C   UNL     1       3.433   0.070   7.398  0.00  0.00    +0.046 A 
ATOM     31  C   UNL     1       2.104   0.214   7.027  0.00  0.00    +0.125 A 
BRANCH  31  32
ATOM     32  O   UNL     1       1.458   1.388   7.253  0.00  0.00    -0.495 OA
ATOM     33  C   UNL     1       2.210   2.434   7.871  0.00  0.00    +0.277 C 
ENDBRANCH  31  32
ENDBRANCH  25  26
ENDBRANCH   1  25
TORSDOF 7
