REMARK  Name = ZINC06984507
REMARK  10 active torsions:
REMARK  status: ('A' for Active; 'I' for Inactive)
REMARK    1  A    between atoms: C_1  and  C_2
REMARK    2  A    between atoms: C_2  and  C_4
REMARK    3  A    between atoms: C_2  and  O_22
REMARK    4  A    between atoms: N_6  and  N_7
REMARK    5  A    between atoms: C_8  and  C_10
REMARK    6  A    between atoms: C_12  and  S_18
REMARK    7  A    between atoms: C_15  and  O_16
REMARK    8  A    between atoms: O_16  and  C_17
REMARK    9  A    between atoms: S_18  and  N_21
REMARK   10  A    between atoms: O_22  and  C_23
REMARK                            x       y       z     vdW  Elec       q    Type
REMARK                         _______ _______ _______ _____ _____    ______ ____
ROOT
ATOM      1  N   UNL     1      -0.298  -0.176  -0.298  0.00  0.00    -0.230 N 
ATOM      2  C   UNL     1       0.812  -0.917  -0.486  0.00  0.00    +0.264 C 
ATOM      3  O   UNL     1       1.880  -0.371  -0.685  0.00  0.00    -0.269 OA
ATOM      4  H   UNL     1      -1.151  -0.611  -0.140  0.00  0.00    +0.173 HD
ENDROOT
BRANCH   2   5
ATOM      5  C   UNL     1       0.730  -2.389  -0.452  0.00  0.00    +0.082 A 
ATOM      6  C   UNL     1      -0.495  -3.020  -0.224  0.00  0.00    +0.045 A 
ATOM      7  C   UNL     1      -0.565  -4.396  -0.194  0.00  0.00    +0.106 A 
ATOM      8  C   UNL     1       0.576  -5.158  -0.388  0.00  0.00    +0.032 A 
ATOM      9  C   UNL     1       1.793  -4.548  -0.613  0.00  0.00    +0.048 A 
ATOM     10  C   UNL     1       1.881  -3.164  -0.653  0.00  0.00    +0.132 A 
BRANCH   7  11
ATOM     11  S   UNL     1      -2.111  -5.190   0.094  0.00  0.00    +0.056 S 
ATOM     12  O   UNL     1      -1.816  -6.477   0.618  0.00  0.00    -0.153 OA
ATOM     13  O   UNL     1      -2.925  -4.254   0.788  0.00  0.00    -0.153 OA
BRANCH  11  14
ATOM     14  N   UNL     1      -2.821  -5.431  -1.383  0.00  0.00    -0.204 NA
ATOM     15  H   UNL     1      -2.368  -5.143  -2.191  0.00  0.00    +0.144 HD
ATOM     16  H   UNL     1      -3.689  -5.860  -1.440  0.00  0.00    +0.144 HD
ENDBRANCH  11  14
ENDBRANCH   7  11
BRANCH  10  17
ATOM     17  O   UNL     1       3.075  -2.563  -0.881  0.00  0.00    -0.494 OA
ATOM     18  C   UNL     1       4.204  -3.417  -1.077  0.00  0.00    +0.277 C 
ENDBRANCH  10  17
ENDBRANCH   2   5
BRANCH   1  21
ATOM     19  C   UNL     1      -1.332   1.964  -0.148  0.00  0.00    +0.270 C 
ATOM     20  O   UNL     1      -2.398   1.420   0.045  0.00  0.00    -0.270 OA
ATOM     21  N   UNL     1      -0.221   1.223  -0.331  0.00  0.00    -0.231 N 
ATOM     22  H   UNL     1       0.631   1.658  -0.489  0.00  0.00    +0.173 HD
BRANCH  19  24
ATOM     23  C   UNL     1      -0.397   3.959   0.989  0.00  0.00    +0.062 C 
ATOM     24  C   UNL     1      -1.249   3.468  -0.183  0.00  0.00    +0.257 C 
BRANCH  24  25
ATOM     25  O   UNL     1      -2.563   4.020  -0.081  0.00  0.00    -0.477 OA
BRANCH  25  26
ATOM     26  C   UNL     1      -2.752   5.261  -0.603  0.00  0.00    +0.157 A 
ATOM     27  C   UNL     1      -1.674   5.980  -1.096  0.00  0.00    +0.048 A 
ATOM     28  C   UNL     1      -1.869   7.241  -1.626  0.00  0.00    +0.004 A 
ATOM     29  C   UNL     1      -3.139   7.788  -1.665  0.00  0.00    +0.003 A 
ATOM     30  C   UNL     1      -4.217   7.075  -1.174  0.00  0.00    +0.042 A 
ATOM     31  C   UNL     1      -4.028   5.810  -0.647  0.00  0.00    +0.165 A 
ATOM     32  F   UNL     1      -5.082   5.111  -0.171  0.00  0.00    -0.202 F 
ENDBRANCH  25  26
ENDBRANCH  24  25
ENDBRANCH  19  24
ENDBRANCH   1  21
TORSDOF 8
