REMARK  Name = ZINC13474046
REMARK  10 active torsions:
REMARK  status: ('A' for Active; 'I' for Inactive)
REMARK    1  A    between atoms: C_1  and  C_2
REMARK    2  A    between atoms: C_5  and  N_27
REMARK    3  A    between atoms: C_7  and  O_8
REMARK    4  A    between atoms: O_8  and  C_9
REMARK    5  A    between atoms: C_11  and  C_25
REMARK    6  A    between atoms: C_13  and  O_15
REMARK    7  A    between atoms: O_15  and  C_16
REMARK    8  A    between atoms: C_20  and  C_22
REMARK    9  A    between atoms: N_27  and  C_28
REMARK   10  A    between atoms: N_27  and  C_29
REMARK                            x       y       z     vdW  Elec       q    Type
REMARK                         _______ _______ _______ _____ _____    ______ ____
ROOT
ATOM      1  C   UNL     1       0.897   0.951   1.948  0.00  0.00    +0.260 A 
ATOM      2  C   UNL     1       0.671   0.257   3.130  0.00  0.00    +0.191 A 
ATOM      3  C   UNL     1       0.701   0.944   4.335  0.00  0.00    +0.030 A 
ATOM      4  C   UNL     1       0.958   2.308   4.314  0.00  0.00    +0.191 A 
ATOM      5  C   UNL     1       1.175   2.938   3.095  0.00  0.00    +0.260 A 
ATOM      6  N   UNL     1       1.139   2.252   1.964  0.00  0.00    -0.172 NA
ATOM      7  F   UNL     1       0.990   3.015   5.464  0.00  0.00    -0.200 F 
ATOM      8  C   UNL     1       0.461   0.226   5.638  0.00  0.00    +0.050 C 
ATOM      9  F   UNL     1       0.425  -1.071   3.107  0.00  0.00    -0.200 F 
ENDROOT
BRANCH   1  10
ATOM     10  O   UNL     1       0.870   0.287   0.764  0.00  0.00    -0.435 OA
BRANCH  10  17
ATOM     11  C   UNL     1       1.737  -1.096  -1.539  0.00  0.00    +0.047 C 
ATOM     12  C   UNL     1       1.454   0.384  -1.540  0.00  0.00    -0.008 A 
ATOM     13  C   UNL     1       1.617   1.117  -2.701  0.00  0.00    +0.009 A 
ATOM     14  C   UNL     1       1.358   2.474  -2.706  0.00  0.00    +0.023 A 
ATOM     15  C   UNL     1       0.933   3.106  -1.543  0.00  0.00    +0.033 A 
ATOM     16  C   UNL     1       0.764   2.370  -0.378  0.00  0.00    +0.069 A 
ATOM     17  C   UNL     1       1.030   1.010  -0.376  0.00  0.00    +0.135 A 
BRANCH  15  18
ATOM     18  N   UNL     1       0.672   4.478  -1.548  0.00  0.00    -0.336 N 
ATOM     19  C   UNL     1       1.012   5.284  -2.723  0.00  0.00    +0.129 C 
ATOM     20  C   UNL     1       0.058   5.111  -0.378  0.00  0.00    +0.129 C 
ENDBRANCH  15  18
ENDBRANCH  10  17
ENDBRANCH   1  10
BRANCH   5  21
ATOM     21  O   UNL     1       1.426   4.271   3.064  0.00  0.00    -0.436 OA
BRANCH  21  22
ATOM     22  C   UNL     1       2.518   4.699   2.378  0.00  0.00    +0.131 A 
ATOM     23  C   UNL     1       3.311   3.786   1.695  0.00  0.00    +0.046 A 
ATOM     24  C   UNL     1       4.423   4.216   0.996  0.00  0.00    +0.004 A 
ATOM     25  C   UNL     1       4.752   5.556   0.972  0.00  0.00    +0.011 A 
ATOM     26  C   UNL     1       3.961   6.481   1.654  0.00  0.00    +0.016 A 
ATOM     27  C   UNL     1       2.837   6.047   2.354  0.00  0.00    +0.057 A 
BRANCH  26  28
ATOM     28  C   UNL     1       4.312   7.919   1.629  0.00  0.00    +0.094 C 
ATOM     29  N   UNL     1       5.421   8.346   0.932  0.00  0.00    -0.345 N 
ATOM     30  H   UNL     1       3.720   9.744   2.311  0.00  0.00    +0.157 HD
ATOM     31  H   UNL     1       5.972   7.705   0.457  0.00  0.00    +0.144 HD
ATOM     32  H   UNL     1       5.651   9.289   0.916  0.00  0.00    +0.144 HD
ATOM     33  N   UNL     1       3.520   8.744   2.297  0.00  0.00    -0.387 N 
ATOM     34  H   UNL     1       2.705   8.376   2.802  0.00  0.00    +0.157 HD
ENDBRANCH  26  28
ENDBRANCH  21  22
ENDBRANCH   5  21
TORSDOF 6
