REMARK  Name = ZINC20256630
REMARK  10 active torsions:
REMARK  status: ('A' for Active; 'I' for Inactive)
REMARK    1  A    between atoms: C_5  and  C_7
REMARK    2  A    between atoms: C_7  and  N_8
REMARK    3  A    between atoms: N_8  and  C_9
REMARK    4  A    between atoms: C_9  and  C_10
REMARK    5  A    between atoms: C_10  and  C_11
REMARK    6  A    between atoms: N_17  and  C_18
REMARK    7  A    between atoms: C_18  and  C_19
REMARK    8  A    between atoms: C_19  and  C_20
REMARK    9  A    between atoms: C_23  and  S_26
REMARK   10  A    between atoms: S_26  and  N_29
REMARK                            x       y       z     vdW  Elec       q    Type
REMARK                         _______ _______ _______ _____ _____    ______ ____
ROOT
ATOM      1  C   UNL     1       1.156   2.056  -3.220  0.00  0.00    +0.075 C 
ATOM      2  C   UNL     1       1.737   0.919  -4.092  0.00  0.00    +0.031 C 
ATOM      3  C   UNL     1       0.722  -0.219  -3.840  0.00  0.00    +0.098 C 
ATOM      4  C   UNL     1       0.126   0.108  -2.488  0.00  0.00    +0.216 C 
ATOM      5  O   UNL     1      -0.500  -0.669  -1.799  0.00  0.00    -0.276 OA
ATOM      6  N   UNL     1       0.392   1.384  -2.162  0.00  0.00    -0.298 N 
ENDROOT
BRANCH   1   7
ATOM      7  C   UNL     1       0.235   2.950  -4.053  0.00  0.00    +0.003 C 
BRANCH   7   8
ATOM      8  C   UNL     1      -0.368   4.035  -3.159  0.00  0.00    -0.080 C 
BRANCH   8   9
ATOM      9  N   UNL     1      -1.135   4.978  -3.984  0.00  0.00    +0.382 N 
ATOM     10  H   UNL     1      -1.933   4.426  -4.502  0.00  0.00    -0.085 HD
ATOM     11  H   UNL     1      -0.460   5.428  -4.726  0.00  0.00    -0.085 HD
BRANCH   9  12
ATOM     12  C   UNL     1      -1.730   6.037  -3.157  0.00  0.00    -0.044 C 
BRANCH  12  17
ATOM     13  C   UNL     1      -4.602   7.808  -4.851  0.00  0.00    +0.000 A 
ATOM     14  C   UNL     1      -3.935   8.720  -5.647  0.00  0.00    +0.003 A 
ATOM     15  C   UNL     1      -2.554   8.766  -5.639  0.00  0.00    +0.038 A 
ATOM     16  C   UNL     1      -1.838   7.900  -4.829  0.00  0.00    +0.125 A 
ATOM     17  C   UNL     1      -2.507   6.983  -4.036  0.00  0.00    -0.029 A 
ATOM     18  C   UNL     1      -3.889   6.940  -4.046  0.00  0.00    +0.004 A 
ATOM     19  F   UNL     1      -0.488   7.947  -4.816  0.00  0.00    -0.205 F 
ENDBRANCH  12  17
ENDBRANCH   9  12
ENDBRANCH   8   9
ENDBRANCH   7   8
ENDBRANCH   1   7
BRANCH   6  20
ATOM     20  C   UNL     1      -0.033   2.024  -0.915  0.00  0.00    +0.112 C 
BRANCH  20  21
ATOM     21  C   UNL     1       1.012   1.765   0.172  0.00  0.00    +0.054 C 
BRANCH  21  22
ATOM     22  C   UNL     1       0.576   2.423   1.456  0.00  0.00    -0.046 A 
ATOM     23  C   UNL     1       0.958   3.723   1.731  0.00  0.00    +0.005 A 
ATOM     24  C   UNL     1       0.554   4.329   2.906  0.00  0.00    +0.029 A 
ATOM     25  C   UNL     1      -0.224   3.631   3.811  0.00  0.00    +0.105 A 
ATOM     26  C   UNL     1      -0.602   2.329   3.538  0.00  0.00    +0.029 A 
ATOM     27  C   UNL     1      -0.202   1.726   2.361  0.00  0.00    +0.005 A 
BRANCH  25  28
ATOM     28  S   UNL     1      -0.733   4.400   5.312  0.00  0.00    +0.056 S 
ATOM     29  O   UNL     1      -0.705   5.802   5.079  0.00  0.00    -0.153 OA
ATOM     30  O   UNL     1      -1.907   3.722   5.738  0.00  0.00    -0.153 OA
BRANCH  28  31
ATOM     31  N   UNL     1       0.433   4.085   6.444  0.00  0.00    -0.204 NA
ATOM     32  H   UNL     1       0.151   4.550   7.400  0.00  0.00    +0.144 HD
ATOM     33  H   UNL     1       1.395   4.497   6.105  0.00  0.00    +0.144 HD
ENDBRANCH  28  31
ENDBRANCH  25  28
ENDBRANCH  21  22
ENDBRANCH  20  21
ENDBRANCH   6  20
TORSDOF 10
