REMARK  Name = ZINC20032121
REMARK  7 active torsions:
REMARK  status: ('A' for Active; 'I' for Inactive)
REMARK    1  A    between atoms: C_1  and  C_2
REMARK    2  A    between atoms: N_4  and  C_30
REMARK    3  A    between atoms: C_8  and  C_9
REMARK    4  A    between atoms: N_11  and  C_25
REMARK    5  A    between atoms: C_13  and  C_14
REMARK    6  A    between atoms: C_25  and  C_26
REMARK    7  A    between atoms: C_26  and  C_27
REMARK                            x       y       z     vdW  Elec       q    Type
REMARK                         _______ _______ _______ _____ _____    ______ ____
ROOT
ATOM      1  C   UNL     1      -0.315  -1.533   3.505  0.00  0.00    +0.021 A 
ATOM      2  C   UNL     1      -0.184  -2.897   3.279  0.00  0.00    +0.117 A 
ATOM      3  N   UNL     1       0.044  -3.487   4.460  0.00  0.00    -0.270 N 
ATOM      4  N   UNL     1       0.067  -2.527   5.474  0.00  0.00    -0.170 NA
ATOM      5  C   UNL     1      -0.137  -1.339   4.952  0.00  0.00    +0.107 A 
ENDROOT
BRANCH   5   6
ATOM      6  C   UNL     1      -0.184  -0.052   5.680  0.00  0.00    +0.088 A 
ATOM      7  C   UNL     1      -0.170  -0.007   7.055  0.00  0.00    +0.028 A 
ATOM      8  C   UNL     1      -0.220   1.314   7.687  0.00  0.00    +0.018 A 
ATOM      9  C   UNL     1       0.055   1.469   9.050  0.00  0.00    +0.011 A 
ATOM     10  C   UNL     1       0.004   2.713   9.614  0.00  0.00    +0.001 A 
ATOM     11  C   UNL     1      -0.318   3.823   8.846  0.00  0.00    +0.004 A 
ATOM     12  C   UNL     1      -0.594   3.692   7.501  0.00  0.00    +0.047 A 
ATOM     13  C   UNL     1      -0.550   2.438   6.907  0.00  0.00    +0.139 A 
ATOM     14  O   UNL     1      -0.823   2.285   5.589  0.00  0.00    -0.422 OA
ATOM     15  C   UNL     1      -0.241   1.234   4.963  0.00  0.00    +0.347 A 
ATOM     16  O   UNL     1       0.216   1.345   3.840  0.00  0.00    -0.244 OA
ENDBRANCH   5   6
BRANCH   1  24
ATOM     17  C   UNL     1      -1.177   1.402   0.052  0.00  0.00    +0.068 C 
ATOM     18  C   UNL     1      -0.203   0.254   0.124  0.00  0.00    +0.069 C 
ATOM     19  N   UNL     1       0.576  -0.152  -0.832  0.00  0.00    -0.177 NA
ATOM     20  N   UNL     1       1.350  -1.239  -0.429  0.00  0.00    -0.156 N 
ATOM     21  C   UNL     1       1.068  -1.562   0.849  0.00  0.00    +0.272 C 
ATOM     22  O   UNL     1       1.565  -2.460   1.506  0.00  0.00    -0.268 OA
ATOM     23  C   UNL     1       0.042  -0.605   1.291  0.00  0.00    +0.062 C 
ATOM     24  C   UNL     1      -0.563  -0.531   2.537  0.00  0.00    +0.026 C 
BRANCH  20  25
ATOM     25  C   UNL     1       2.286  -1.900  -1.236  0.00  0.00    +0.060 A 
ATOM     26  C   UNL     1       3.000  -2.979  -0.731  0.00  0.00    +0.025 A 
ATOM     27  C   UNL     1       3.921  -3.629  -1.529  0.00  0.00    +0.002 A 
ATOM     28  C   UNL     1       4.133  -3.206  -2.828  0.00  0.00    +0.000 A 
ATOM     29  C   UNL     1       3.424  -2.132  -3.333  0.00  0.00    +0.002 A 
ATOM     30  C   UNL     1       2.497  -1.482  -2.543  0.00  0.00    +0.025 A 
ENDBRANCH  20  25
ENDBRANCH   1  24
BRANCH   3  31
ATOM     31  C   UNL     1       0.240  -4.926   4.657  0.00  0.00    +0.155 C 
BRANCH  31  32
ATOM     32  C   UNL     1       1.567  -5.165   5.382  0.00  0.00    +0.148 C 
BRANCH  32  33
ATOM     33  C   UNL     1       1.768  -6.644   5.586  0.00  0.00    +0.358 C 
ATOM     34  O   UNL     1       0.929  -7.434   5.188  0.00  0.00    -0.246 OA
ATOM     35  O   UNL     1       2.771  -7.051   6.148  0.00  0.00    -0.246 OA
ENDBRANCH  32  33
ENDBRANCH  31  32
ENDBRANCH   3  31
TORSDOF 6
