REMARK  Name = ZINC09541819
REMARK  11 active torsions:
REMARK  status: ('A' for Active; 'I' for Inactive)
REMARK    1  A    between atoms: C_1  and  C_2
REMARK    2  A    between atoms: C_2  and  O_3
REMARK    3  A    between atoms: O_3  and  C_4
REMARK    4  A    between atoms: C_8  and  C_11
REMARK    5  A    between atoms: C_9  and  O_10
REMARK    6  A    between atoms: C_14  and  C_26
REMARK    7  A    between atoms: C_16  and  C_18
REMARK    8  A    between atoms: C_23  and  O_24
REMARK    9  A    between atoms: O_24  and  C_25
REMARK   10  A    between atoms: C_30  and  O_32
REMARK   11  A    between atoms: O_32  and  C_33
REMARK                            x       y       z     vdW  Elec       q    Type
REMARK                         _______ _______ _______ _____ _____    ______ ____
ROOT
ATOM      1  C   UNL     1      -0.585   3.013   1.340  0.00  0.00    -0.028 C 
ATOM      2  C   UNL     1       0.881   3.325   1.654  0.00  0.00    +0.044 C 
ATOM      3  C   UNL     1       1.769   2.567   0.707  0.00  0.00    +0.040 C 
ATOM      4  N   UNL     1       1.357   1.585  -0.002  0.00  0.00    -0.298 NA
ATOM      5  C   UNL     1      -0.013   1.086   0.008  0.00  0.00    +0.084 C 
ATOM      6  N   UNL     1      -0.728   1.550   1.206  0.00  0.00    +0.401 N 
ATOM      7  H   UNL     1      -1.723   1.312   1.122  0.00  0.00    -0.081 HD
ATOM      8  H   UNL     1      -0.335   1.092   2.037  0.00  0.00    -0.081 HD
ENDROOT
BRANCH   1  13
ATOM      9  C   UNL     1      -2.696   5.276   3.521  0.00  0.00    +0.162 A 
ATOM     10  C   UNL     1      -3.072   4.404   4.531  0.00  0.00    +0.049 A 
ATOM     11  C   UNL     1      -2.644   3.090   4.506  0.00  0.00    +0.004 A 
ATOM     12  C   UNL     1      -1.840   2.642   3.474  0.00  0.00    +0.006 A 
ATOM     13  C   UNL     1      -1.462   3.506   2.463  0.00  0.00    -0.016 A 
ATOM     14  C   UNL     1      -1.883   4.825   2.486  0.00  0.00    +0.160 A 
BRANCH  14  15
ATOM     15  O   UNL     1      -1.507   5.678   1.495  0.00  0.00    -0.503 OA
ATOM     16  H   UNL     1      -2.117   5.702   0.745  0.00  0.00    +0.292 HD
ENDBRANCH  14  15
BRANCH   9  17
ATOM     17  O   UNL     1      -3.117   6.569   3.545  0.00  0.00    -0.489 OA
BRANCH  17  19
ATOM     18  C   UNL     1      -4.315   8.439   4.496  0.00  0.00    +0.048 C 
ATOM     19  C   UNL     1      -3.945   6.962   4.641  0.00  0.00    +0.226 C 
ENDBRANCH  17  19
ENDBRANCH   9  17
ENDBRANCH   1  13
BRANCH   5  20
ATOM     20  C   UNL     1      -0.730   1.579  -1.222  0.00  0.00    +0.001 A 
ATOM     21  C   UNL     1      -2.077   1.881  -1.162  0.00  0.00    +0.007 A 
ATOM     22  C   UNL     1      -2.735   2.338  -2.289  0.00  0.00    +0.000 A 
ATOM     23  C   UNL     1      -2.049   2.485  -3.481  0.00  0.00    +0.004 A 
ATOM     24  C   UNL     1      -0.704   2.179  -3.547  0.00  0.00    +0.046 A 
ATOM     25  C   UNL     1      -0.040   1.725  -2.416  0.00  0.00    +0.123 A 
BRANCH  25  26
ATOM     26  O   UNL     1       1.284   1.424  -2.479  0.00  0.00    -0.495 OA
ATOM     27  C   UNL     1       1.929   1.598  -3.742  0.00  0.00    +0.277 C 
ENDBRANCH  25  26
ENDBRANCH   5  20
BRANCH   3  28
ATOM     28  C   UNL     1       3.183   2.974   0.590  0.00  0.00    -0.001 A 
ATOM     29  C   UNL     1       3.668   4.045   1.343  0.00  0.00    +0.010 A 
ATOM     30  C   UNL     1       4.992   4.420   1.235  0.00  0.00    +0.004 A 
ATOM     31  C   UNL     1       5.838   3.745   0.374  0.00  0.00    +0.045 A 
ATOM     32  C   UNL     1       5.363   2.683  -0.383  0.00  0.00    +0.121 A 
ATOM     33  C   UNL     1       4.038   2.295  -0.279  0.00  0.00    +0.055 A 
BRANCH  32  34
ATOM     34  O   UNL     1       6.199   2.023  -1.228  0.00  0.00    -0.495 OA
ATOM     35  C   UNL     1       7.553   2.477  -1.285  0.00  0.00    +0.277 C 
ENDBRANCH  32  34
ENDBRANCH   3  28
TORSDOF 8
