REMARK  Name = ZINC01587170
REMARK  5 active torsions:
REMARK  status: ('A' for Active; 'I' for Inactive)
REMARK    1  A    between atoms: C_3  and  O_23
REMARK    2  A    between atoms: C_6  and  C_7
REMARK    3  A    between atoms: C_7  and  C_9
REMARK    4  A    between atoms: C_7  and  N_19
REMARK    5  A    between atoms: C_14  and  O_15
REMARK                            x       y       z     vdW  Elec       q    Type
REMARK                         _______ _______ _______ _____ _____    ______ ____
ROOT
ATOM      1  C   UNL     1      -2.477   1.174   0.112  0.00  0.00    +0.139 C 
ENDROOT
BRANCH   1   2
ATOM      2  C   UNL     1      -2.382   0.131  -0.971  0.00  0.00    +0.022 A 
ATOM      3  C   UNL     1      -1.155  -0.175  -1.530  0.00  0.00    +0.059 A 
ATOM      4  C   UNL     1      -1.065  -1.136  -2.523  0.00  0.00    +0.167 A 
ATOM      5  C   UNL     1      -2.213  -1.789  -2.965  0.00  0.00    +0.170 A 
ATOM      6  C   UNL     1      -3.442  -1.477  -2.407  0.00  0.00    +0.095 A 
ATOM      7  C   UNL     1      -3.527  -0.517  -1.410  0.00  0.00    +0.126 A 
ATOM      8  O   UNL     1      -1.862  -2.676  -3.941  0.00  0.00    -0.452 OA
ATOM      9  C   UNL     1      -0.440  -2.855  -3.805  0.00  0.00    +0.466 C 
ATOM     10  O   UNL     1       0.006  -1.616  -3.222  0.00  0.00    -0.453 OA
BRANCH   7  11
ATOM     11  O   UNL     1      -4.733  -0.211  -0.862  0.00  0.00    -0.506 OA
ATOM     12  H   UNL     1      -5.202   0.503  -1.316  0.00  0.00    +0.292 HD
ENDBRANCH   7  11
ENDBRANCH   1   2
BRANCH   1  13
ATOM     13  N   UNL     1      -1.376   2.130  -0.033  0.00  0.00    -0.289 N 
ATOM     14  C   UNL     1      -1.516   3.203  -0.836  0.00  0.00    +0.298 C 
ATOM     15  O   UNL     1      -2.521   3.333  -1.508  0.00  0.00    -0.253 OA
ATOM     16  N   UNL     1      -0.545   4.136  -0.889  0.00  0.00    -0.313 N 
ATOM     17  H   UNL     1      -0.545   1.990   0.449  0.00  0.00    +0.151 HD
ATOM     18  H   UNL     1      -0.648   4.911  -1.464  0.00  0.00    +0.146 HD
ATOM     19  H   UNL     1       0.257   4.033  -0.353  0.00  0.00    +0.146 HD
ENDBRANCH   1  13
BRANCH   1  25
ATOM     20  C   UNL     1      -1.167   0.069   1.935  0.00  0.00    +0.009 A 
ATOM     21  C   UNL     1      -1.083  -0.538   3.174  0.00  0.00    +0.046 A 
ATOM     22  C   UNL     1      -2.228  -0.717   3.936  0.00  0.00    +0.117 A 
ATOM     23  C   UNL     1      -3.454  -0.281   3.455  0.00  0.00    +0.046 A 
ATOM     24  C   UNL     1      -3.532   0.331   2.219  0.00  0.00    +0.009 A 
ATOM     25  C   UNL     1      -2.389   0.508   1.461  0.00  0.00    -0.022 A 
BRANCH  22  26
ATOM     26  O   UNL     1      -2.149  -1.319   5.152  0.00  0.00    -0.507 OA
ATOM     27  H   UNL     1      -2.256  -2.280   5.123  0.00  0.00    +0.292 HD
ENDBRANCH  22  26
ENDBRANCH   1  25
TORSDOF 5
