REMARK  Name = ZINC34757684
REMARK  6 active torsions:
REMARK  status: ('A' for Active; 'I' for Inactive)
REMARK    1  A    between atoms: C_8  and  N_17
REMARK    2  A    between atoms: C_10  and  S_12
REMARK    3  A    between atoms: S_12  and  C_13
REMARK    4  A    between atoms: C_13  and  C_14
REMARK    5  A    between atoms: N_20  and  C_23
REMARK    6  A    between atoms: C_23  and  C_24
REMARK                            x       y       z     vdW  Elec       q    Type
REMARK                         _______ _______ _______ _____ _____    ______ ____
ROOT
ATOM      1  C   UNL     1       0.220   1.341  -0.635  0.00  0.00    +0.010 C 
ATOM      2  C   UNL     1       1.693   1.747  -0.428  0.00  0.00    +0.037 C 
ATOM      3  C   UNL     1       2.345   0.565   0.295  0.00  0.00    -0.025 A 
ATOM      4  C   UNL     1       1.555  -0.509   0.147  0.00  0.00    -0.004 A 
ATOM      5  S   UNL     1       2.390  -1.821   1.010  0.00  0.00    -0.073 S 
ATOM      6  C   UNL     1       3.805  -0.916   1.574  0.00  0.00    +0.115 A 
ATOM      7  C   UNL     1       3.583   0.379   1.071  0.00  0.00    +0.051 A 
ATOM      8  C   UNL     1       4.585   1.341   1.378  0.00  0.00    +0.134 A 
ATOM      9  N   UNL     1       5.633   0.973   2.096  0.00  0.00    -0.206 NA
ATOM     10  C   UNL     1       5.782  -0.270   2.540  0.00  0.00    +0.191 A 
ATOM     11  N   UNL     1       4.879  -1.207   2.283  0.00  0.00    -0.214 NA
ATOM     12  C   UNL     1       0.320  -0.200  -0.656  0.00  0.00    +0.043 C 
ENDROOT
BRANCH   8  13
ATOM     13  N   UNL     1       4.464   2.645   0.932  0.00  0.00    -0.318 N 
ATOM     14  C   UNL     1       3.860   3.682   1.783  0.00  0.00    +0.088 C 
ATOM     15  C   UNL     1       4.803   4.889   1.820  0.00  0.00    -0.059 C 
ATOM     16  N   UNL     1       5.094   5.324   0.448  0.00  0.00    +0.387 N 
ATOM     17  C   UNL     1       5.829   4.271  -0.265  0.00  0.00    -0.059 C 
ATOM     18  C   UNL     1       4.942   3.035  -0.403  0.00  0.00    +0.088 C 
ATOM     19  H   UNL     1       4.229   5.514  -0.034  0.00  0.00    -0.081 HD
BRANCH  16  20
ATOM     20  C   UNL     1       5.908   6.546   0.486  0.00  0.00    +0.018 C 
BRANCH  20  21
ATOM     21  C   UNL     1       6.105   7.063  -0.916  0.00  0.00    +0.194 C 
ATOM     22  O   UNL     1       5.616   6.471  -1.855  0.00  0.00    -0.278 OA
ATOM     23  N   UNL     1       6.825   8.182  -1.127  0.00  0.00    -0.331 N 
ATOM     24  H   UNL     1       7.217   8.656  -0.376  0.00  0.00    +0.145 HD
ATOM     25  H   UNL     1       6.952   8.514  -2.029  0.00  0.00    +0.145 HD
ENDBRANCH  20  21
ENDBRANCH  16  20
ENDBRANCH   8  13
BRANCH  10  26
ATOM     26  S   UNL     1       7.208  -0.682   3.489  0.00  0.00    -0.077 S 
BRANCH  26  27
ATOM     27  C   UNL     1       6.989  -2.443   3.868  0.00  0.00    +0.172 C 
BRANCH  27  28
ATOM     28  C   UNL     1       8.156  -2.929   4.687  0.00  0.00    +0.221 C 
ATOM     29  O   UNL     1       9.048  -2.164   4.986  0.00  0.00    -0.275 OA
ATOM     30  N   UNL     1       8.209  -4.215   5.088  0.00  0.00    -0.329 N 
ATOM     31  H   UNL     1       7.496  -4.827   4.849  0.00  0.00    +0.145 HD
ATOM     32  H   UNL     1       8.960  -4.528   5.615  0.00  0.00    +0.145 HD
ENDBRANCH  27  28
ENDBRANCH  26  27
ENDBRANCH  10  26
TORSDOF 6
