REMARK  Name = ZINC09019544
REMARK  7 active torsions:
REMARK  status: ('A' for Active; 'I' for Inactive)
REMARK    1  A    between atoms: C_1  and  O_2
REMARK    2  A    between atoms: O_2  and  C_3
REMARK    3  A    between atoms: C_8  and  C_9
REMARK    4  A    between atoms: N_18  and  N_19
REMARK    5  A    between atoms: N_19  and  C_20
REMARK    6  A    between atoms: C_23  and  N_29
REMARK    7  A    between atoms: C_25  and  N_26
REMARK                            x       y       z     vdW  Elec       q    Type
REMARK                         _______ _______ _______ _____ _____    ______ ____
ROOT
ATOM      1  C   UNL     1      -1.213   3.268   4.166  0.00  0.00    +0.020 C 
ATOM      2  C   UNL     1      -2.043   3.629   5.245  0.00  0.00    -0.009 C 
ATOM      3  C   UNL     1      -2.244   5.034   5.612  0.00  0.00    -0.008 A 
ATOM      4  C   UNL     1      -1.302   6.018   5.292  0.00  0.00    +0.009 A 
ATOM      5  C   UNL     1      -1.532   7.313   5.656  0.00  0.00    +0.001 A 
ATOM      6  C   UNL     1      -2.691   7.670   6.343  0.00  0.00    +0.001 A 
ATOM      7  C   UNL     1      -3.639   6.734   6.665  0.00  0.00    +0.011 A 
ATOM      8  C   UNL     1      -3.433   5.398   6.308  0.00  0.00    +0.010 A 
ATOM      9  C   UNL     1      -4.408   4.355   6.637  0.00  0.00    +0.097 C 
ATOM     10  N   UNL     1      -5.700   4.650   6.835  0.00  0.00    -0.181 NA
ATOM     11  C   UNL     1      -3.920   2.977   6.742  0.00  0.00    +0.010 A 
ATOM     12  C   UNL     1      -2.734   2.614   6.045  0.00  0.00    -0.008 A 
ATOM     13  C   UNL     1      -2.255   1.303   6.138  0.00  0.00    +0.009 A 
ATOM     14  C   UNL     1      -2.933   0.391   6.894  0.00  0.00    +0.001 A 
ATOM     15  C   UNL     1      -4.096   0.747   7.575  0.00  0.00    +0.001 A 
ATOM     16  C   UNL     1      -4.590   2.017   7.507  0.00  0.00    +0.011 A 
ENDROOT
BRANCH   1  22
ATOM     17  C   UNL     1       0.616   4.253   2.869  0.00  0.00    +0.127 A 
ATOM     18  C   UNL     1       1.060   5.231   1.992  0.00  0.00    +0.046 A 
ATOM     19  C   UNL     1       0.187   6.198   1.535  0.00  0.00    +0.004 A 
ATOM     20  C   UNL     1      -1.143   6.205   1.944  0.00  0.00    +0.001 A 
ATOM     21  C   UNL     1      -1.609   5.257   2.804  0.00  0.00    +0.011 A 
ATOM     22  C   UNL     1      -0.740   4.254   3.283  0.00  0.00    +0.017 A 
BRANCH  17  24
ATOM     23  C   UNL     1       2.816   3.365   2.854  0.00  0.00    +0.277 C 
ATOM     24  O   UNL     1       1.467   3.303   3.321  0.00  0.00    -0.495 OA
ENDBRANCH  17  24
ENDBRANCH   1  22
BRANCH  10  25
ATOM     25  N   UNL     1      -6.153   5.813   6.508  0.00  0.00    -0.235 N 
ATOM     26  H   UNL     1      -5.584   6.440   6.035  0.00  0.00    +0.174 HD
BRANCH  25  27
ATOM     27  C   UNL     1      -7.453   6.167   6.833  0.00  0.00    +0.079 A 
ATOM     28  C   UNL     1      -8.238   5.312   7.606  0.00  0.00    +0.029 A 
ATOM     29  C   UNL     1      -9.531   5.669   7.926  0.00  0.00    +0.035 A 
ATOM     30  C   UNL     1     -10.050   6.873   7.483  0.00  0.00    +0.128 A 
ATOM     31  C   UNL     1      -9.274   7.726   6.717  0.00  0.00    +0.067 A 
ATOM     32  C   UNL     1      -7.978   7.381   6.395  0.00  0.00    +0.151 A 
BRANCH  32  33
ATOM     33  N   UNL     1      -7.148   8.296   5.580  0.00  0.00    +0.058 N 
ATOM     34  O   UNL     1      -7.598   9.495   5.272  0.00  0.00    -0.126 OA
ATOM     35  O   UNL     1      -5.959   7.912   5.162  0.00  0.00    -0.126 OA
ENDBRANCH  32  33
BRANCH  30  36
ATOM     36  N   UNL     1     -11.438   7.251   7.831  0.00  0.00    +0.056 N 
ATOM     37  O   UNL     1     -12.178   6.442   8.560  0.00  0.00    -0.126 OA
ATOM     38  O   UNL     1     -11.933   8.397   7.410  0.00  0.00    -0.126 OA
ENDBRANCH  30  36
ENDBRANCH  25  27
ENDBRANCH  10  25
TORSDOF 6
