REMARK  Name = ZINC67400709
REMARK  10 active torsions:
REMARK  status: ('A' for Active; 'I' for Inactive)
REMARK    1  A    between atoms: C_1  and  C_2
REMARK    2  A    between atoms: C_2  and  C_4
REMARK    3  A    between atoms: C_2  and  N_14
REMARK    4  A    between atoms: N_9  and  C_10
REMARK    5  A    between atoms: C_10  and  C_11
REMARK    6  A    between atoms: C_10  and  C_12
REMARK    7  A    between atoms: C_10  and  C_13
REMARK    8  A    between atoms: C_17  and  C_20
REMARK    9  A    between atoms: C_20  and  C_22
REMARK   10  A    between atoms: C_20  and  O_29
REMARK                            x       y       z     vdW  Elec       q    Type
REMARK                         _______ _______ _______ _____ _____    ______ ____
ROOT
ATOM      1  N   UNL     1       1.009  -0.914   0.564  0.00  0.00    +0.387 N 
ATOM      2  C   UNL     1       1.010  -2.170  -0.196  0.00  0.00    -0.077 C 
ATOM      3  C   UNL     1       1.999  -3.152   0.435  0.00  0.00    -0.012 C 
ATOM      4  C   UNL     1       3.403  -2.539   0.413  0.00  0.00    +0.019 C 
ATOM      5  C   UNL     1       3.373  -1.194   1.145  0.00  0.00    -0.012 C 
ATOM      6  C   UNL     1       2.333  -0.284   0.487  0.00  0.00    -0.077 C 
ATOM      7  H   UNL     1       0.785  -1.107   1.529  0.00  0.00    -0.081 HD
ENDROOT
BRANCH   1   9
ATOM      8  C   UNL     1       0.019   1.316   0.775  0.00  0.00    -0.004 C 
ATOM      9  C   UNL     1       0.002  -0.004   0.002  0.00  0.00    +0.017 C 
BRANCH   9  10
ATOM     10  C   UNL     1      -1.363  -0.634   0.114  0.00  0.00    +0.207 C 
ATOM     11  O   UNL     1      -1.591  -1.432   0.997  0.00  0.00    -0.277 OA
ATOM     12  N   UNL     1      -2.328  -0.310  -0.769  0.00  0.00    -0.242 N 
ATOM     13  C   UNL     1      -3.549  -0.873  -0.669  0.00  0.00    +0.306 C 
ATOM     14  O   UNL     1      -3.778  -1.673   0.217  0.00  0.00    -0.252 OA
ATOM     15  N   UNL     1      -4.515  -0.549  -1.551  0.00  0.00    -0.294 N 
ATOM     16  H   UNL     1      -2.145   0.329  -1.476  0.00  0.00    +0.159 HD
ATOM     17  H   UNL     1      -4.332   0.089  -2.258  0.00  0.00    +0.151 HD
BRANCH  15  18
ATOM     18  C   UNL     1      -5.841  -1.161  -1.442  0.00  0.00    +0.028 C 
ATOM     19  C   UNL     1      -6.452  -0.817  -0.083  0.00  0.00    +0.031 C 
ATOM     20  C   UNL     1      -6.743  -0.626  -2.557  0.00  0.00    +0.031 C 
ATOM     21  C   UNL     1      -5.714  -2.680  -1.575  0.00  0.00    +0.031 C 
ENDBRANCH  15  18
ENDBRANCH   9  10
ENDBRANCH   1   9
BRANCH   4  22
ATOM     22  C   UNL     1       4.383  -3.481   1.114  0.00  0.00    +0.147 C 
BRANCH  22  23
ATOM     23  C   UNL     1       5.764  -2.877   1.091  0.00  0.00    -0.019 A 
ATOM     24  C   UNL     1       6.141  -1.978   2.072  0.00  0.00    +0.007 A 
ATOM     25  C   UNL     1       7.406  -1.423   2.052  0.00  0.00    +0.020 A 
ATOM     26  C   UNL     1       8.296  -1.767   1.050  0.00  0.00    +0.041 A 
ATOM     27  C   UNL     1       7.919  -2.667   0.069  0.00  0.00    +0.020 A 
ATOM     28  C   UNL     1       6.654  -3.225   0.093  0.00  0.00    +0.007 A 
ATOM     29 CL   UNL     1       9.886  -1.071   1.024  0.00  0.00    -0.084 Cl
ENDBRANCH  22  23
BRANCH  22  30
ATOM     30  O   UNL     1       3.971  -3.677   2.468  0.00  0.00    -0.387 OA
ATOM     31  H   UNL     1       3.935  -2.863   2.990  0.00  0.00    +0.210 HD
ENDBRANCH  22  30
ENDBRANCH   4  22
TORSDOF 6
