REMARK  Name = ZINC12500481
REMARK  11 active torsions:
REMARK  status: ('A' for Active; 'I' for Inactive)
REMARK    1  A    between atoms: C_1  and  C_2
REMARK    2  A    between atoms: C_2  and  C_3
REMARK    3  A    between atoms: C_6  and  N_9
REMARK    4  A    between atoms: C_10  and  C_12
REMARK    5  A    between atoms: C_12  and  S_13
REMARK    6  A    between atoms: S_13  and  C_14
REMARK    7  A    between atoms: C_14  and  N_28
REMARK    8  A    between atoms: C_15  and  C_16
REMARK    9  A    between atoms: C_15  and  C_18
REMARK   10  A    between atoms: N_20  and  C_21
REMARK   11  A    between atoms: N_28  and  C_29
REMARK                            x       y       z     vdW  Elec       q    Type
REMARK                         _______ _______ _______ _____ _____    ______ ____
ROOT
ATOM      1  C   UNL     1       7.182  -3.096  -7.149  0.00  0.00    +0.089 C 
ATOM      2  C   UNL     1       8.409  -3.758  -7.037  0.00  0.00    +0.141 C 
ENDROOT
BRANCH   2   3
ATOM      3  C   UNL     1       8.969  -4.411  -8.164  0.00  0.00    +0.261 C 
ATOM      4  O   UNL     1       8.440  -4.302  -9.256  0.00  0.00    -0.269 OA
ATOM      5  N   UNL     1      10.086  -5.152  -8.028  0.00  0.00    -0.281 N 
ATOM      6  H   UNL     1      10.485  -5.272  -7.152  0.00  0.00    +0.155 HD
BRANCH   5   7
ATOM      7  C   UNL     1      10.671  -5.749  -9.150  0.00  0.00    +0.034 A 
ATOM      8  C   UNL     1      11.325  -6.968  -9.028  0.00  0.00    +0.025 A 
ATOM      9  C   UNL     1      11.901  -7.556 -10.137  0.00  0.00    +0.022 A 
ATOM     10  C   UNL     1      11.826  -6.931 -11.370  0.00  0.00    +0.041 A 
ATOM     11  C   UNL     1      11.175  -5.716 -11.494  0.00  0.00    +0.022 A 
ATOM     12  C   UNL     1      10.592  -5.127 -10.389  0.00  0.00    +0.025 A 
ATOM     13 CL   UNL     1      12.551  -7.672 -12.762  0.00  0.00    -0.084 Cl
ENDBRANCH   5   7
ENDBRANCH   2   3
BRANCH   2  14
ATOM     14  C   UNL     1       9.099  -3.777  -5.782  0.00  0.00    +0.107 C 
ATOM     15  N   UNL     1       9.647  -3.792  -4.787  0.00  0.00    -0.191 NA
ENDBRANCH   2  14
BRANCH   1  16
ATOM     16  N   UNL     1       6.455  -3.196  -8.302  0.00  0.00    -0.308 N 
ATOM     17  H   UNL     1       6.411  -2.445  -8.915  0.00  0.00    +0.153 HD
BRANCH  16  18
ATOM     18  C   UNL     1       5.775  -4.381  -8.599  0.00  0.00    +0.032 A 
ATOM     19  C   UNL     1       5.740  -5.415  -7.671  0.00  0.00    +0.023 A 
ATOM     20  C   UNL     1       5.067  -6.584  -7.967  0.00  0.00    +0.002 A 
ATOM     21  C   UNL     1       4.429  -6.727  -9.185  0.00  0.00    +0.000 A 
ATOM     22  C   UNL     1       4.462  -5.700 -10.111  0.00  0.00    +0.002 A 
ATOM     23  C   UNL     1       5.128  -4.526  -9.819  0.00  0.00    +0.023 A 
ENDBRANCH  16  18
ENDBRANCH   1  16
BRANCH   1  24
ATOM     24  S   UNL     1       6.574  -2.132  -5.806  0.00  0.00    -0.099 S 
BRANCH  24  25
ATOM     25  C   UNL     1       4.932  -1.595  -6.358  0.00  0.00    +0.171 C 
BRANCH  25  27
ATOM     26  N   UNL     1       2.969  -0.445  -5.388  0.00  0.00    -0.285 N 
ATOM     27  C   UNL     1       4.246  -0.848  -5.243  0.00  0.00    +0.227 C 
ATOM     28  O   UNL     1       4.844  -0.611  -4.215  0.00  0.00    -0.275 OA
ATOM     29  H   UNL     1       2.473  -0.681  -6.188  0.00  0.00    +0.155 HD
BRANCH  26  33
ATOM     30  C   UNL     1       1.145   1.817  -2.402  0.00  0.00    -0.048 A 
ATOM     31  C   UNL     1       0.715   1.928  -3.712  0.00  0.00    +0.005 A 
ATOM     32  C   UNL     1       1.318   1.180  -4.704  0.00  0.00    +0.023 A 
ATOM     33  C   UNL     1       2.356   0.315  -4.386  0.00  0.00    +0.033 A 
ATOM     34  C   UNL     1       2.786   0.205  -3.070  0.00  0.00    +0.023 A 
ATOM     35  C   UNL     1       2.183   0.960  -2.083  0.00  0.00    +0.005 A 
BRANCH  30  37
ATOM     36  C   UNL     1       1.210   3.975  -1.183  0.00  0.00    +0.009 C 
ATOM     37  C   UNL     1       0.485   2.635  -1.322  0.00  0.00    +0.032 C 
ENDBRANCH  30  37
ENDBRANCH  26  33
ENDBRANCH  25  27
ENDBRANCH  24  25
ENDBRANCH   1  24
TORSDOF 10
