REMARK  Name = ZINC04189014
REMARK  8 active torsions:
REMARK  status: ('A' for Active; 'I' for Inactive)
REMARK    1  A    between atoms: C_1  and  C_2
REMARK    2  A    between atoms: C_6  and  N_8
REMARK    3  A    between atoms: N_19  and  C_28
REMARK    4  A    between atoms: N_21  and  C_22
REMARK    5  A    between atoms: C_28  and  C_29
REMARK    6  A    between atoms: N_31  and  C_32
REMARK    7  A    between atoms: C_32  and  C_34
REMARK    8  A    between atoms: C_32  and  C_35
REMARK                            x       y       z     vdW  Elec       q    Type
REMARK                         _______ _______ _______ _____ _____    ______ ____
ROOT
ATOM      1  N   UNL     1       1.623   5.076   0.426  0.00  0.00    -0.269 N 
ATOM      2  C   UNL     1       0.518   5.842   0.323  0.00  0.00    +0.306 C 
ATOM      3  O   UNL     1      -0.583   5.335   0.409  0.00  0.00    -0.252 OA
ATOM      4  N   UNL     1       0.635   7.170   0.126  0.00  0.00    -0.285 N 
ATOM      5  C   UNL     1      -0.554   8.033   0.117  0.00  0.00    +0.112 C 
ATOM      6  C   UNL     1      -0.344   9.164   1.136  0.00  0.00    +0.054 C 
ATOM      7  C   UNL     1       0.968   9.881   0.832  0.00  0.00    +0.115 C 
ATOM      8  C   UNL     1       2.144   8.913   0.924  0.00  0.00    +0.054 C 
ATOM      9  C   UNL     1       1.954   7.781  -0.091  0.00  0.00    +0.112 C 
ATOM     10  C   UNL     1       0.916  10.517  -0.535  0.00  0.00    +0.241 C 
ATOM     11  O   UNL     1       0.497   9.993  -1.546  0.00  0.00    -0.273 OA
ATOM     12  N   UNL     1       1.414  11.768  -0.442  0.00  0.00    -0.275 N 
ATOM     13  C   UNL     1       1.830  12.029   0.942  0.00  0.00    +0.217 C 
ATOM     14  N   UNL     1       1.161  11.003   1.775  0.00  0.00    -0.300 N 
ATOM     15  H   UNL     1       2.501   5.489   0.425  0.00  0.00    +0.156 HD
ENDROOT
BRANCH   1  21
ATOM     16  C   UNL     1       3.351   0.588  -0.592  0.00  0.00    +0.044 C 
ATOM     17  C   UNL     1       2.326   1.487   0.050  0.00  0.00    -0.049 A 
ATOM     18  C   UNL     1       1.265   0.938   0.747  0.00  0.00    +0.003 A 
ATOM     19  C   UNL     1       0.326   1.760   1.342  0.00  0.00    +0.002 A 
ATOM     20  C   UNL     1       0.442   3.132   1.238  0.00  0.00    +0.023 A 
ATOM     21  C   UNL     1       1.503   3.686   0.534  0.00  0.00    +0.035 A 
ATOM     22  C   UNL     1       2.445   2.858  -0.063  0.00  0.00    +0.026 A 
ENDBRANCH   1  21
BRANCH  14  23
ATOM     23  C   UNL     1       1.972  10.622   2.847  0.00  0.00    +0.032 A 
ATOM     24  C   UNL     1       1.605   9.550   3.651  0.00  0.00    +0.023 A 
ATOM     25  C   UNL     1       2.411   9.173   4.707  0.00  0.00    +0.002 A 
ATOM     26  C   UNL     1       3.577   9.868   4.971  0.00  0.00    +0.000 A 
ATOM     27  C   UNL     1       3.942  10.939   4.176  0.00  0.00    +0.002 A 
ATOM     28  C   UNL     1       3.144  11.318   3.115  0.00  0.00    +0.023 A 
ENDBRANCH  14  23
BRANCH  12  29
ATOM     29  C   UNL     1       1.523  12.719  -1.550  0.00  0.00    +0.205 C 
BRANCH  29  30
ATOM     30  C   UNL     1       2.859  12.550  -2.228  0.00  0.00    +0.231 C 
ATOM     31  O   UNL     1       3.643  11.717  -1.824  0.00  0.00    -0.274 OA
ATOM     32  N   UNL     1       3.183  13.324  -3.282  0.00  0.00    -0.307 N 
ATOM     33  H   UNL     1       2.556  13.990  -3.605  0.00  0.00    +0.149 HD
BRANCH  32  34
ATOM     34  C   UNL     1       4.481  13.160  -3.940  0.00  0.00    +0.100 C 
ATOM     35  C   UNL     1       5.537  13.983  -3.199  0.00  0.00    +0.033 C 
BRANCH  34  36
ATOM     36  C   UNL     1       4.385  13.635  -5.367  0.00  0.00    -0.027 A 
ATOM     37  C   UNL     1       3.655  14.770  -5.670  0.00  0.00    +0.005 A 
ATOM     38  C   UNL     1       3.571  15.209  -6.978  0.00  0.00    +0.000 A 
ATOM     39  C   UNL     1       4.208  14.507  -7.985  0.00  0.00    +0.000 A 
ATOM     40  C   UNL     1       4.933  13.370  -7.683  0.00  0.00    +0.000 A 
ATOM     41  C   UNL     1       5.021  12.934  -6.374  0.00  0.00    +0.005 A 
ENDBRANCH  34  36
ENDBRANCH  32  34
ENDBRANCH  29  30
ENDBRANCH  12  29
TORSDOF 6
