REMARK  Name = ZINC12882896
REMARK  7 active torsions:
REMARK  status: ('A' for Active; 'I' for Inactive)
REMARK    1  A    between atoms: C_1  and  S_2
REMARK    2  A    between atoms: S_2  and  C_3
REMARK    3  A    between atoms: C_3  and  C_4
REMARK    4  A    between atoms: C_4  and  C_5
REMARK    5  A    between atoms: N_13  and  C_16
REMARK    6  A    between atoms: C_16  and  C_17
REMARK    7  A    between atoms: C_17  and  C_18
REMARK                            x       y       z     vdW  Elec       q    Type
REMARK                         _______ _______ _______ _____ _____    ______ ____
ROOT
ATOM      1  C   UNL     1       1.951   1.954   1.346  0.00  0.00    -0.057 C 
ATOM      2  C   UNL     1       1.118   2.611   0.226  0.00  0.00    +0.073 C 
ATOM      3  C   UNL     1       0.609   3.946   0.837  0.00  0.00    +0.088 C 
ATOM      4  C   UNL     1      -0.891   3.756   0.887  0.00  0.00    +0.225 C 
ATOM      5  O   UNL     1      -1.687   4.573   1.295  0.00  0.00    -0.275 OA
ATOM      6  N   UNL     1      -1.202   2.547   0.405  0.00  0.00    -0.241 N 
ATOM      7  C   UNL     1      -0.151   1.817   0.015  0.00  0.00    +0.224 C 
ATOM      8  O   UNL     1      -0.207   0.695  -0.442  0.00  0.00    -0.275 OA
ATOM      9  C   UNL     1       1.174   3.958   2.262  0.00  0.00    +0.050 C 
ATOM     10  C   UNL     1       0.222   4.598   3.231  0.00  0.00    -0.026 A 
ATOM     11  C   UNL     1      -1.074   4.325   3.608  0.00  0.00    +0.004 A 
ATOM     12  C   UNL     1      -1.703   5.116   4.553  0.00  0.00    +0.002 A 
ATOM     13  C   UNL     1      -1.027   6.182   5.118  0.00  0.00    +0.022 A 
ATOM     14  C   UNL     1       0.271   6.461   4.742  0.00  0.00    +0.062 A 
ATOM     15  C   UNL     1       0.912   5.670   3.791  0.00  0.00    +0.054 A 
ATOM     16  N   UNL     1       2.199   5.749   3.254  0.00  0.00    -0.285 N 
ATOM     17  C   UNL     1       2.432   4.780   2.347  0.00  0.00    +0.211 C 
ATOM     18  O   UNL     1       3.456   4.605   1.722  0.00  0.00    -0.277 OA
ATOM     19 CL   UNL     1       1.109   7.803   5.458  0.00  0.00    -0.082 Cl
ATOM     20  H   UNL     1       2.849   6.423   3.505  0.00  0.00    +0.155 HD
ATOM     21  N   UNL     1       1.436   2.564   2.574  0.00  0.00    +0.394 N 
ATOM     22  H   UNL     1       2.134   2.494   3.325  0.00  0.00    -0.083 HD
ATOM     23  H   UNL     1       0.570   2.097   2.867  0.00  0.00    -0.083 HD
ENDROOT
BRANCH   1  24
ATOM     24  C   UNL     1       3.434   2.288   1.173  0.00  0.00    -0.004 C 
BRANCH  24  25
ATOM     25  C   UNL     1       4.112   1.188   0.353  0.00  0.00    +0.067 C 
BRANCH  25  27
ATOM     26  C   UNL     1       6.519   0.202  -0.832  0.00  0.00    +0.084 C 
ATOM     27  S   UNL     1       5.870   1.583   0.147  0.00  0.00    -0.164 S 
ENDBRANCH  25  27
ENDBRANCH  24  25
ENDBRANCH   1  24
BRANCH   6  28
ATOM     28  C   UNL     1      -2.581   2.060   0.318  0.00  0.00    +0.121 C 
BRANCH  28  29
ATOM     29  C   UNL     1      -2.951   1.339   1.615  0.00  0.00    +0.054 C 
BRANCH  29  30
ATOM     30  C   UNL     1      -4.369   0.838   1.525  0.00  0.00    -0.046 A 
ATOM     31  C   UNL     1      -5.413   1.638   1.950  0.00  0.00    +0.004 A 
ATOM     32  C   UNL     1      -6.715   1.181   1.862  0.00  0.00    +0.000 A 
ATOM     33  C   UNL     1      -6.971  -0.081   1.359  0.00  0.00    +0.000 A 
ATOM     34  C   UNL     1      -5.927  -0.883   0.940  0.00  0.00    +0.000 A 
ATOM     35  C   UNL     1      -4.626  -0.424   1.022  0.00  0.00    +0.004 A 
ENDBRANCH  29  30
ENDBRANCH  28  29
ENDBRANCH   6  28
TORSDOF 6
