REMARK  Name = ZINC03312379
REMARK  11 active torsions:
REMARK  status: ('A' for Active; 'I' for Inactive)
REMARK    1  A    between atoms: C_1  and  O_2
REMARK    2  A    between atoms: O_2  and  C_3
REMARK    3  A    between atoms: C_3  and  C_4
REMARK    4  A    between atoms: C_4  and  N_5
REMARK    5  A    between atoms: N_5  and  C_6
REMARK    6  A    between atoms: C_7  and  C_26
REMARK    7  A    between atoms: C_8  and  N_25
REMARK    8  A    between atoms: C_10  and  C_13
REMARK    9  A    between atoms: C_13  and  C_15
REMARK   10  A    between atoms: C_18  and  O_21
REMARK   11  A    between atoms: O_21  and  C_22
REMARK                            x       y       z     vdW  Elec       q    Type
REMARK                         _______ _______ _______ _____ _____    ______ ____
ROOT
ATOM      1  C   UNL     1       0.175   2.644  -3.371  0.00  0.00    +0.066 C 
ATOM      2  C   UNL     1       0.045   1.513  -2.647  0.00  0.00    -0.001 C 
ATOM      3  C   UNL     1      -0.538   1.573  -1.280  0.00  0.00    -0.018 C 
ATOM      4  C   UNL     1      -0.928   3.003  -0.861  0.00  0.00    +0.113 C 
ATOM      5  S   UNL     1      -0.451   3.959  -2.348  0.00  0.00    -0.100 S 
ENDROOT
BRANCH   2   6
ATOM      6  C   UNL     1       0.461   0.276  -3.190  0.00  0.00    +0.106 A 
ATOM      7  N   UNL     1       0.314  -0.941  -2.690  0.00  0.00    -0.239 NA
ATOM      8  C   UNL     1       0.764  -2.040  -3.329  0.00  0.00    +0.079 A 
ATOM      9  C   UNL     1       0.669  -3.389  -2.913  0.00  0.00    +0.029 A 
ATOM     10  C   UNL     1       1.188  -4.398  -3.684  0.00  0.00    +0.002 A 
ATOM     11  C   UNL     1       1.819  -4.136  -4.891  0.00  0.00    +0.001 A 
ATOM     12  C   UNL     1       1.930  -2.827  -5.328  0.00  0.00    +0.017 A 
ATOM     13  C   UNL     1       1.414  -1.812  -4.564  0.00  0.00    +0.040 A 
ATOM     14  S   UNL     1       1.326  -0.044  -4.720  0.00  0.00    -0.067 S 
ENDBRANCH   2   6
BRANCH   3  15
ATOM     15  N   UNL     1       0.447   1.051  -0.322  0.00  0.00    +0.384 N 
ATOM     16  H   UNL     1       0.026   1.090   0.694  0.00  0.00    -0.089 HD
ATOM     17  H   UNL     1       1.360   1.663  -0.365  0.00  0.00    -0.089 HD
ATOM     18  H   UNL     1       0.690   0.009  -0.578  0.00  0.00    -0.089 HD
ENDBRANCH   3  15
BRANCH   1  19
ATOM     19  N   UNL     1       0.690   2.759  -4.644  0.00  0.00    -0.336 N 
ATOM     20  H   UNL     1       0.967   1.857  -5.209  0.00  0.00    +0.147 HD
BRANCH  19  21
ATOM     21  C   UNL     1       0.867   4.083  -5.246  0.00  0.00    +0.130 C 
BRANCH  21  22
ATOM     22  C   UNL     1       1.450   3.931  -6.652  0.00  0.00    +0.178 C 
BRANCH  22  24
ATOM     23  C   UNL     1       0.955   3.064  -8.832  0.00  0.00    +0.194 C 
ATOM     24  O   UNL     1       0.506   3.259  -7.489  0.00  0.00    -0.381 OA
ENDBRANCH  22  24
ENDBRANCH  21  22
ENDBRANCH  19  21
ENDBRANCH   1  19
BRANCH   4  25
ATOM     25  C   UNL     1      -2.410   3.106  -0.604  0.00  0.00    +0.175 C 
ATOM     26  O   UNL     1      -2.835   3.043   0.530  0.00  0.00    -0.291 OA
BRANCH  25  27
ATOM     27  C   UNL     1      -3.339   3.284  -1.727  0.00  0.00    +0.019 A 
ATOM     28  C   UNL     1      -4.558   3.946  -1.533  0.00  0.00    +0.015 A 
ATOM     29  C   UNL     1      -5.419   4.114  -2.587  0.00  0.00    +0.046 A 
ATOM     30  C   UNL     1      -5.090   3.619  -3.844  0.00  0.00    +0.127 A 
ATOM     31  C   UNL     1      -3.883   2.956  -4.040  0.00  0.00    +0.046 A 
ATOM     32  C   UNL     1      -3.012   2.787  -2.995  0.00  0.00    +0.015 A 
BRANCH  30  33
ATOM     33  O   UNL     1      -5.948   3.783  -4.881  0.00  0.00    -0.434 OA
BRANCH  33  34
ATOM     34  C   UNL     1      -7.169   4.473  -4.610  0.00  0.00    +0.541 C 
ATOM     35  F   UNL     1      -7.890   3.779  -3.632  0.00  0.00    -0.166 F 
ATOM     36  F   UNL     1      -6.884   5.763  -4.151  0.00  0.00    -0.166 F 
ENDBRANCH  33  34
ENDBRANCH  30  33
ENDBRANCH  25  27
ENDBRANCH   4  25
TORSDOF 10
