REMARK  Name = ZINC19718051
REMARK  8 active torsions:
REMARK  status: ('A' for Active; 'I' for Inactive)
REMARK    1  A    between atoms: C_1  and  C_2
REMARK    2  A    between atoms: C_2  and  N_3
REMARK    3  A    between atoms: C_5  and  C_8
REMARK    4  A    between atoms: C_10  and  N_15
REMARK    5  A    between atoms: N_15  and  C_16
REMARK    6  A    between atoms: C_16  and  C_17
REMARK    7  A    between atoms: C_17  and  C_19
REMARK    8  A    between atoms: C_17  and  N_26
REMARK                            x       y       z     vdW  Elec       q    Type
REMARK                         _______ _______ _______ _____ _____    ______ ____
ROOT
ATOM      1  N   UNL     1      -7.425  -3.684  -0.553  0.00  0.00    -0.330 N 
ATOM      2  H   UNL     1      -7.933  -4.255  -1.151  0.00  0.00    +0.147 HD
ENDROOT
BRANCH   1   5
ATOM      3  C   UNL     1      -3.915  -2.830   0.094  0.00  0.00    +0.081 A 
ATOM      4  C   UNL     1      -5.303  -2.833   0.217  0.00  0.00    +0.072 A 
ATOM      5  C   UNL     1      -6.042  -3.648  -0.638  0.00  0.00    +0.124 A 
ATOM      6  N   UNL     1      -5.402  -4.392  -1.536  0.00  0.00    -0.200 NA
ATOM      7  C   UNL     1      -4.081  -4.364  -1.625  0.00  0.00    +0.215 A 
ATOM      8  N   UNL     1      -3.345  -3.598  -0.835  0.00  0.00    -0.214 NA
ATOM      9  N   UNL     1      -3.452  -5.153  -2.573  0.00  0.00    -0.327 N 
ATOM     10  H   UNL     1      -3.979  -5.716  -3.162  0.00  0.00    +0.145 HD
ATOM     11  H   UNL     1      -2.485  -5.142  -2.649  0.00  0.00    +0.145 HD
BRANCH   3  14
ATOM     12  N   UNL     1      -1.362  -1.006   1.917  0.00  0.00    -0.271 N 
ATOM     13  C   UNL     1      -1.722  -1.881   0.959  0.00  0.00    +0.118 A 
ATOM     14  C   UNL     1      -3.084  -1.979   0.980  0.00  0.00    +0.038 A 
ATOM     15  C   UNL     1      -3.555  -1.124   1.996  0.00  0.00    +0.144 A 
ATOM     16  N   UNL     1      -2.523  -0.552   2.555  0.00  0.00    -0.179 NA
BRANCH  12  18
ATOM     17  C   UNL     1       0.122   0.920   2.176  0.00  0.00    +0.029 C 
ATOM     18  C   UNL     1       0.009  -0.604   2.242  0.00  0.00    +0.140 C 
ENDBRANCH  12  18
ENDBRANCH   3  14
ENDBRANCH   1   5
BRANCH   1  19
ATOM     19  C   UNL     1      -8.119  -2.862   0.441  0.00  0.00    +0.092 C 
BRANCH  19  20
ATOM     20  C   UNL     1      -9.622  -3.143   0.375  0.00  0.00    -0.018 C 
BRANCH  20  21
ATOM     21  C   UNL     1     -10.159  -2.698  -0.960  0.00  0.00    -0.024 A 
ATOM     22  C   UNL     1     -10.381  -3.625  -1.960  0.00  0.00    +0.005 A 
ATOM     23  C   UNL     1     -10.874  -3.217  -3.186  0.00  0.00    +0.000 A 
ATOM     24  C   UNL     1     -11.145  -1.880  -3.412  0.00  0.00    +0.003 A 
ATOM     25  C   UNL     1     -10.924  -0.951  -2.413  0.00  0.00    +0.038 A 
ATOM     26  C   UNL     1     -10.435  -1.360  -1.184  0.00  0.00    +0.125 A 
ATOM     27  F   UNL     1     -10.223  -0.453  -0.205  0.00  0.00    -0.205 F 
ENDBRANCH  20  21
BRANCH  20  28
ATOM     28  N   UNL     1      -9.857  -4.584   0.542  0.00  0.00    +0.385 N 
ATOM     29  C   UNL     1      -9.303  -5.047   1.839  0.00  0.00    -0.078 C 
ATOM     30  C   UNL     1     -10.091  -6.352   2.116  0.00  0.00    -0.020 C 
ATOM     31  C   UNL     1     -11.508  -6.016   1.599  0.00  0.00    -0.020 C 
ATOM     32  C   UNL     1     -11.309  -4.859   0.603  0.00  0.00    -0.078 C 
ATOM     33  H   UNL     1      -9.438  -5.096  -0.220  0.00  0.00    -0.081 HD
ENDBRANCH  20  28
ENDBRANCH  19  20
ENDBRANCH   1  19
TORSDOF 7
