REMARK  Name = ZINC39685766
REMARK  14 active torsions:
REMARK  status: ('A' for Active; 'I' for Inactive)
REMARK    1  A    between atoms: C_1  and  C_2
REMARK    2  A    between atoms: C_2  and  C_3
REMARK    3  A    between atoms: C_3  and  C_5
REMARK    4  A    between atoms: C_3  and  C_6
REMARK    5  A    between atoms: C_10  and  C_19
REMARK    6  A    between atoms: N_21  and  C_22
REMARK    7  A    between atoms: C_22  and  C_24
REMARK    8  A    between atoms: C_22  and  C_27
REMARK    9  A    between atoms: C_24  and  C_25
REMARK   10  A    between atoms: C_24  and  C_26
REMARK   11  A    between atoms: N_29  and  C_30
REMARK   12  A    between atoms: C_30  and  C_31
REMARK   13  A    between atoms: C_30  and  C_32
REMARK   14  A    between atoms: C_30  and  C_33
REMARK                            x       y       z     vdW  Elec       q    Type
REMARK                         _______ _______ _______ _____ _____    ______ ____
ROOT
ATOM      1  C   UNL     1      -1.293  -1.986   0.171  0.00  0.00    +0.218 C 
ATOM      2  O   UNL     1      -0.509  -2.824   0.562  0.00  0.00    -0.275 OA
ATOM      3  N   UNL     1      -2.614  -2.254   0.154  0.00  0.00    -0.300 N 
ATOM      4  C   UNL     1      -3.706  -1.406  -0.379  0.00  0.00    +0.121 C 
ATOM      5  C   UNL     1      -4.673  -2.398  -1.063  0.00  0.00    +0.100 C 
ATOM      6  C   UNL     1      -4.404  -3.746  -0.373  0.00  0.00    -0.004 C 
ATOM      7  C   UNL     1      -3.301  -3.467   0.658  0.00  0.00    +0.115 C 
ATOM      8  C   UNL     1      -3.917  -4.773  -1.391  0.00  0.00    -0.010 C 
ATOM      9  C   UNL     1      -3.712  -6.120  -0.692  0.00  0.00    -0.082 C 
ATOM     10  N   UNL     1      -4.977  -6.559  -0.090  0.00  0.00    +0.379 N 
ATOM     11  C   UNL     1      -5.390  -5.613   0.953  0.00  0.00    -0.082 C 
ATOM     12  C   UNL     1      -5.666  -4.245   0.324  0.00  0.00    -0.010 C 
ATOM     13  H   UNL     1      -5.689  -6.604  -0.803  0.00  0.00    -0.086 HD
ATOM     14  H   UNL     1      -4.854  -7.474   0.317  0.00  0.00    -0.086 HD
ENDROOT
BRANCH   5  15
ATOM     15  C   UNL     1      -4.373  -2.491  -2.537  0.00  0.00    +0.219 C 
ATOM     16  O   UNL     1      -3.259  -2.242  -2.946  0.00  0.00    -0.275 OA
ATOM     17  N   UNL     1      -5.343  -2.852  -3.400  0.00  0.00    -0.303 N 
ATOM     18  H   UNL     1      -6.237  -3.041  -3.074  0.00  0.00    +0.149 HD
BRANCH  17  19
ATOM     19  C   UNL     1      -5.047  -2.958  -4.831  0.00  0.00    +0.161 C 
BRANCH  19  20
ATOM     20  C   UNL     1      -6.265  -2.565  -5.626  0.00  0.00    +0.234 C 
ATOM     21  O   UNL     1      -7.360  -2.576  -5.104  0.00  0.00    -0.274 OA
ATOM     22  N   UNL     1      -6.138  -2.200  -6.918  0.00  0.00    -0.309 N 
ATOM     23  H   UNL     1      -5.273  -2.250  -7.353  0.00  0.00    +0.149 HD
BRANCH  22  24
ATOM     24  C   UNL     1      -7.307  -1.728  -7.664  0.00  0.00    +0.026 C 
ATOM     25  C   UNL     1      -7.879  -0.483  -6.983  0.00  0.00    +0.031 C 
ATOM     26  C   UNL     1      -6.893  -1.382  -9.095  0.00  0.00    +0.031 C 
ATOM     27  C   UNL     1      -8.371  -2.828  -7.693  0.00  0.00    +0.031 C 
ENDBRANCH  22  24
ENDBRANCH  19  20
BRANCH  19  28
ATOM     28  C   UNL     1      -4.662  -4.400  -5.167  0.00  0.00    +0.012 C 
ATOM     29  C   UNL     1      -3.330  -4.742  -4.497  0.00  0.00    +0.009 C 
ATOM     30  C   UNL     1      -5.748  -5.350  -4.656  0.00  0.00    +0.009 C 
ENDBRANCH  19  28
ENDBRANCH  17  19
ENDBRANCH   5  15
BRANCH   1  31
ATOM     31  C   UNL     1      -0.791  -0.644  -0.296  0.00  0.00    +0.072 C 
ATOM     32  C   UNL     1       0.581  -0.813  -0.952  0.00  0.00    +0.017 C 
BRANCH  31  34
ATOM     33  C   UNL     1      -0.280   1.697   0.413  0.00  0.00    +0.004 C 
ATOM     34  C   UNL     1      -0.670   0.301   0.902  0.00  0.00    +0.009 C 
ENDBRANCH  31  34
ENDBRANCH   1  31
TORSDOF 7
