REMARK  Name = ZINC43002632
REMARK  6 active torsions:
REMARK  status: ('A' for Active; 'I' for Inactive)
REMARK    1  A    between atoms: C_1  and  C_2
REMARK    2  A    between atoms: C_2  and  C_4
REMARK    3  A    between atoms: C_2  and  O_26
REMARK    4  A    between atoms: C_4  and  N_5
REMARK    5  A    between atoms: N_8  and  C_9
REMARK    6  A    between atoms: C_9  and  C_10
REMARK                            x       y       z     vdW  Elec       q    Type
REMARK                         _______ _______ _______ _____ _____    ______ ____
ROOT
ATOM      1  C   UNL     1       1.918  -6.207   3.072  0.00  0.00    -0.014 A 
ATOM      2  C   UNL     1       0.814  -6.908   3.539  0.00  0.00    +0.010 A 
ATOM      3  C   UNL     1       0.742  -8.267   3.291  0.00  0.00    +0.042 A 
ATOM      4  C   UNL     1       1.772  -8.882   2.587  0.00  0.00    +0.099 A 
ATOM      5  N   UNL     1       2.808  -8.178   2.158  0.00  0.00    -0.349 N 
ATOM      6  C   UNL     1       2.901  -6.880   2.374  0.00  0.00    +0.089 A 
ATOM      7  N   UNL     1       1.713 -10.246   2.331  0.00  0.00    -0.312 N 
ATOM      8  C   UNL     1       0.646 -11.087   2.901  0.00  0.00    +0.111 C 
ATOM      9  C   UNL     1      -0.190 -11.633   1.745  0.00  0.00    +0.054 C 
ATOM     10  C   UNL     1       0.694 -12.193   0.662  0.00  0.00    -0.041 A 
ATOM     11  C   UNL     1       0.126 -13.090  -0.234  0.00  0.00    +0.004 A 
ATOM     12  C   UNL     1       0.877 -13.633  -1.256  0.00  0.00    +0.000 A 
ATOM     13  C   UNL     1       2.207 -13.282  -1.392  0.00  0.00    +0.000 A 
ATOM     14  C   UNL     1       2.775 -12.394  -0.502  0.00  0.00    +0.005 A 
ATOM     15  C   UNL     1       2.021 -11.851   0.530  0.00  0.00    -0.027 A 
ATOM     16  C   UNL     1       2.707 -10.907   1.478  0.00  0.00    +0.141 C 
ATOM     17  H   UNL     1       3.515  -8.627   1.669  0.00  0.00    +0.167 HD
ENDROOT
BRANCH   1  18
ATOM     18  C   UNL     1       2.038  -4.725   3.318  0.00  0.00    +0.142 C 
BRANCH  18  22
ATOM     19  N   UNL     1       0.819  -1.973   1.206  0.00  0.00    -0.297 N 
ATOM     20  C   UNL     1       1.397  -2.646   2.221  0.00  0.00    +0.300 C 
ATOM     21  O   UNL     1       1.907  -2.037   3.142  0.00  0.00    -0.253 OA
ATOM     22  N   UNL     1       1.410  -3.994   2.215  0.00  0.00    -0.295 N 
ATOM     23  H   UNL     1       0.413  -2.459   0.471  0.00  0.00    +0.150 HD
ATOM     24  H   UNL     1       1.004  -4.479   1.480  0.00  0.00    +0.151 HD
BRANCH  19  25
ATOM     25  C   UNL     1       0.805  -0.508   1.212  0.00  0.00    +0.136 C 
BRANCH  25  27
ATOM     26  C   UNL     1       0.079   1.530  -0.037  0.00  0.00    +0.039 C 
ATOM     27  C   UNL     1       0.094   0.000  -0.043  0.00  0.00    +0.129 C 
BRANCH  27  28
ATOM     28  O   UNL     1       0.786  -0.464  -1.204  0.00  0.00    -0.391 OA
ATOM     29  H   UNL     1       1.706  -0.170  -1.258  0.00  0.00    +0.210 HD
ENDBRANCH  27  28
ENDBRANCH  25  27
ENDBRANCH  19  25
ENDBRANCH  18  22
ENDBRANCH   1  18
TORSDOF 5
