REMARK  Name = ZINC63761317
REMARK  5 active torsions:
REMARK  status: ('A' for Active; 'I' for Inactive)
REMARK    1  A    between atoms: C_1  and  C_2
REMARK    2  A    between atoms: C_5  and  S_8
REMARK    3  A    between atoms: S_8  and  N_11
REMARK    4  A    between atoms: C_13  and  N_23
REMARK    5  A    between atoms: N_23  and  C_24
REMARK                            x       y       z     vdW  Elec       q    Type
REMARK                         _______ _______ _______ _____ _____    ______ ____
ROOT
ATOM      1  N   UNL     1       1.500  -5.145  -0.236  0.00  0.00    -0.110 NA
ATOM      2  C   UNL     1       1.912  -6.374  -0.142  0.00  0.00    +0.192 C 
ATOM      3  C   UNL     1       3.389  -6.683  -0.043  0.00  0.00    +0.237 C 
ATOM      4  N   UNL     1       3.791  -8.095   0.060  0.00  0.00    -0.359 N 
ATOM      5  C   UNL     1       2.860  -9.008   0.062  0.00  0.00    +0.063 A 
ATOM      6  C   UNL     1       3.208 -10.433   0.164  0.00  0.00    +0.027 A 
ATOM      7  C   UNL     1       2.215 -11.350   0.163  0.00  0.00    +0.002 A 
ATOM      8  C   UNL     1       0.865 -10.976   0.067  0.00  0.00    +0.002 A 
ATOM      9  C   UNL     1       0.468  -9.688  -0.029  0.00  0.00    +0.030 A 
ATOM     10  C   UNL     1       1.425  -8.642  -0.037  0.00  0.00    +0.089 A 
ATOM     11  N   UNL     1       1.032  -7.388  -0.127  0.00  0.00    -0.226 NA
ATOM     12  H   UNL     1       4.726  -8.341   0.126  0.00  0.00    +0.162 HD
ENDROOT
BRANCH   1  13
ATOM     13  S   UNL     1      -0.120  -4.820  -0.337  0.00  0.00    +0.100 S 
ATOM     14  O   UNL     1      -0.690  -5.206   0.907  0.00  0.00    -0.146 OA
ATOM     15  O   UNL     1      -0.565  -5.353  -1.577  0.00  0.00    -0.146 OA
BRANCH  13  20
ATOM     16  C   UNL     1      -0.722   1.171  -0.721  0.00  0.00    +0.044 C 
ATOM     17  C   UNL     1      -0.572  -0.325  -0.625  0.00  0.00    -0.050 A 
ATOM     18  C   UNL     1      -0.442  -1.082  -1.774  0.00  0.00    +0.005 A 
ATOM     19  C   UNL     1      -0.304  -2.454  -1.686  0.00  0.00    +0.029 A 
ATOM     20  C   UNL     1      -0.295  -3.070  -0.449  0.00  0.00    +0.113 A 
ATOM     21  C   UNL     1      -0.424  -2.313   0.701  0.00  0.00    +0.029 A 
ATOM     22  C   UNL     1      -0.558  -0.940   0.613  0.00  0.00    +0.005 A 
ENDBRANCH  13  20
ENDBRANCH   1  13
BRANCH   3  23
ATOM     23  N   UNL     1       4.044  -6.119  -1.226  0.00  0.00    -0.316 N 
ATOM     24  H   UNL     1       3.639  -6.224  -2.101  0.00  0.00    +0.148 HD
BRANCH  23  25
ATOM     25  C   UNL     1       5.253  -5.428  -1.093  0.00  0.00    +0.065 A 
ATOM     26  C   UNL     1       5.899  -5.385   0.135  0.00  0.00    +0.027 A 
ATOM     27  C   UNL     1       7.093  -4.702   0.264  0.00  0.00    +0.017 A 
ATOM     28  C   UNL     1       7.647  -4.061  -0.830  0.00  0.00    +0.021 A 
ATOM     29  C   UNL     1       7.007  -4.101  -2.056  0.00  0.00    +0.055 A 
ATOM     30  C   UNL     1       5.815  -4.788  -2.193  0.00  0.00    +0.145 A 
ATOM     31  F   UNL     1       5.193  -4.832  -3.391  0.00  0.00    -0.204 F 
ATOM     32 BR   UNL     1       9.281  -3.128  -0.648  0.00  0.00    -0.050 Br
ENDBRANCH  23  25
ENDBRANCH   3  23
TORSDOF 4
