REMARK  Name = ZINC08299634
REMARK  6 active torsions:
REMARK  status: ('A' for Active; 'I' for Inactive)
REMARK    1  A    between atoms: C_3  and  N_8
REMARK    2  A    between atoms: C_5  and  O_7
REMARK    3  A    between atoms: C_9  and  C_11
REMARK    4  A    between atoms: C_19  and  C_21
REMARK    5  A    between atoms: C_21  and  N_22
REMARK    6  A    between atoms: C_24  and  C_27
REMARK                            x       y       z     vdW  Elec       q    Type
REMARK                         _______ _______ _______ _____ _____    ______ ____
ROOT
ATOM      1  C   UNL     1       2.448   1.215  -0.078  0.00  0.00    +0.062 C 
ATOM      2  C   UNL     1       2.638   0.119  -1.131  0.00  0.00    -0.065 C 
ATOM      3  C   UNL     1       3.413   1.739  -2.757  0.00  0.00    -0.078 C 
ATOM      4  C   UNL     1       3.245   2.884  -1.747  0.00  0.00    -0.015 C 
ATOM      5  C   UNL     1       3.468   2.332  -0.333  0.00  0.00    -0.004 C 
ATOM      6  C   UNL     1       4.878   1.733  -0.262  0.00  0.00    -0.010 C 
ATOM      7  C   UNL     1       5.001   0.624  -1.309  0.00  0.00    -0.046 C 
ATOM      8  N   UNL     1       3.734   0.477  -2.057  0.00  0.00    +0.383 N 
ATOM      9  H   UNL     1       3.841  -0.272  -2.751  0.00  0.00    -0.081 HD
ENDROOT
BRANCH   1  11
ATOM     10  N   UNL     1      -0.011   0.966   0.007  0.00  0.00    -0.285 N 
ATOM     11  C   UNL     1       1.052   1.773  -0.177  0.00  0.00    +0.219 C 
ATOM     12  O   UNL     1       0.885   2.950  -0.421  0.00  0.00    -0.275 OA
ATOM     13  H   UNL     1       0.119   0.012   0.126  0.00  0.00    +0.155 HD
BRANCH  10  16
ATOM     14  C   UNL     1      -3.645   1.293  -0.460  0.00  0.00    +0.005 A 
ATOM     15  C   UNL     1      -2.368   0.765  -0.478  0.00  0.00    +0.023 A 
ATOM     16  C   UNL     1      -1.303   1.503   0.022  0.00  0.00    +0.037 A 
ATOM     17  C   UNL     1      -1.521   2.775   0.531  0.00  0.00    +0.068 A 
ATOM     18  C   UNL     1      -2.802   3.304   0.543  0.00  0.00    +0.119 A 
ATOM     19  C   UNL     1      -3.864   2.560   0.046  0.00  0.00    +0.045 A 
BRANCH  18  20
ATOM     20  O   UNL     1      -3.019   4.550   1.041  0.00  0.00    -0.507 OA
ATOM     21  H   UNL     1      -2.948   5.254   0.382  0.00  0.00    +0.292 HD
ENDBRANCH  18  20
ENDBRANCH  10  16
ENDBRANCH   1  11
BRANCH   7  22
ATOM     22  C   UNL     1       6.120   0.971  -2.293  0.00  0.00    +0.130 C 
BRANCH  22  23
ATOM     23  N   UNL     1       6.316  -0.142  -3.224  0.00  0.00    -0.252 N 
ATOM     24  C   UNL     1       6.275  -0.081  -4.570  0.00  0.00    +0.143 A 
ATOM     25  C   UNL     1       6.512  -1.345  -5.031  0.00  0.00    +0.167 A 
ATOM     26  N   UNL     1       6.685  -2.158  -3.975  0.00  0.00    -0.125 NA
ATOM     27  N   UNL     1       6.576  -1.478  -2.887  0.00  0.00    -0.065 NA
BRANCH  25  28
ATOM     28  C   UNL     1       6.563  -1.750  -6.449  0.00  0.00    +0.263 C 
ATOM     29  O   UNL     1       6.390  -0.924  -7.324  0.00  0.00    -0.269 OA
ATOM     30  N   UNL     1       6.802  -3.036  -6.774  0.00  0.00    -0.324 N 
ATOM     31  H   UNL     1       6.940  -3.696  -6.075  0.00  0.00    +0.145 HD
ATOM     32  H   UNL     1       6.836  -3.303  -7.706  0.00  0.00    +0.145 HD
ENDBRANCH  25  28
ENDBRANCH  22  23
ENDBRANCH   7  22
TORSDOF 6
