REMARK  Name = ZINC63663795
REMARK  10 active torsions:
REMARK  status: ('A' for Active; 'I' for Inactive)
REMARK    1  A    between atoms: C_1  and  C_2
REMARK    2  A    between atoms: C_2  and  C_4
REMARK    3  A    between atoms: C_2  and  N_18
REMARK    4  A    between atoms: C_4  and  C_6
REMARK    5  A    between atoms: C_4  and  N_11
REMARK    6  A    between atoms: N_14  and  C_17
REMARK    7  A    between atoms: C_19  and  C_21
REMARK    8  A    between atoms: N_23  and  C_24
REMARK    9  A    between atoms: C_24  and  C_25
REMARK   10  A    between atoms: C_25  and  C_26
REMARK                            x       y       z     vdW  Elec       q    Type
REMARK                         _______ _______ _______ _____ _____    ______ ____
ROOT
ATOM      1  N   UNL     1       0.711  -0.489   1.189  0.00  0.00    -0.303 N 
ATOM      2  C   UNL     1       2.054  -0.600   1.174  0.00  0.00    +0.299 C 
ATOM      3  O   UNL     1       2.676  -0.297   0.177  0.00  0.00    -0.265 OA
ATOM      4  H   UNL     1       0.213  -0.731   1.986  0.00  0.00    +0.149 HD
ENDROOT
BRANCH   2   5
ATOM      5  C   UNL     1       2.777  -1.095   2.385  0.00  0.00    +0.299 C 
ATOM      6  O   UNL     1       2.154  -1.397   3.381  0.00  0.00    -0.265 OA
ATOM      7  N   UNL     1       4.120  -1.205   2.369  0.00  0.00    -0.307 N 
ATOM      8  H   UNL     1       4.617  -0.964   1.573  0.00  0.00    +0.149 HD
BRANCH   7   9
ATOM      9  C   UNL     1       4.828  -1.691   3.556  0.00  0.00    +0.109 C 
BRANCH   9  10
ATOM     10  C   UNL     1       6.332  -1.720   3.276  0.00  0.00    +0.052 C 
BRANCH  10  11
ATOM     11  C   UNL     1       7.061  -2.219   4.497  0.00  0.00    -0.040 C 
ATOM     12  C   UNL     1       7.454  -3.489   4.747  0.00  0.00    -0.001 A 
ATOM     13  C   UNL     1       7.324  -4.738   3.986  0.00  0.00    +0.010 A 
ATOM     14  C   UNL     1       7.829  -5.879   4.508  0.00  0.00    +0.001 A 
ATOM     15  C   UNL     1       8.471  -5.899   5.754  0.00  0.00    +0.002 A 
ATOM     16  C   UNL     1       8.628  -4.793   6.511  0.00  0.00    +0.026 A 
ATOM     17  C   UNL     1       8.136  -3.537   6.059  0.00  0.00    +0.043 A 
ATOM     18  N   UNL     1       8.164  -2.343   6.600  0.00  0.00    -0.380 N 
ATOM     19  C   UNL     1       7.507  -1.401   5.688  0.00  0.00    +0.144 C 
ATOM     20  H   UNL     1       8.557  -2.119   7.458  0.00  0.00    +0.160 HD
ENDBRANCH  10  11
ENDBRANCH   9  10
ENDBRANCH   7   9
ENDBRANCH   2   5
BRANCH   1  22
ATOM     21  C   UNL     1      -0.019   1.526   0.010  0.00  0.00    +0.030 C 
ATOM     22  C   UNL     1       0.002  -0.004   0.002  0.00  0.00    +0.092 C 
BRANCH  22  23
ATOM     23  C   UNL     1      -1.433  -0.534   0.013  0.00  0.00    +0.113 C 
BRANCH  23  24
ATOM     24  N   UNL     1      -2.178   0.048  -1.111  0.00  0.00    -0.297 NA
ATOM     25  C   UNL     1      -1.507  -0.231  -2.389  0.00  0.00    +0.066 C 
ATOM     26  C   UNL     1      -2.281   0.441  -3.526  0.00  0.00    -0.064 C 
ATOM     27  N   UNL     1      -3.656  -0.073  -3.553  0.00  0.00    +0.379 N 
ATOM     28  C   UNL     1      -4.321   0.235  -2.280  0.00  0.00    -0.064 C 
ATOM     29  C   UNL     1      -3.565  -0.439  -1.133  0.00  0.00    +0.066 C 
ATOM     30  C   UNL     1      -4.393   0.559  -4.655  0.00  0.00    -0.096 C 
ATOM     31  H   UNL     1      -3.639  -1.073  -3.690  0.00  0.00    -0.082 HD
ENDBRANCH  23  24
BRANCH  23  32
ATOM     32  C   UNL     1      -2.100  -0.151   1.309  0.00  0.00    +0.009 A 
ATOM     33  C   UNL     1      -2.297  -0.900   2.421  0.00  0.00    +0.013 A 
ATOM     34  C   UNL     1      -2.940  -0.334   3.506  0.00  0.00    +0.008 A 
ATOM     35  C   UNL     1      -3.354   0.954   3.425  0.00  0.00    +0.045 A 
ATOM     36  S   UNL     1      -2.829   1.409   1.781  0.00  0.00    -0.100 S 
ENDBRANCH  23  32
ENDBRANCH  22  23
ENDBRANCH   1  22
TORSDOF 8
