REMARK  Name = ZINC42952742
REMARK  8 active torsions:
REMARK  status: ('A' for Active; 'I' for Inactive)
REMARK    1  A    between atoms: C_1  and  C_2
REMARK    2  A    between atoms: C_2  and  C_3
REMARK    3  A    between atoms: C_3  and  C_5
REMARK    4  A    between atoms: C_3  and  N_22
REMARK    5  A    between atoms: C_5  and  C_7
REMARK    6  A    between atoms: C_5  and  N_14
REMARK    7  A    between atoms: C_17  and  C_20
REMARK    8  A    between atoms: C_20  and  O_21
REMARK                            x       y       z     vdW  Elec       q    Type
REMARK                         _______ _______ _______ _____ _____    ______ ____
ROOT
ATOM      1  C   UNL     1       0.980  -2.022   1.235  0.00  0.00    +0.072 C 
ENDROOT
BRANCH   1   2
ATOM      2  C   UNL     1       1.631  -2.484   2.513  0.00  0.00    -0.032 A 
ATOM      3  C   UNL     1       2.997  -2.349   2.680  0.00  0.00    +0.006 A 
ATOM      4  C   UNL     1       3.595  -2.772   3.852  0.00  0.00    +0.015 A 
ATOM      5  C   UNL     1       2.827  -3.330   4.858  0.00  0.00    +0.018 A 
ATOM      6  C   UNL     1       1.461  -3.465   4.690  0.00  0.00    +0.015 A 
ATOM      7  C   UNL     1       0.863  -3.037   3.520  0.00  0.00    +0.006 A 
ATOM      8 BR   UNL     1       3.645  -3.909   6.462  0.00  0.00    -0.050 Br
ENDBRANCH   1   2
BRANCH   1   9
ATOM      9  N   UNL     1       1.833  -2.378   0.093  0.00  0.00    -0.297 NA
ATOM     10  C   UNL     1       1.311  -1.806  -1.154  0.00  0.00    +0.085 C 
ATOM     11  C   UNL     1       2.298  -2.072  -2.292  0.00  0.00    +0.021 C 
ATOM     12  C   UNL     1       2.495  -3.583  -2.446  0.00  0.00    +0.017 C 
ATOM     13  C   UNL     1       2.994  -4.163  -1.119  0.00  0.00    +0.021 C 
ATOM     14  C   UNL     1       1.986  -3.835  -0.015  0.00  0.00    +0.085 C 
BRANCH  12  15
ATOM     15  C   UNL     1       3.527  -3.855  -3.543  0.00  0.00    +0.159 C 
BRANCH  15  16
ATOM     16  O   UNL     1       3.625  -5.263  -3.766  0.00  0.00    -0.395 OA
ATOM     17  H   UNL     1       4.263  -5.509  -4.450  0.00  0.00    +0.209 HD
ENDBRANCH  15  16
ENDBRANCH  12  15
ENDBRANCH   1   9
BRANCH   1  18
ATOM     18  C   UNL     1       0.792  -0.504   1.277  0.00  0.00    -0.053 C 
BRANCH  18  19
ATOM     19  N   UNL     1       2.102   0.147   1.413  0.00  0.00    +0.381 N 
ATOM     20  H   UNL     1       2.544  -0.161   2.265  0.00  0.00    -0.090 HD
ATOM     21  H   UNL     1       2.683  -0.098   0.625  0.00  0.00    -0.090 HD
ATOM     22  H   UNL     1       1.978   1.148   1.440  0.00  0.00    -0.090 HD
ENDBRANCH  18  19
BRANCH  18  24
ATOM     23  C   UNL     1      -0.402   1.364   2.428  0.00  0.00    +0.002 C 
ATOM     24  C   UNL     1      -0.088  -0.133   2.472  0.00  0.00    -0.018 C 
ENDBRANCH  18  24
ENDBRANCH   1  18
TORSDOF 7
