REMARK  Name = ZINC13564788
REMARK  6 active torsions:
REMARK  status: ('A' for Active; 'I' for Inactive)
REMARK    1  A    between atoms: C_1  and  C_2
REMARK    2  A    between atoms: C_2  and  C_3
REMARK    3  A    between atoms: C_2  and  C_4
REMARK    4  A    between atoms: C_2  and  N_5
REMARK    5  A    between atoms: C_6  and  C_8
REMARK    6  A    between atoms: C_8  and  N_51
REMARK                            x       y       z     vdW  Elec       q    Type
REMARK                         _______ _______ _______ _____ _____    ______ ____
ROOT
ATOM      1  C   UNL     1      -2.121   1.220   1.168  0.00  0.00    -0.072 C 
ATOM      2  C   UNL     1      -2.785   2.105   0.113  0.00  0.00    +0.037 C 
ATOM      3  C   UNL     1      -2.008   2.042  -1.176  0.00  0.00    +0.050 A 
ATOM      4  C   UNL     1      -0.730   1.579  -1.218  0.00  0.00    +0.022 A 
ATOM      5  C   UNL     1      -0.053   1.560  -2.454  0.00  0.00    +0.254 A 
ATOM      6  O   UNL     1       1.097   1.157  -2.525  0.00  0.00    -0.268 OA
ATOM      7  N   UNL     1      -0.695   1.994  -3.558  0.00  0.00    -0.295 N 
ATOM      8  H   UNL     1      -0.246   1.989  -4.418  0.00  0.00    +0.172 HD
ATOM      9  C   UNL     1      -1.976   2.442  -3.458  0.00  0.00    +0.198 A 
ATOM     10  N   UNL     1      -2.600   2.460  -2.299  0.00  0.00    -0.221 NA
ATOM     11  N   UNL     1      -2.627   2.878  -4.580  0.00  0.00    -0.301 N 
ATOM     12  C   UNL     1      -2.881   1.756  -5.519  0.00  0.00    +0.108 C 
ATOM     13  C   UNL     1      -4.029   2.293  -6.410  0.00  0.00    +0.020 C 
ATOM     14  C   UNL     1      -4.898   3.091  -5.412  0.00  0.00    +0.020 C 
ATOM     15  C   UNL     1      -3.957   3.430  -4.241  0.00  0.00    +0.108 C 
ATOM     16  C   UNL     1      -0.013   1.086   0.008  0.00  0.00    -0.035 C 
ATOM     17  N   UNL     1      -0.690   1.578   1.220  0.00  0.00    +0.389 N 
ATOM     18  H   UNL     1      -0.601   2.600   1.263  0.00  0.00    -0.081 HD
ENDROOT
BRANCH  17  19
ATOM     19  C   UNL     1      -0.063   0.989   2.425  0.00  0.00    +0.019 C 
BRANCH  19  21
ATOM     20  N   UNL     1       2.107   1.147   3.601  0.00  0.00    -0.312 N 
ATOM     21  C   UNL     1       1.337   1.530   2.564  0.00  0.00    +0.197 C 
ATOM     22  O   UNL     1       1.770   2.309   1.742  0.00  0.00    -0.278 OA
ATOM     23  H   UNL     1       1.760   0.524   4.259  0.00  0.00    +0.149 HD
BRANCH  20  25
ATOM     24  C   UNL     1       3.416   3.197   3.856  0.00  0.00    +0.031 C 
ATOM     25  C   UNL     1       3.468   1.673   3.736  0.00  0.00    +0.026 C 
ATOM     26  C   UNL     1       4.120   1.084   4.989  0.00  0.00    +0.031 C 
ATOM     27  C   UNL     1       4.288   1.286   2.504  0.00  0.00    +0.031 C 
ENDBRANCH  20  25
ENDBRANCH  19  21
ENDBRANCH  17  19
TORSDOF 3
