REMARK  Name = ZINC11616142
REMARK  15 active torsions:
REMARK  status: ('A' for Active; 'I' for Inactive)
REMARK    1  A    between atoms: C_1  and  N_2
REMARK    2  A    between atoms: N_2  and  C_3
REMARK    3  A    between atoms: C_3  and  C_4
REMARK    4  A    between atoms: C_7  and  C_9
REMARK    5  A    between atoms: C_9  and  S_10
REMARK    6  A    between atoms: S_10  and  C_11
REMARK    7  A    between atoms: C_11  and  C_12
REMARK    8  A    between atoms: C_12  and  N_13
REMARK    9  A    between atoms: N_15  and  S_16
REMARK   10  A    between atoms: S_16  and  C_19
REMARK   11  A    between atoms: N_20  and  C_21
REMARK   12  A    between atoms: C_21  and  C_22
REMARK   13  A    between atoms: C_22  and  C_24
REMARK   14  A    between atoms: C_22  and  O_31
REMARK   15  A    between atoms: C_27  and  O_30
REMARK                            x       y       z     vdW  Elec       q    Type
REMARK                         _______ _______ _______ _____ _____    ______ ____
ROOT
ATOM      1  N   UNL     1       1.413   3.792   0.158  0.00  0.00    -0.354 N 
ATOM      2  C   UNL     1       2.577   4.498  -0.029  0.00  0.00    +0.217 C 
ATOM      3  N   UNL     1       3.701   3.865  -0.214  0.00  0.00    -0.098 NA
ATOM      4  N   UNL     1       2.557   5.873  -0.020  0.00  0.00    -0.352 N 
ATOM      5  H   UNL     1       1.441   2.695   0.235  0.00  0.00    +0.163 HD
ATOM      6  H   UNL     1       1.608   6.408   0.137  0.00  0.00    +0.163 HD
ENDROOT
BRANCH   3   7
ATOM      7  S   UNL     1       3.709   2.214  -0.348  0.00  0.00    +0.070 S 
ATOM      8  O   UNL     1       3.287   1.746   0.925  0.00  0.00    -0.152 OA
ATOM      9  O   UNL     1       2.940   1.941  -1.512  0.00  0.00    -0.152 OA
ATOM     10  C   UNL     1       5.447   1.777  -0.630  0.00  0.00    +0.223 C 
ENDBRANCH   3   7
BRANCH   1  11
ATOM     11  C   UNL     1       0.134   4.500   0.253  0.00  0.00    +0.126 C 
BRANCH  11  12
ATOM     12  C   UNL     1      -1.007   3.484   0.333  0.00  0.00    +0.090 C 
BRANCH  12  13
ATOM     13  S   UNL     1      -2.591   4.361   0.451  0.00  0.00    -0.151 S 
BRANCH  13  14
ATOM     14  C   UNL     1      -3.823   3.033   0.537  0.00  0.00    +0.143 C 
BRANCH  14  18
ATOM     15  C   UNL     1      -7.048   4.456   1.490  0.00  0.00    +0.088 A 
ATOM     16  C   UNL     1      -7.191   4.479   0.152  0.00  0.00    +0.043 A 
ATOM     17  C   UNL     1      -5.999   3.953  -0.396  0.00  0.00    +0.046 A 
ATOM     18  C   UNL     1      -5.202   3.632   0.639  0.00  0.00    +0.115 A 
ATOM     19  O   UNL     1      -5.841   3.942   1.779  0.00  0.00    -0.466 OA
BRANCH  15  20
ATOM     20  C   UNL     1      -8.069   4.926   2.494  0.00  0.00    -0.007 C 
BRANCH  20  22
ATOM     21  C   UNL     1      -9.960   4.231   3.836  0.00  0.00    -0.100 C 
ATOM     22  N   UNL     1      -8.950   3.809   2.857  0.00  0.00    +0.382 N 
ATOM     23  H   UNL     1      -8.338   3.002   3.286  0.00  0.00    -0.086 HD
ATOM     24  H   UNL     1      -9.450   3.445   1.947  0.00  0.00    -0.086 HD
ENDBRANCH  20  22
ENDBRANCH  15  20
ENDBRANCH  14  18
ENDBRANCH  13  14
ENDBRANCH  12  13
ENDBRANCH  11  12
ENDBRANCH   1  11
BRANCH   4  25
ATOM     25  C   UNL     1       3.798   6.626  -0.218  0.00  0.00    +0.151 C 
BRANCH  25  26
ATOM     26  C   UNL     1       3.499   8.125  -0.164  0.00  0.00    +0.164 C 
BRANCH  26  27
ATOM     27  C   UNL     1       4.776   8.899  -0.368  0.00  0.00    -0.017 A 
ATOM     28  C   UNL     1       5.225   9.165  -1.649  0.00  0.00    +0.010 A 
ATOM     29  C   UNL     1       6.392   9.879  -1.839  0.00  0.00    +0.046 A 
ATOM     30  C   UNL     1       7.120  10.320  -0.743  0.00  0.00    +0.117 A 
ATOM     31  C   UNL     1       6.670  10.048   0.541  0.00  0.00    +0.046 A 
ATOM     32  C   UNL     1       5.499   9.338   0.725  0.00  0.00    +0.010 A 
BRANCH  30  33
ATOM     33  O   UNL     1       8.271  11.018  -0.928  0.00  0.00    -0.507 OA
ATOM     34  H   UNL     1       8.848  11.367  -0.059  0.00  0.00    +0.292 HD
ENDBRANCH  30  33
ENDBRANCH  26  27
BRANCH  26  35
ATOM     35  O   UNL     1       2.567   8.463  -1.193  0.00  0.00    -0.385 OA
ATOM     36  H   UNL     1       2.231   9.504  -1.310  0.00  0.00    +0.210 HD
ENDBRANCH  26  35
ENDBRANCH  25  26
ENDBRANCH   4  25
TORSDOF 13
