REMARK  Name = ZINC09410508
REMARK  10 active torsions:
REMARK  status: ('A' for Active; 'I' for Inactive)
REMARK    1  A    between atoms: C_1  and  C_2
REMARK    2  A    between atoms: C_2  and  O_3
REMARK    3  A    between atoms: O_3  and  C_4
REMARK    4  A    between atoms: C_4  and  C_6
REMARK    5  A    between atoms: C_10  and  N_11
REMARK    6  A    between atoms: N_14  and  N_15
REMARK    7  A    between atoms: C_16  and  C_18
REMARK    8  A    between atoms: C_21  and  O_24
REMARK    9  A    between atoms: C_27  and  C_29
REMARK   10  A    between atoms: C_27  and  C_30
REMARK                            x       y       z     vdW  Elec       q    Type
REMARK                         _______ _______ _______ _____ _____    ______ ____
ROOT
ATOM      1  N   UNL     1       4.783  -4.176  -0.065  0.00  0.00    -0.262 N 
ATOM      2  C   UNL     1       3.627  -4.870  -0.058  0.00  0.00    +0.321 C 
ATOM      3  O   UNL     1       3.647  -6.085  -0.064  0.00  0.00    -0.251 OA
ATOM      4  N   UNL     1       2.449  -4.215  -0.043  0.00  0.00    -0.218 N 
ATOM      5  H   UNL     1       4.766  -3.206  -0.060  0.00  0.00    +0.157 HD
ATOM      6  H   UNL     1       1.617  -4.714  -0.037  0.00  0.00    +0.174 HD
ENDROOT
BRANCH   1  11
ATOM      7  C   UNL     1       7.278  -4.316  -0.096  0.00  0.00    +0.091 A 
ATOM      8  C   UNL     1       8.388  -5.249  -0.106  0.00  0.00    -0.016 A 
ATOM      9  C   UNL     1       8.044  -6.557  -0.111  0.00  0.00    +0.021 A 
ATOM     10  S   UNL     1       6.276  -6.559  -0.092  0.00  0.00    -0.075 S 
ATOM     11  C   UNL     1       5.994  -4.849  -0.081  0.00  0.00    +0.088 A 
ATOM     12  C   UNL     1       8.989  -7.718  -0.128  0.00  0.00    +0.203 C 
ATOM     13  O   UNL     1      10.294  -7.219  -0.462  0.00  0.00    -0.368 OA
ATOM     14  C   UNL     1      10.683  -6.075   0.304  0.00  0.00    +0.068 C 
ATOM     15  C   UNL     1       9.860  -4.853  -0.118  0.00  0.00    +0.071 C 
ATOM     16  C   UNL     1      12.168  -5.791   0.072  0.00  0.00    +0.041 C 
ATOM     17  C   UNL     1      10.446  -6.359   1.788  0.00  0.00    +0.041 C 
BRANCH   7  18
ATOM     18  C   UNL     1       7.501  -2.869  -0.098  0.00  0.00    +0.342 C 
ATOM     19  O   UNL     1       7.607  -2.268   0.954  0.00  0.00    -0.245 OA
BRANCH  18  20
ATOM     20  O   UNL     1       7.589  -2.202  -1.267  0.00  0.00    -0.461 OA
BRANCH  20  22
ATOM     21  C   UNL     1       7.881  -0.190  -2.608  0.00  0.00    +0.048 C 
ATOM     22  C   UNL     1       7.810  -0.768  -1.193  0.00  0.00    +0.229 C 
ENDBRANCH  20  22
ENDBRANCH  18  20
ENDBRANCH   7  18
ENDBRANCH   1  11
BRANCH   4  23
ATOM     23  N   UNL     1       2.425  -2.814  -0.036  0.00  0.00    -0.229 N 
ATOM     24  C   UNL     1       1.247  -2.160  -0.021  0.00  0.00    +0.260 C 
ATOM     25  O   UNL     1       0.204  -2.785  -0.014  0.00  0.00    -0.269 OA
ATOM     26  H   UNL     1       3.257  -2.315  -0.041  0.00  0.00    +0.173 HD
BRANCH  24  27
ATOM     27  C   UNL     1       1.223  -0.684  -0.013  0.00  0.00    +0.038 A 
ATOM     28  C   UNL     1       0.002  -0.004   0.002  0.00  0.00    +0.016 A 
ATOM     29  C   UNL     1      -0.017   1.373   0.010  0.00  0.00    +0.046 A 
ATOM     30  C   UNL     1       1.177   2.086   0.002  0.00  0.00    +0.117 A 
ATOM     31  C   UNL     1       2.393   1.413  -0.013  0.00  0.00    +0.046 A 
ATOM     32  C   UNL     1       2.420   0.036  -0.021  0.00  0.00    +0.016 A 
BRANCH  30  33
ATOM     33  O   UNL     1       1.154   3.443   0.009  0.00  0.00    -0.507 OA
ATOM     34  H   UNL     1       1.156   3.831   0.895  0.00  0.00    +0.292 HD
ENDBRANCH  30  33
ENDBRANCH  24  27
ENDBRANCH   4  23
TORSDOF 7
