REMARK  Name = ZINC44737210
REMARK  7 active torsions:
REMARK  status: ('A' for Active; 'I' for Inactive)
REMARK    1  A    between atoms: C_1  and  C_2
REMARK    2  A    between atoms: C_2  and  C_3
REMARK    3  A    between atoms: C_7  and  C_16
REMARK    4  A    between atoms: N_18  and  C_19
REMARK    5  A    between atoms: C_19  and  C_21
REMARK    6  A    between atoms: C_19  and  C_22
REMARK    7  A    between atoms: C_27  and  C_31
REMARK                            x       y       z     vdW  Elec       q    Type
REMARK                         _______ _______ _______ _____ _____    ______ ____
ROOT
ATOM      1  C   UNL     1       0.195  -5.377  -1.122  0.00  0.00    +0.219 C 
ATOM      2  O   UNL     1       1.227  -5.576  -0.517  0.00  0.00    -0.275 OA
ATOM      3  N   UNL     1      -0.656  -6.396  -1.355  0.00  0.00    -0.305 N 
ATOM      4  H   UNL     1      -1.482  -6.238  -1.839  0.00  0.00    +0.149 HD
ENDROOT
BRANCH   1   9
ATOM      5  C   UNL     1       0.817  -0.507  -1.360  0.00  0.00    +0.215 C 
ATOM      6  O   UNL     1       1.221   0.267  -2.201  0.00  0.00    -0.276 OA
ATOM      7  N   UNL     1       0.907  -1.836  -1.567  0.00  0.00    -0.300 N 
ATOM      8  C   UNL     1       0.466  -2.928  -0.668  0.00  0.00    +0.121 C 
ATOM      9  C   UNL     1      -0.137  -3.992  -1.612  0.00  0.00    +0.100 C 
ATOM     10  C   UNL     1       0.528  -3.730  -2.974  0.00  0.00    -0.004 C 
ATOM     11  C   UNL     1       1.466  -2.535  -2.750  0.00  0.00    +0.115 C 
ATOM     12  C   UNL     1      -0.527  -3.376  -4.018  0.00  0.00    -0.010 C 
ATOM     13  C   UNL     1       0.151  -3.175  -5.376  0.00  0.00    -0.082 C 
ATOM     14  N   UNL     1       0.854  -4.406  -5.759  0.00  0.00    +0.379 N 
ATOM     15  C   UNL     1       1.929  -4.689  -4.800  0.00  0.00    -0.082 C 
ATOM     16  C   UNL     1       1.325  -4.952  -3.417  0.00  0.00    -0.010 C 
ATOM     17  H   UNL     1       0.202  -5.175  -5.768  0.00  0.00    -0.086 HD
ATOM     18  H   UNL     1       1.249  -4.293  -6.681  0.00  0.00    -0.086 HD
BRANCH   5  20
ATOM     19  C   UNL     1       0.229   1.546  -0.100  0.00  0.00    +0.013 C 
ATOM     20  C   UNL     1       0.212   0.016  -0.083  0.00  0.00    +0.092 C 
ENDBRANCH   5  20
ENDBRANCH   1   9
BRANCH   3  21
ATOM     21  C   UNL     1      -0.334  -7.744  -0.878  0.00  0.00    +0.136 C 
ATOM     22  C   UNL     1      -0.786  -7.892   0.576  0.00  0.00    +0.036 C 
BRANCH  21  23
ATOM     23  C   UNL     1      -1.044  -8.762  -1.732  0.00  0.00    +0.128 A 
ATOM     24  N   UNL     1      -2.134  -8.539  -2.407  0.00  0.00    -0.231 NA
ATOM     25  C   UNL     1      -2.503  -9.668  -3.064  0.00  0.00    +0.089 A 
ATOM     26  C   UNL     1      -3.567  -9.985  -3.913  0.00  0.00    +0.030 A 
ATOM     27  C   UNL     1      -3.672 -11.244  -4.432  0.00  0.00    +0.005 A 
ATOM     28  C   UNL     1      -2.732 -12.217  -4.124  0.00  0.00    -0.048 A 
ATOM     29  C   UNL     1      -1.674 -11.927  -3.289  0.00  0.00    +0.031 A 
ATOM     30  C   UNL     1      -1.550 -10.653  -2.753  0.00  0.00    +0.067 A 
ATOM     31  N   UNL     1      -0.637 -10.047  -1.913  0.00  0.00    -0.340 N 
ATOM     32  C   UNL     1      -2.868 -13.600  -4.707  0.00  0.00    +0.044 C 
ATOM     33  H   UNL     1       0.148 -10.462  -1.523  0.00  0.00    +0.167 HD
ENDBRANCH  21  23
ENDBRANCH   3  21
TORSDOF 4
