REMARK  Name = ZINC40782608
REMARK  7 active torsions:
REMARK  status: ('A' for Active; 'I' for Inactive)
REMARK    1  A    between atoms: C_1  and  O_2
REMARK    2  A    between atoms: O_2  and  C_3
REMARK    3  A    between atoms: C_6  and  N_9
REMARK    4  A    between atoms: C_11  and  N_30
REMARK    5  A    between atoms: C_12  and  N_16
REMARK    6  A    between atoms: N_16  and  C_17
REMARK    7  A    between atoms: C_17  and  C_18
REMARK                            x       y       z     vdW  Elec       q    Type
REMARK                         _______ _______ _______ _____ _____    ______ ____
ROOT
ATOM      1  N   UNL     1       2.572  -2.356  -4.418  0.00  0.00    -0.299 N 
ATOM      2  C   UNL     1       2.665  -3.743  -4.410  0.00  0.00    +0.126 A 
ATOM      3  C   UNL     1       3.377  -4.412  -5.408  0.00  0.00    +0.104 A 
ATOM      4  C   UNL     1       3.438  -5.805  -5.352  0.00  0.00    +0.153 A 
ATOM      5  N   UNL     1       2.819  -6.439  -4.358  0.00  0.00    -0.220 NA
ATOM      6  C   UNL     1       2.158  -5.769  -3.437  0.00  0.00    +0.200 A 
ATOM      7  N   UNL     1       2.080  -4.453  -3.449  0.00  0.00    -0.333 N 
ATOM      8  H   UNL     1       2.920  -1.851  -5.170  0.00  0.00    +0.154 HD
ATOM      9  H   UNL     1       1.587  -3.997  -2.749  0.00  0.00    +0.168 HD
ENDROOT
BRANCH   4  10
ATOM     10  N   UNL     1       4.134  -6.521  -6.321  0.00  0.00    -0.264 N 
ATOM     11  C   UNL     1       3.458  -7.043  -7.420  0.00  0.00    +0.127 A 
ATOM     12  C   UNL     1       2.123  -6.713  -7.628  0.00  0.00    +0.044 A 
ATOM     13  C   UNL     1       1.463  -7.239  -8.725  0.00  0.00    +0.005 A 
ATOM     14  C   UNL     1       2.164  -8.081  -9.579  0.00  0.00    +0.020 A 
ATOM     15  C   UNL     1       3.488  -8.366  -9.311  0.00  0.00    +0.113 A 
ATOM     16  N   UNL     1       4.093  -7.845  -8.260  0.00  0.00    -0.240 NA
BRANCH  10  17
ATOM     17  C   UNL     1       5.578  -6.725  -6.185  0.00  0.00    +0.149 C 
BRANCH  17  18
ATOM     18  C   UNL     1       5.835  -7.998  -5.420  0.00  0.00    -0.030 A 
ATOM     19  C   UNL     1       5.938  -7.968  -4.042  0.00  0.00    +0.005 A 
ATOM     20  C   UNL     1       6.174  -9.135  -3.340  0.00  0.00    +0.000 A 
ATOM     21  C   UNL     1       6.307 -10.333  -4.017  0.00  0.00    +0.000 A 
ATOM     22  C   UNL     1       6.204 -10.364  -5.395  0.00  0.00    +0.000 A 
ATOM     23  C   UNL     1       5.964  -9.197  -6.096  0.00  0.00    +0.005 A 
ENDBRANCH  17  18
ENDBRANCH  10  17
ENDBRANCH   4  10
BRANCH   1  27
ATOM     24  C   UNL     1       0.803  -0.365  -1.212  0.00  0.00    +0.120 A 
ATOM     25  C   UNL     1       1.632  -1.453  -0.980  0.00  0.00    +0.047 A 
ATOM     26  C   UNL     1       2.218  -2.113  -2.042  0.00  0.00    +0.027 A 
ATOM     27  C   UNL     1       1.978  -1.688  -3.342  0.00  0.00    +0.033 A 
ATOM     28  C   UNL     1       1.148  -0.598  -3.572  0.00  0.00    +0.027 A 
ATOM     29  C   UNL     1       0.558   0.058  -2.510  0.00  0.00    +0.047 A 
BRANCH  24  31
ATOM     30  C   UNL     1       0.522  -0.204   1.145  0.00  0.00    +0.277 C 
ATOM     31  O   UNL     1       0.226   0.284  -0.165  0.00  0.00    -0.495 OA
ENDBRANCH  24  31
ENDBRANCH   1  27
BRANCH   3  32
ATOM     32  N   UNL     1       4.014  -3.703  -6.439  0.00  0.00    -0.353 N 
ATOM     33  H   UNL     1       4.027  -2.733  -6.424  0.00  0.00    +0.143 HD
ATOM     34  H   UNL     1       4.441  -4.183  -7.165  0.00  0.00    +0.143 HD
ENDBRANCH   3  32
TORSDOF 6
