REMARK  Name = ZINC36066309
REMARK  6 active torsions:
REMARK  status: ('A' for Active; 'I' for Inactive)
REMARK    1  A    between atoms: C_1  and  C_2
REMARK    2  A    between atoms: C_5  and  N_8
REMARK    3  A    between atoms: C_9  and  C_33
REMARK    4  A    between atoms: C_17  and  C_23
REMARK    5  A    between atoms: N_25  and  C_26
REMARK    6  A    between atoms: N_35  and  C_36
REMARK                            x       y       z     vdW  Elec       q    Type
REMARK                         _______ _______ _______ _____ _____    ______ ____
ROOT
ATOM      1  N   UNL     1      -2.128  -2.547   2.422  0.00  0.00    -0.283 N 
ATOM      2  C   UNL     1      -2.781  -3.268   3.559  0.00  0.00    +0.199 C 
ATOM      3  C   UNL     1      -3.568  -2.172   4.208  0.00  0.00    +0.127 C 
ATOM      4  C   UNL     1      -4.767  -1.741   3.385  0.00  0.00    +0.009 C 
ATOM      5  C   UNL     1      -5.359  -0.784   4.085  0.00  0.00    +0.004 C 
ATOM      6  C   UNL     1      -4.473  -0.591   5.322  0.00  0.00    +0.155 C 
ATOM      7  O   UNL     1      -3.974  -1.976   5.543  0.00  0.00    -0.358 OA
ATOM      8  C   UNL     1      -3.214   0.143   4.716  0.00  0.00    +0.123 C 
ATOM      9  C   UNL     1      -2.461  -1.046   4.118  0.00  0.00    +0.128 C 
ATOM     10  C   UNL     1      -2.031  -1.209   2.718  0.00  0.00    +0.224 C 
ATOM     11  O   UNL     1      -1.663  -0.329   1.970  0.00  0.00    -0.275 OA
ENDROOT
BRANCH   1  16
ATOM     12  C   UNL     1       2.341  -3.408   2.817  0.00  0.00    +0.007 C 
ATOM     13  C   UNL     1       1.171  -3.548   1.842  0.00  0.00    -0.014 C 
ATOM     14  C   UNL     1       0.600  -2.164   1.528  0.00  0.00    +0.005 C 
ATOM     15  C   UNL     1      -0.570  -2.304   0.552  0.00  0.00    +0.023 C 
ATOM     16  C   UNL     1      -1.659  -3.174   1.183  0.00  0.00    +0.077 C 
ATOM     17  C   UNL     1      -1.088  -4.558   1.497  0.00  0.00    +0.023 C 
ATOM     18  C   UNL     1       0.082  -4.418   2.473  0.00  0.00    +0.005 C 
ENDBRANCH   1  16
BRANCH   8  19
ATOM     19  C   UNL     1      -3.623   1.136   3.659  0.00  0.00    +0.224 C 
ATOM     20  O   UNL     1      -3.234   1.002   2.518  0.00  0.00    -0.275 OA
ATOM     21  N   UNL     1      -4.421   2.173   3.981  0.00  0.00    -0.285 N 
ATOM     22  H   UNL     1      -4.677   2.318   4.905  0.00  0.00    +0.155 HD
BRANCH  21  23
ATOM     23  C   UNL     1      -4.881   3.039   2.982  0.00  0.00    +0.033 A 
ATOM     24  C   UNL     1      -6.153   3.589   3.070  0.00  0.00    +0.025 A 
ATOM     25  C   UNL     1      -6.604   4.443   2.083  0.00  0.00    +0.022 A 
ATOM     26  C   UNL     1      -5.790   4.752   1.008  0.00  0.00    +0.041 A 
ATOM     27  C   UNL     1      -4.521   4.205   0.918  0.00  0.00    +0.022 A 
ATOM     28  C   UNL     1      -4.063   3.355   1.905  0.00  0.00    +0.025 A 
ATOM     29 CL   UNL     1      -6.360   5.826  -0.231  0.00  0.00    -0.084 Cl
ENDBRANCH  21  23
ENDBRANCH   8  19
BRANCH   2  30
ATOM     30  C   UNL     1      -3.689  -4.359   3.055  0.00  0.00    +0.237 C 
ATOM     31  O   UNL     1      -4.075  -4.345   1.905  0.00  0.00    -0.274 OA
ATOM     32  N   UNL     1      -4.074  -5.351   3.882  0.00  0.00    -0.311 N 
ATOM     33  H   UNL     1      -3.766  -5.363   4.802  0.00  0.00    +0.149 HD
BRANCH  32  34
ATOM     34  C   UNL     1      -4.958  -6.412   3.392  0.00  0.00    +0.073 C 
ATOM     35  C   UNL     1      -6.414  -5.955   3.502  0.00  0.00    +0.022 C 
ATOM     36  C   UNL     1      -7.336  -7.063   2.990  0.00  0.00    +0.002 C 
ATOM     37  C   UNL     1      -7.134  -8.324   3.831  0.00  0.00    +0.000 C 
ATOM     38  C   UNL     1      -5.678  -8.782   3.721  0.00  0.00    +0.002 C 
ATOM     39  C   UNL     1      -4.755  -7.674   4.233  0.00  0.00    +0.022 C 
ENDBRANCH  32  34
ENDBRANCH   2  30
TORSDOF 5
