REMARK  Name = ZINC08739813
REMARK  5 active torsions:
REMARK  status: ('A' for Active; 'I' for Inactive)
REMARK    1  A    between atoms: C_1  and  C_2
REMARK    2  A    between atoms: C_5  and  N_9
REMARK    3  A    between atoms: C_13  and  N_58
REMARK    4  A    between atoms: C_19  and  C_22
REMARK    5  A    between atoms: C_19  and  N_60
REMARK                            x       y       z     vdW  Elec       q    Type
REMARK                         _______ _______ _______ _____ _____    ______ ____
ROOT
ATOM      1  C   UNL     1       3.268   2.601  -1.076  0.00  0.00    -0.079 C 
ATOM      2  C   UNL     1       3.777   2.484  -2.515  0.00  0.00    -0.021 C 
ATOM      3  C   UNL     1       4.378   1.092  -2.727  0.00  0.00    +0.009 C 
ATOM      4  C   UNL     1       3.315   0.034  -2.417  0.00  0.00    -0.021 C 
ATOM      5  C   UNL     1       2.820   0.221  -0.981  0.00  0.00    -0.079 C 
ATOM      6  N   UNL     1       2.232   1.571  -0.849  0.00  0.00    +0.388 N 
ATOM      7  H   UNL     1       1.492   1.683  -1.552  0.00  0.00    -0.081 HD
ENDROOT
BRANCH   6  12
ATOM      8  N   UNL     1      -0.654   1.601   0.841  0.00  0.00    -0.212 N 
ATOM      9  C   UNL     1      -0.412   2.917   0.873  0.00  0.00    +0.225 C 
ATOM     10  O   UNL     1      -1.246   3.781   1.045  0.00  0.00    -0.275 OA
ATOM     11  C   UNL     1       1.066   3.157   0.655  0.00  0.00    +0.090 C 
ATOM     12  C   UNL     1       1.643   1.736   0.496  0.00  0.00    +0.029 C 
ATOM     13  C   UNL     1       0.431   0.843   0.641  0.00  0.00    +0.213 C 
ATOM     14  O   UNL     1       0.439  -0.368   0.580  0.00  0.00    -0.277 OA
BRANCH   8  19
ATOM     15  C   UNL     1      -5.849  -0.585   1.513  0.00  0.00    +0.045 C 
ATOM     16  C   UNL     1      -4.470  -0.004   1.335  0.00  0.00    -0.032 A 
ATOM     17  C   UNL     1      -3.832  -0.104   0.112  0.00  0.00    +0.006 A 
ATOM     18  C   UNL     1      -2.570   0.432  -0.056  0.00  0.00    +0.024 A 
ATOM     19  C   UNL     1      -1.937   1.061   1.008  0.00  0.00    +0.045 A 
ATOM     20  C   UNL     1      -2.579   1.160   2.234  0.00  0.00    +0.044 A 
ATOM     21  C   UNL     1      -3.845   0.627   2.395  0.00  0.00    +0.046 A 
ATOM     22 CL   UNL     1      -4.649   0.750   3.929  0.00  0.00    -0.083 Cl
ENDBRANCH   8  19
ENDBRANCH   6  12
BRANCH   3  28
ATOM     23  C   UNL     1       5.312  -0.403  -4.387  0.00  0.00    -0.077 C 
ATOM     24  C   UNL     1       5.621  -0.553  -5.878  0.00  0.00    -0.019 C 
ATOM     25  C   UNL     1       6.673   0.484  -6.283  0.00  0.00    -0.004 C 
ATOM     26  C   UNL     1       6.150   1.885  -5.953  0.00  0.00    -0.019 C 
ATOM     27  C   UNL     1       5.826   1.964  -4.460  0.00  0.00    -0.077 C 
ATOM     28  N   UNL     1       4.791   0.959  -4.140  0.00  0.00    +0.389 N 
ATOM     29  H   UNL     1       3.974   1.117  -4.742  0.00  0.00    -0.080 HD
ENDBRANCH   3  28
BRANCH   3  30
ATOM     30  C   UNL     1       5.557   0.906  -1.808  0.00  0.00    +0.200 C 
ATOM     31  O   UNL     1       5.657  -0.105  -1.146  0.00  0.00    -0.278 OA
ATOM     32  N   UNL     1       6.501   1.864  -1.721  0.00  0.00    -0.330 N 
ATOM     33  H   UNL     1       6.384   2.705  -2.190  0.00  0.00    +0.145 HD
ATOM     34  H   UNL     1       7.298   1.713  -1.189  0.00  0.00    +0.145 HD
ENDBRANCH   3  30
TORSDOF 4
