REMARK  Name = ZINC01657169
REMARK  5 active torsions:
REMARK  status: ('A' for Active; 'I' for Inactive)
REMARK    1  A    between atoms: C_6  and  C_7
REMARK    2  A    between atoms: N_8  and  N_9
REMARK    3  A    between atoms: N_9  and  C_10
REMARK    4  A    between atoms: C_10  and  N_12
REMARK    5  A    between atoms: N_12  and  C_13
REMARK                            x       y       z     vdW  Elec       q    Type
REMARK                         _______ _______ _______ _____ _____    ______ ____
ROOT
ATOM      1  C   UNL     1      -6.011   1.598   0.038  0.00  0.00    +0.150 C 
ATOM      2  S   UNL     1      -7.485   0.728   0.040  0.00  0.00    -0.017 S 
ENDROOT
BRANCH   1   3
ATOM      3  N   UNL     1      -4.837   0.935   0.029  0.00  0.00    -0.218 N 
ATOM      4  H   UNL     1      -4.828  -0.034   0.023  0.00  0.00    +0.176 HD
BRANCH   3   6
ATOM      5  C   UNL     1      -2.501   1.010   0.019  0.00  0.00    +0.138 C 
ATOM      6  N   UNL     1      -3.631   1.648   0.028  0.00  0.00    -0.188 NA
BRANCH   5  12
ATOM      7  C   UNL     1      -0.013   1.076   0.008  0.00  0.00    +0.010 A 
ATOM      8  C   UNL     1       1.171   1.783   0.001  0.00  0.00    +0.015 A 
ATOM      9  C   UNL     1       1.154   3.167   0.008  0.00  0.00    +0.013 A 
ATOM     10  C   UNL     1      -0.049   3.851   0.022  0.00  0.00    +0.015 A 
ATOM     11  C   UNL     1      -1.241   3.156   0.030  0.00  0.00    +0.010 A 
ATOM     12  C   UNL     1      -1.231   1.759   0.017  0.00  0.00    -0.005 A 
ATOM     13  I   UNL     1       2.958   4.232  -0.005  0.00  0.00    -0.044 I 
ENDBRANCH   5  12
ENDBRANCH   3   6
ENDBRANCH   1   3
BRANCH   1  14
ATOM     14  N   UNL     1      -6.024   2.946   0.046  0.00  0.00    -0.324 N 
ATOM     15  H   UNL     1      -5.189   3.439   0.045  0.00  0.00    +0.148 HD
BRANCH  14  16
ATOM     16  C   UNL     1      -7.300   3.666   0.056  0.00  0.00    +0.058 C 
ATOM     17  C   UNL     1      -7.815   3.817  -1.378  0.00  0.00    -0.056 C 
ATOM     18  C   UNL     1      -6.642   5.921  -1.637  0.00  0.00    -0.078 C 
ATOM     19  C   UNL     1      -6.093   5.829  -0.210  0.00  0.00    -0.014 C 
ATOM     20  C   UNL     1      -7.097   5.062   0.659  0.00  0.00    +0.004 C 
ATOM     21  C   UNL     1      -8.438   5.806   0.630  0.00  0.00    -0.014 C 
ATOM     22  C   UNL     1      -8.921   5.899  -0.820  0.00  0.00    -0.078 C 
ATOM     23  N   UNL     1      -7.954   5.247  -1.729  0.00  0.00    +0.381 N 
ATOM     24  H   UNL     1      -8.300   5.321  -2.693  0.00  0.00    -0.082 HD
ENDBRANCH  14  16
ENDBRANCH   1  14
TORSDOF 5
