REMARK  Name = ZINC43620120
REMARK  12 active torsions:
REMARK  status: ('A' for Active; 'I' for Inactive)
REMARK    1  A    between atoms: C_1  and  C_2
REMARK    2  A    between atoms: C_2  and  C_40
REMARK    3  A    between atoms: C_7  and  C_11
REMARK    4  A    between atoms: C_11  and  C_12
REMARK    5  A    between atoms: C_12  and  O_13
REMARK    6  A    between atoms: O_13  and  C_14
REMARK    7  A    between atoms: C_17  and  C_22
REMARK    8  A    between atoms: C_19  and  O_20
REMARK    9  A    between atoms: O_20  and  C_21
REMARK   10  A    between atoms: C_22  and  N_23
REMARK   11  A    between atoms: N_23  and  C_24
REMARK   12  A    between atoms: C_33  and  C_35
REMARK                            x       y       z     vdW  Elec       q    Type
REMARK                         _______ _______ _______ _____ _____    ______ ____
ROOT
ATOM      1  C   UNL     1       3.679  -0.820   6.499  0.00  0.00    +0.162 A 
ATOM      2  C   UNL     1       2.936  -1.975   6.320  0.00  0.00    +0.050 A 
ATOM      3  C   UNL     1       3.075  -3.030   7.203  0.00  0.00    +0.009 A 
ATOM      4  C   UNL     1       3.954  -2.935   8.265  0.00  0.00    -0.026 A 
ATOM      5  C   UNL     1       4.699  -1.785   8.450  0.00  0.00    +0.054 A 
ATOM      6  C   UNL     1       4.569  -0.726   7.565  0.00  0.00    +0.162 A 
ENDROOT
BRANCH   6   7
ATOM      7  O   UNL     1       5.304   0.404   7.741  0.00  0.00    -0.491 OA
ATOM      8  C   UNL     1       6.197   0.429   8.857  0.00  0.00    +0.277 C 
ENDBRANCH   6   7
BRANCH   1   9
ATOM      9  O   UNL     1       3.544   0.219   5.631  0.00  0.00    -0.488 OA
BRANCH   9  10
ATOM     10  C   UNL     1       2.612   0.052   4.560  0.00  0.00    +0.233 C 
BRANCH  10  11
ATOM     11  C   UNL     1       2.598   1.314   3.696  0.00  0.00    +0.071 C 
BRANCH  11  17
ATOM     12  C   UNL     1       1.549   2.737   0.224  0.00  0.00    +0.012 C 
ATOM     13  C   UNL     1       1.496   1.218   0.046  0.00  0.00    -0.025 C 
ATOM     14  C   UNL     1       0.126   0.597   0.388  0.00  0.00    -0.000 C 
ATOM     15  C   UNL     1      -0.569   1.389   1.504  0.00  0.00    +0.031 C 
ATOM     16  C   UNL     1       0.382   1.577   2.662  0.00  0.00    -0.027 C 
ATOM     17  C   UNL     1       1.616   1.139   2.566  0.00  0.00    -0.067 C 
ATOM     18  C   UNL     1       2.019   0.430   1.261  0.00  0.00    +0.021 C 
ATOM     19  C   UNL     1       0.931  -0.611   0.898  0.00  0.00    +0.012 C 
ATOM     20  C   UNL     1       2.074   0.752  -1.292  0.00  0.00    +0.012 C 
ENDBRANCH  11  17
ENDBRANCH  10  11
ENDBRANCH   9  10
ENDBRANCH   1   9
BRANCH   4  21
ATOM     21  C   UNL     1       4.101  -4.088   9.225  0.00  0.00    +0.144 C 
BRANCH  21  22
ATOM     22  N   UNL     1       5.050  -5.061   8.678  0.00  0.00    -0.280 N 
ATOM     23  C   UNL     1       4.598  -6.130   7.992  0.00  0.00    +0.268 C 
ATOM     24  O   UNL     1       5.375  -6.990   7.627  0.00  0.00    -0.268 OA
BRANCH  22  25
ATOM     25  C   UNL     1       6.489  -4.872   8.876  0.00  0.00    +0.163 C 
ATOM     26  C   UNL     1       7.066  -6.072   9.630  0.00  0.00    +0.032 C 
ATOM     27  C   UNL     1       8.335  -5.684  10.367  0.00  0.00    +0.004 C 
ATOM     28  C   UNL     1       9.492  -5.329   9.451  0.00  0.00    +0.019 C 
ATOM     29  C   UNL     1       9.199  -4.041   8.678  0.00  0.00    +0.104 C 
ATOM     30  N   UNL     1       8.452  -4.384   7.457  0.00  0.00    -0.314 N 
ATOM     31  C   UNL     1       7.178  -4.768   7.531  0.00  0.00    +0.234 C 
ATOM     32  O   UNL     1       6.570  -5.040   6.518  0.00  0.00    -0.274 OA
ATOM     33  H   UNL     1       8.889  -4.327   6.593  0.00  0.00    +0.149 HD
ENDBRANCH  22  25
BRANCH  23  34
ATOM     34  C   UNL     1       3.159  -6.255   7.684  0.00  0.00    +0.154 A 
ATOM     35  C   UNL     1       2.649  -7.268   6.881  0.00  0.00    +0.155 A 
ATOM     36  N   UNL     1       1.352  -7.238   6.707  0.00  0.00    -0.198 NA
ATOM     37  S   UNL     1       0.855  -5.956   7.552  0.00  0.00    +0.116 S 
ATOM     38  N   UNL     1       2.251  -5.417   8.156  0.00  0.00    -0.186 NA
ENDBRANCH  23  34
ENDBRANCH  21  22
ENDBRANCH   4  21
TORSDOF 9
