REMARK  Name = ZINC07925348
REMARK  8 active torsions:
REMARK  status: ('A' for Active; 'I' for Inactive)
REMARK    1  A    between atoms: C_1  and  C_2
REMARK    2  A    between atoms: C_5  and  C_8
REMARK    3  A    between atoms: C_8  and  C_10
REMARK    4  A    between atoms: C_8  and  N_44
REMARK    5  A    between atoms: C_15  and  C_16
REMARK    6  A    between atoms: C_15  and  N_44
REMARK    7  A    between atoms: N_18  and  C_19
REMARK    8  A    between atoms: C_20  and  C_24
REMARK                            x       y       z     vdW  Elec       q    Type
REMARK                         _______ _______ _______ _____ _____    ______ ____
ROOT
ATOM      1  N   UNL     1       1.921  -2.500   0.858  0.00  0.00    +0.392 N 
ATOM      2  H   UNL     1       2.170  -3.447   0.549  0.00  0.00    -0.084 HD
ATOM      3  H   UNL     1       0.901  -2.382   0.812  0.00  0.00    -0.084 HD
ENDROOT
BRANCH   1   4
ATOM      4  C   UNL     1       2.565  -1.514  -0.030  0.00  0.00    -0.003 C 
BRANCH   4   9
ATOM      5  C   UNL     1       2.723  -3.623  -5.408  0.00  0.00    +0.044 C 
ATOM      6  C   UNL     1       2.682  -3.073  -4.005  0.00  0.00    -0.050 A 
ATOM      7  C   UNL     1       3.762  -2.370  -3.507  0.00  0.00    +0.003 A 
ATOM      8  C   UNL     1       3.724  -1.865  -2.220  0.00  0.00    +0.002 A 
ATOM      9  C   UNL     1       2.606  -2.064  -1.433  0.00  0.00    -0.057 A 
ATOM     10  C   UNL     1       1.527  -2.771  -1.930  0.00  0.00    +0.002 A 
ATOM     11  C   UNL     1       1.563  -3.271  -3.218  0.00  0.00    +0.003 A 
ENDBRANCH   4   9
BRANCH   4  12
ATOM     12  C   UNL     1       1.773  -0.232  -0.016  0.00  0.00    -0.020 A 
ATOM     13  C   UNL     1       2.220   1.048  -0.013  0.00  0.00    +0.010 A 
ATOM     14  C   UNL     1       1.300   2.079   0.001  0.00  0.00    +0.008 A 
ATOM     15  C   UNL     1      -0.022   1.781   0.012  0.00  0.00    +0.045 A 
ATOM     16  S   UNL     1       0.002  -0.004   0.002  0.00  0.00    -0.103 S 
ENDBRANCH   4  12
ENDBRANCH   1   4
BRANCH   1  17
ATOM     17  C   UNL     1       2.371  -2.308   2.249  0.00  0.00    +0.016 C 
BRANCH  17  18
ATOM     18  C   UNL     1       1.698  -3.327   3.131  0.00  0.00    +0.201 C 
ATOM     19  O   UNL     1       0.925  -4.129   2.651  0.00  0.00    -0.278 OA
ATOM     20  N   UNL     1       1.955  -3.348   4.454  0.00  0.00    -0.281 N 
ATOM     21  H   UNL     1       2.573  -2.707   4.838  0.00  0.00    +0.155 HD
BRANCH  20  22
ATOM     22  C   UNL     1       1.336  -4.286   5.266  0.00  0.00    +0.084 A 
ATOM     23  C   UNL     1       1.475  -4.468   6.637  0.00  0.00    +0.065 A 
ATOM     24  C   UNL     1       0.700  -5.530   7.234  0.00  0.00    +0.022 A 
ATOM     25  C   UNL     1      -0.080  -6.256   6.413  0.00  0.00    +0.048 A 
ATOM     26  S   UNL     1       0.207  -5.520   4.817  0.00  0.00    -0.081 S 
BRANCH  23  27
ATOM     27  C   UNL     1       2.363  -3.620   7.439  0.00  0.00    +0.244 C 
ATOM     28  O   UNL     1       3.001  -2.731   6.906  0.00  0.00    -0.270 OA
ATOM     29  N   UNL     1       2.473  -3.825   8.766  0.00  0.00    -0.325 N 
ATOM     30  H   UNL     1       1.965  -4.534   9.191  0.00  0.00    +0.145 HD
ATOM     31  H   UNL     1       3.061  -3.265   9.297  0.00  0.00    +0.145 HD
ENDBRANCH  23  27
ENDBRANCH  20  22
ENDBRANCH  17  18
ENDBRANCH   1  17
TORSDOF 7
