REMARK  Name = ZINC38684518
REMARK  9 active torsions:
REMARK  status: ('A' for Active; 'I' for Inactive)
REMARK    1  A    between atoms: C_2  and  C_3
REMARK    2  A    between atoms: C_3  and  O_4
REMARK    3  A    between atoms: O_4  and  C_5
REMARK    4  A    between atoms: C_9  and  C_11
REMARK    5  A    between atoms: C_16  and  O_25
REMARK    6  A    between atoms: C_20  and  N_24
REMARK    7  A    between atoms: C_21  and  C_22
REMARK    8  A    between atoms: O_25  and  C_26
REMARK    9  A    between atoms: C_26  and  C_28
REMARK                            x       y       z     vdW  Elec       q    Type
REMARK                         _______ _______ _______ _____ _____    ______ ____
ROOT
ATOM      1  C   UNL     1      -3.368  -5.640  -3.088  0.00  0.00    +0.098 C 
ATOM      2  C   UNL     1      -3.588  -6.933  -2.349  0.00  0.00    +0.008 A 
ATOM      3  C   UNL     1      -2.520  -7.547  -1.719  0.00  0.00    +0.012 A 
ATOM      4  C   UNL     1      -2.704  -8.733  -1.036  0.00  0.00    +0.047 A 
ATOM      5  C   UNL     1      -3.963  -9.314  -0.980  0.00  0.00    +0.135 A 
ATOM      6  C   UNL     1      -5.035  -8.701  -1.609  0.00  0.00    +0.093 A 
ATOM      7  C   UNL     1      -4.848  -7.508  -2.295  0.00  0.00    +0.138 A 
ATOM      8  O   UNL     1      -5.907  -6.920  -2.906  0.00  0.00    -0.441 OA
ATOM      9  C   UNL     1      -5.703  -6.012  -3.874  0.00  0.00    +0.199 C 
ATOM     10  C   UNL     1      -4.522  -5.370  -4.012  0.00  0.00    +0.098 C 
ENDROOT
BRANCH   1  15
ATOM     11  C   UNL     1      -1.978  -2.722  -1.130  0.00  0.00    +0.121 A 
ATOM     12  C   UNL     1      -3.033  -2.441  -0.272  0.00  0.00    +0.045 A 
ATOM     13  C   UNL     1      -4.189  -3.195  -0.330  0.00  0.00    +0.004 A 
ATOM     14  C   UNL     1      -4.296  -4.229  -1.242  0.00  0.00    +0.005 A 
ATOM     15  C   UNL     1      -3.247  -4.512  -2.097  0.00  0.00    -0.031 A 
ATOM     16  C   UNL     1      -2.091  -3.757  -2.047  0.00  0.00    +0.050 A 
BRANCH  11  17
ATOM     17  O   UNL     1      -0.840  -1.982  -1.075  0.00  0.00    -0.488 OA
BRANCH  17  18
ATOM     18  C   UNL     1      -0.795  -0.932  -0.106  0.00  0.00    +0.256 C 
BRANCH  18  20
ATOM     19  C   UNL     1       0.582   1.083  -0.175  0.00  0.00    +0.007 C 
ATOM     20  C   UNL     1       0.534  -0.226  -0.192  0.00  0.00    +0.006 C 
ENDBRANCH  18  20
ENDBRANCH  17  18
ENDBRANCH  11  17
ENDBRANCH   1  15
BRANCH   9  21
ATOM     21  N   UNL     1      -6.723  -5.727  -4.746  0.00  0.00    -0.328 N 
ATOM     22  H   UNL     1      -7.577  -6.180  -4.659  0.00  0.00    +0.145 HD
ATOM     23  H   UNL     1      -6.591  -5.073  -5.450  0.00  0.00    +0.145 HD
ENDBRANCH   9  21
BRANCH  10  24
ATOM     24  C   UNL     1      -4.369  -4.410  -5.064  0.00  0.00    +0.101 C 
ATOM     25  N   UNL     1      -4.248  -3.649  -5.899  0.00  0.00    -0.191 NA
ENDBRANCH  10  24
BRANCH   5  26
ATOM     26  O   UNL     1      -4.145 -10.481  -0.309  0.00  0.00    -0.422 OA
BRANCH  26  27
ATOM     27  C   UNL     1      -4.042 -10.462   1.035  0.00  0.00    +0.344 C 
ATOM     28  O   UNL     1      -3.897  -9.405   1.617  0.00  0.00    -0.245 OA
BRANCH  27  29
ATOM     29  C   UNL     1      -4.105 -11.724   1.798  0.00  0.00    +0.059 A 
ATOM     30  C   UNL     1      -4.266 -12.940   1.131  0.00  0.00    +0.016 A 
ATOM     31  C   UNL     1      -4.324 -14.115   1.850  0.00  0.00    +0.016 A 
ATOM     32  C   UNL     1      -4.223 -14.091   3.231  0.00  0.00    +0.018 A 
ATOM     33  C   UNL     1      -4.064 -12.888   3.899  0.00  0.00    +0.016 A 
ATOM     34  C   UNL     1      -3.998 -11.707   3.191  0.00  0.00    +0.016 A 
ATOM     35 BR   UNL     1      -4.304 -15.707   4.210  0.00  0.00    -0.050 Br
ENDBRANCH  27  29
ENDBRANCH  26  27
ENDBRANCH   5  26
TORSDOF 9
