REMARK  Name = ZINC05028823
REMARK  9 active torsions:
REMARK  status: ('A' for Active; 'I' for Inactive)
REMARK    1  A    between atoms: C_1  and  C_2
REMARK    2  A    between atoms: C_2  and  C_24
REMARK    3  A    between atoms: N_3  and  N_4
REMARK    4  A    between atoms: C_5  and  S_7
REMARK    5  A    between atoms: S_7  and  C_8
REMARK    6  A    between atoms: N_13  and  C_16
REMARK    7  A    between atoms: C_21  and  O_22
REMARK    8  A    between atoms: O_22  and  C_23
REMARK    9  A    between atoms: C_27  and  O_30
REMARK                            x       y       z     vdW  Elec       q    Type
REMARK                         _______ _______ _______ _____ _____    ______ ____
ROOT
ATOM      1  N   UNL     1       0.024   0.035   2.339  0.00  0.00    -0.217 N 
ATOM      2  C   UNL     1       0.044  -0.660   3.528  0.00  0.00    +0.146 C 
ATOM      3  N   UNL     1       0.062  -1.964   3.521  0.00  0.00    -0.380 N 
ATOM      4  H   UNL     1       0.011   1.005   2.345  0.00  0.00    +0.176 HD
ATOM      5  H   UNL     1       0.077  -2.454   4.358  0.00  0.00    +0.158 HD
ATOM      6  H   UNL     1       0.061  -2.445   2.678  0.00  0.00    +0.158 HD
ENDROOT
BRANCH   1   9
ATOM      7  C   UNL     1      -0.018   1.503   0.010  0.00  0.00    +0.068 C 
ATOM      8  C   UNL     1       0.002  -0.004   0.002  0.00  0.00    +0.063 C 
ATOM      9  N   UNL     1       0.022  -0.659   1.122  0.00  0.00    -0.185 NA
BRANCH   8  10
ATOM     10  C   UNL     1      -0.000  -0.734  -1.279  0.00  0.00    -0.002 A 
ATOM     11  C   UNL     1      -0.015  -0.031  -2.486  0.00  0.00    +0.013 A 
ATOM     12  C   UNL     1      -0.017  -0.718  -3.681  0.00  0.00    +0.046 A 
ATOM     13  C   UNL     1      -0.004  -2.107  -3.686  0.00  0.00    +0.117 A 
ATOM     14  C   UNL     1       0.011  -2.810  -2.489  0.00  0.00    +0.046 A 
ATOM     15  C   UNL     1       0.019  -2.131  -1.289  0.00  0.00    +0.013 A 
BRANCH  13  16
ATOM     16  O   UNL     1      -0.007  -2.780  -4.867  0.00  0.00    -0.507 OA
ATOM     17  H   UNL     1       0.876  -2.966  -5.215  0.00  0.00    +0.292 HD
ENDBRANCH  13  16
ENDBRANCH   8  10
ENDBRANCH   1   9
BRANCH   2  18
ATOM     18  S   UNL     1       0.047   0.213   5.059  0.00  0.00    -0.078 S 
BRANCH  18  19
ATOM     19  C   UNL     1       0.077  -1.099   6.311  0.00  0.00    +0.149 C 
ATOM     20  C   UNL     1       0.010  -0.496   7.729  0.00  0.00    +0.120 C 
ATOM     21  C   UNL     1       1.309  -0.941   8.365  0.00  0.00    +0.228 C 
ATOM     22  O   UNL     1       1.663  -0.681   9.495  0.00  0.00    -0.275 OA
ATOM     23  N   UNL     1       2.005  -1.668   7.483  0.00  0.00    -0.206 N 
ATOM     24  C   UNL     1       1.405  -1.823   6.292  0.00  0.00    +0.240 C 
ATOM     25  O   UNL     1       1.853  -2.443   5.351  0.00  0.00    -0.274 OA
BRANCH  23  26
ATOM     26  C   UNL     1       3.259  -2.225   7.778  0.00  0.00    +0.085 A 
ATOM     27  C   UNL     1       3.344  -3.500   8.317  0.00  0.00    +0.027 A 
ATOM     28  C   UNL     1       4.580  -4.047   8.607  0.00  0.00    +0.002 A 
ATOM     29  C   UNL     1       5.733  -3.325   8.361  0.00  0.00    +0.004 A 
ATOM     30  C   UNL     1       5.657  -2.054   7.824  0.00  0.00    +0.047 A 
ATOM     31  C   UNL     1       4.421  -1.501   7.526  0.00  0.00    +0.142 A 
BRANCH  31  32
ATOM     32  O   UNL     1       4.344  -0.253   6.992  0.00  0.00    -0.493 OA
ATOM     33  C   UNL     1       5.578   0.431   6.760  0.00  0.00    +0.277 C 
ENDBRANCH  31  32
ENDBRANCH  23  26
ENDBRANCH  18  19
ENDBRANCH   2  18
TORSDOF 7
