REMARK  Name = ZINC26496434
REMARK  5 active torsions:
REMARK  status: ('A' for Active; 'I' for Inactive)
REMARK    1  A    between atoms: C_10  and  C_11
REMARK    2  A    between atoms: N_14  and  C_17
REMARK    3  A    between atoms: C_17  and  C_18
REMARK    4  A    between atoms: C_18  and  C_19
REMARK    5  A    between atoms: C_24  and  C_30
REMARK                            x       y       z     vdW  Elec       q    Type
REMARK                         _______ _______ _______ _____ _____    ______ ____
ROOT
ATOM      1  C   UNL     1      -1.967   2.039  -1.183  0.00  0.00    -0.047 C 
ATOM      2  C   UNL     1      -0.733   1.580  -1.214  0.00  0.00    -0.041 C 
ATOM      3  C   UNL     1      -0.013   1.086   0.008  0.00  0.00    -0.051 C 
ATOM      4  N   UNL     1      -0.694   1.556   1.221  0.00  0.00    +0.382 N 
ATOM      5  C   UNL     1      -2.127   1.240   1.161  0.00  0.00    -0.074 C 
ATOM      6  C   UNL     1      -2.772   2.117   0.084  0.00  0.00    +0.017 C 
ATOM      7  H   UNL     1      -0.581   2.649   1.276  0.00  0.00    -0.081 HD
ENDROOT
BRANCH   1  17
ATOM      8  C   UNL     1      -1.508   6.150  -4.183  0.00  0.00    +0.001 A 
ATOM      9  C   UNL     1      -0.912   5.740  -2.992  0.00  0.00    +0.001 A 
ATOM     10  C   UNL     1      -1.248   4.555  -2.412  0.00  0.00    +0.009 A 
ATOM     11  C   UNL     1      -2.209   3.733  -3.018  0.00  0.00    -0.010 A 
ATOM     12  C   UNL     1      -2.817   4.147  -4.228  0.00  0.00    -0.017 A 
ATOM     13  C   UNL     1      -2.445   5.377  -4.799  0.00  0.00    +0.008 A 
ATOM     14  C   UNL     1      -3.779   3.324  -4.837  0.00  0.00    +0.008 A 
ATOM     15  C   UNL     1      -4.123   2.136  -4.265  0.00  0.00    +0.001 A 
ATOM     16  C   UNL     1      -3.534   1.711  -3.080  0.00  0.00    +0.009 A 
ATOM     17  C   UNL     1      -2.584   2.494  -2.443  0.00  0.00    -0.015 A 
ENDBRANCH   1  17
BRANCH   4  18
ATOM     18  C   UNL     1      -0.082   0.979   2.425  0.00  0.00    -0.076 C 
BRANCH  18  19
ATOM     19  C   UNL     1       1.344   1.512   2.579  0.00  0.00    +0.018 C 
BRANCH  19  20
ATOM     20  C   UNL     1       1.980   0.911   3.833  0.00  0.00    +0.147 C 
ATOM     21  C   UNL     1       3.334   1.536   4.054  0.00  0.00    -0.016 A 
ATOM     22  C   UNL     1       3.459   2.913   3.907  0.00  0.00    +0.007 A 
ATOM     23  C   UNL     1       4.675   3.529   4.105  0.00  0.00    +0.013 A 
ATOM     24  C   UNL     1       5.788   2.765   4.459  0.00  0.00    +0.037 A 
ATOM     25  C   UNL     1       5.657   1.385   4.606  0.00  0.00    +0.017 A 
ATOM     26  C   UNL     1       4.431   0.778   4.404  0.00  0.00    -0.039 A 
ATOM     27  C   UNL     1       4.329  -0.717   4.569  0.00  0.00    +0.063 C 
ATOM     28  C   UNL     1       2.862  -1.123   4.716  0.00  0.00    +0.165 C 
ATOM     29  O   UNL     1       2.112  -0.500   3.667  0.00  0.00    -0.372 OA
BRANCH  24  30
ATOM     30  C   UNL     1       7.098   3.416   4.676  0.00  0.00    +0.242 C 
ATOM     31  O   UNL     1       8.066   2.747   4.984  0.00  0.00    -0.270 OA
ATOM     32  N   UNL     1       7.220   4.750   4.532  0.00  0.00    -0.325 N 
ATOM     33  H   UNL     1       8.195   5.234   4.694  0.00  0.00    +0.145 HD
ATOM     34  H   UNL     1       6.345   5.356   4.254  0.00  0.00    +0.145 HD
ENDBRANCH  24  30
ENDBRANCH  19  20
ENDBRANCH  18  19
ENDBRANCH   4  18
TORSDOF 5
