REMARK  Name = ZINC39631214
REMARK  14 active torsions:
REMARK  status: ('A' for Active; 'I' for Inactive)
REMARK    1  A    between atoms: C_1  and  C_2
REMARK    2  A    between atoms: C_2  and  C_3
REMARK    3  A    between atoms: C_3  and  C_4
REMARK    4  A    between atoms: C_4  and  C_5
REMARK    5  A    between atoms: C_9  and  C_18
REMARK    6  A    between atoms: N_20  and  C_21
REMARK    7  A    between atoms: C_21  and  C_23
REMARK    8  A    between atoms: C_21  and  C_24
REMARK    9  A    between atoms: C_24  and  C_25
REMARK   10  A    between atoms: C_25  and  C_26
REMARK   11  A    between atoms: C_26  and  C_27
REMARK   12  A    between atoms: C_27  and  C_28
REMARK   13  A    between atoms: C_27  and  C_29
REMARK   14  A    between atoms: C_27  and  O_30
REMARK                            x       y       z     vdW  Elec       q    Type
REMARK                         _______ _______ _______ _____ _____    ______ ____
ROOT
ATOM      1  C   UNL     1       1.546  -2.529  -2.618  0.00  0.00    +0.216 C 
ATOM      2  O   UNL     1       1.953  -1.753  -3.456  0.00  0.00    -0.276 OA
ATOM      3  N   UNL     1       1.640  -3.857  -2.827  0.00  0.00    -0.300 N 
ATOM      4  C   UNL     1       1.196  -4.951  -1.931  0.00  0.00    +0.121 C 
ATOM      5  C   UNL     1       0.600  -6.015  -2.880  0.00  0.00    +0.100 C 
ATOM      6  C   UNL     1       1.271  -5.750  -4.238  0.00  0.00    -0.004 C 
ATOM      7  C   UNL     1       2.205  -4.554  -4.007  0.00  0.00    +0.115 C 
ATOM      8  C   UNL     1       0.221  -5.396  -5.286  0.00  0.00    -0.010 C 
ATOM      9  C   UNL     1       0.906  -5.194  -6.640  0.00  0.00    -0.082 C 
ATOM     10  N   UNL     1       1.613  -6.422  -7.022  0.00  0.00    +0.379 N 
ATOM     11  C   UNL     1       2.683  -6.704  -6.057  0.00  0.00    -0.082 C 
ATOM     12  C   UNL     1       2.073  -6.971  -4.678  0.00  0.00    -0.010 C 
ATOM     13  H   UNL     1       0.962  -7.193  -7.035  0.00  0.00    -0.086 HD
ATOM     14  H   UNL     1       2.013  -6.307  -7.941  0.00  0.00    -0.086 HD
ENDROOT
BRANCH   5  15
ATOM     15  C   UNL     1       0.931  -7.401  -2.389  0.00  0.00    +0.218 C 
ATOM     16  O   UNL     1       1.964  -7.599  -1.785  0.00  0.00    -0.275 OA
ATOM     17  N   UNL     1       0.081  -8.420  -2.622  0.00  0.00    -0.312 N 
ATOM     18  H   UNL     1      -0.745  -8.261  -3.106  0.00  0.00    +0.149 HD
BRANCH  17  19
ATOM     19  C   UNL     1       0.403  -9.767  -2.146  0.00  0.00    +0.070 C 
ATOM     20  C   UNL     1       1.296 -10.470  -3.170  0.00  0.00    +0.028 C 
BRANCH  19  21
ATOM     21  C   UNL     1      -0.889 -10.565  -1.961  0.00  0.00    +0.022 C 
BRANCH  21  22
ATOM     22  C   UNL     1      -1.725  -9.931  -0.847  0.00  0.00    +0.005 C 
BRANCH  22  23
ATOM     23  C   UNL     1      -3.017 -10.730  -0.662  0.00  0.00    +0.034 C 
BRANCH  23  24
ATOM     24  C   UNL     1      -3.853 -10.096   0.451  0.00  0.00    +0.061 C 
ATOM     25  C   UNL     1      -5.084 -10.963   0.721  0.00  0.00    +0.041 C 
ATOM     26  C   UNL     1      -3.012  -9.992   1.725  0.00  0.00    +0.041 C 
BRANCH  24  27
ATOM     27  O   UNL     1      -4.271  -8.790   0.048  0.00  0.00    -0.389 OA
ATOM     28  H   UNL     1      -4.806  -8.327   0.707  0.00  0.00    +0.210 HD
ENDBRANCH  24  27
ENDBRANCH  23  24
ENDBRANCH  22  23
ENDBRANCH  21  22
ENDBRANCH  19  21
ENDBRANCH  17  19
ENDBRANCH   5  15
BRANCH   1  29
ATOM     29  C   UNL     1       0.934  -2.008  -1.343  0.00  0.00    +0.096 C 
BRANCH  29  30
ATOM     30  C   UNL     1       0.948  -0.478  -1.358  0.00  0.00    +0.009 C 
BRANCH  30  32
ATOM     31  C   UNL     1       0.342   1.580  -0.079  0.00  0.00    +0.004 C 
ATOM     32  C   UNL     1       0.327   0.050  -0.064  0.00  0.00    -0.003 C 
ENDBRANCH  30  32
ENDBRANCH  29  30
ENDBRANCH   1  29
TORSDOF 10
