REMARK  Name = ZINC67396719
REMARK  7 active torsions:
REMARK  status: ('A' for Active; 'I' for Inactive)
REMARK    1  A    between atoms: C_1  and  C_2
REMARK    2  A    between atoms: C_2  and  C_4
REMARK    3  A    between atoms: C_2  and  N_12
REMARK    4  A    between atoms: C_4  and  C_5
REMARK    5  A    between atoms: C_8  and  O_11
REMARK    6  A    between atoms: C_13  and  C_15
REMARK    7  A    between atoms: N_17  and  C_18
REMARK                            x       y       z     vdW  Elec       q    Type
REMARK                         _______ _______ _______ _____ _____    ______ ____
ROOT
ATOM      1  N   UNL     1       0.684  -0.501  -1.198  0.00  0.00    -0.305 N 
ATOM      2  C   UNL     1       0.003  -0.626  -2.354  0.00  0.00    +0.300 C 
ATOM      3  O   UNL     1      -1.180  -0.356  -2.394  0.00  0.00    -0.265 OA
ATOM      4  H   UNL     1       1.629  -0.716  -1.165  0.00  0.00    +0.149 HD
ENDROOT
BRANCH   2   5
ATOM      5  C   UNL     1       0.704  -1.096  -3.586  0.00  0.00    +0.303 C 
ATOM      6  O   UNL     1       1.887  -1.366  -3.546  0.00  0.00    -0.265 OA
ATOM      7  N   UNL     1       0.024  -1.221  -4.742  0.00  0.00    -0.275 N 
ATOM      8  H   UNL     1      -0.934  -1.069  -4.761  0.00  0.00    +0.155 HD
BRANCH   7   9
ATOM      9  C   UNL     1       0.699  -1.571  -5.917  0.00  0.00    +0.072 A 
ATOM     10  C   UNL     1       1.778  -2.444  -5.865  0.00  0.00    +0.029 A 
ATOM     11  C   UNL     1       2.444  -2.789  -7.025  0.00  0.00    +0.043 A 
ATOM     12  C   UNL     1       2.037  -2.266  -8.241  0.00  0.00    +0.161 A 
ATOM     13  C   UNL     1       0.960  -1.395  -8.298  0.00  0.00    +0.195 A 
ATOM     14  C   UNL     1       0.286  -1.051  -7.139  0.00  0.00    +0.182 A 
ATOM     15  F   UNL     1      -0.767  -0.207  -7.193  0.00  0.00    -0.200 F 
ATOM     16  F   UNL     1       0.566  -0.885  -9.486  0.00  0.00    -0.199 F 
ATOM     17  F   UNL     1       2.691  -2.606  -9.373  0.00  0.00    -0.202 F 
ENDBRANCH   7   9
ENDBRANCH   2   5
BRANCH   1  19
ATOM     18  C   UNL     1      -0.030   1.490   0.031  0.00  0.00    +0.028 C 
ATOM     19  C   UNL     1      -0.004  -0.039   0.011  0.00  0.00    +0.075 C 
BRANCH  19  20
ATOM     20  C   UNL     1       0.737  -0.553   1.247  0.00  0.00    +0.057 C 
BRANCH  20  21
ATOM     21  C   UNL     1       0.656  -2.057   1.292  0.00  0.00    -0.045 A 
ATOM     22  C   UNL     1      -0.396  -2.673   1.945  0.00  0.00    +0.007 A 
ATOM     23  C   UNL     1      -0.472  -4.051   1.988  0.00  0.00    +0.045 A 
ATOM     24  C   UNL     1       0.508  -4.819   1.375  0.00  0.00    +0.117 A 
ATOM     25  C   UNL     1       1.562  -4.199   0.720  0.00  0.00    +0.045 A 
ATOM     26  C   UNL     1       1.631  -2.820   0.676  0.00  0.00    +0.007 A 
BRANCH  24  27
ATOM     27  O   UNL     1       0.436  -6.175   1.417  0.00  0.00    -0.507 OA
ATOM     28  H   UNL     1      -0.052  -6.566   0.679  0.00  0.00    +0.292 HD
ENDBRANCH  24  27
ENDBRANCH  20  21
ENDBRANCH  19  20
ENDBRANCH   1  19
TORSDOF 6
