REMARK  Name = ZINC39681367
REMARK  6 active torsions:
REMARK  status: ('A' for Active; 'I' for Inactive)
REMARK    1  A    between atoms: C_7  and  C_10
REMARK    2  A    between atoms: C_14  and  C_23
REMARK    3  A    between atoms: N_25  and  C_26
REMARK    4  A    between atoms: C_26  and  C_27
REMARK    5  A    between atoms: C_27  and  O_28
REMARK    6  A    between atoms: O_28  and  C_29
REMARK                            x       y       z     vdW  Elec       q    Type
REMARK                         _______ _______ _______ _____ _____    ______ ____
ROOT
ATOM      1  C   UNL     1       0.391  -3.111  -0.017  0.00  0.00    +0.248 C 
ATOM      2  O   UNL     1      -0.757  -2.728   0.100  0.00  0.00    -0.270 OA
ATOM      3  N   UNL     1       0.654  -4.428  -0.129  0.00  0.00    -0.296 N 
ATOM      4  C   UNL     1       1.979  -5.091  -0.156  0.00  0.00    +0.121 C 
ATOM      5  C   UNL     1       1.787  -6.380   0.675  0.00  0.00    +0.100 C 
ATOM      6  C   UNL     1       0.279  -6.671   0.606  0.00  0.00    -0.004 C 
ATOM      7  C   UNL     1      -0.318  -5.542  -0.246  0.00  0.00    +0.115 C 
ATOM      8  C   UNL     1       0.031  -8.023  -0.057  0.00  0.00    -0.010 C 
ATOM      9  C   UNL     1      -1.472  -8.316  -0.061  0.00  0.00    -0.082 C 
ATOM     10  N   UNL     1      -1.975  -8.325   1.318  0.00  0.00    +0.379 N 
ATOM     11  C   UNL     1      -1.817  -6.995   1.918  0.00  0.00    -0.082 C 
ATOM     12  C   UNL     1      -0.328  -6.646   2.006  0.00  0.00    -0.010 C 
ATOM     13  H   UNL     1      -2.951  -8.578   1.317  0.00  0.00    -0.086 HD
ATOM     14  H   UNL     1      -1.456  -9.000   1.859  0.00  0.00    -0.086 HD
ENDROOT
BRANCH   1  21
ATOM     15  C   UNL     1       0.351   0.989   1.833  0.00  0.00    +0.001 A 
ATOM     16  C   UNL     1       1.505   1.749   1.697  0.00  0.00    +0.001 A 
ATOM     17  C   UNL     1       2.589   1.229   1.017  0.00  0.00    +0.015 A 
ATOM     18  C   UNL     1       2.512  -0.040   0.482  0.00  0.00    +0.020 A 
ATOM     19  C   UNL     1       1.354  -0.830   0.606  0.00  0.00    +0.001 A 
ATOM     20  C   UNL     1       0.265  -0.274   1.304  0.00  0.00    +0.010 A 
ATOM     21  C   UNL     1       1.492  -2.139  -0.036  0.00  0.00    +0.052 A 
ATOM     22  C   UNL     1       2.669  -2.426  -0.650  0.00  0.00    +0.059 A 
ATOM     23  S   UNL     1       3.626  -1.066  -0.437  0.00  0.00    -0.096 S 
ENDBRANCH   1  21
BRANCH   5  24
ATOM     24  C   UNL     1       2.571  -7.516   0.070  0.00  0.00    +0.218 C 
ATOM     25  O   UNL     1       2.845  -7.502  -1.111  0.00  0.00    -0.275 OA
ATOM     26  N   UNL     1       2.969  -8.547   0.842  0.00  0.00    -0.312 N 
ATOM     27  H   UNL     1       2.750  -8.558   1.787  0.00  0.00    +0.149 HD
BRANCH  26  28
ATOM     28  C   UNL     1       3.731  -9.651   0.254  0.00  0.00    +0.145 C 
BRANCH  28  29
ATOM     29  C   UNL     1       4.054 -10.682   1.337  0.00  0.00    +0.248 C 
BRANCH  29  30
ATOM     30  O   UNL     1       2.841 -11.270   1.812  0.00  0.00    -0.489 OA
BRANCH  30  31
ATOM     31  C   UNL     1       2.952 -12.214   2.784  0.00  0.00    +0.139 A 
ATOM     32  C   UNL     1       4.201 -12.561   3.275  0.00  0.00    +0.047 A 
ATOM     33  C   UNL     1       4.312 -13.520   4.264  0.00  0.00    +0.004 A 
ATOM     34  C   UNL     1       3.178 -14.133   4.764  0.00  0.00    +0.002 A 
ATOM     35  C   UNL     1       1.931 -13.790   4.276  0.00  0.00    +0.023 A 
ATOM     36  C   UNL     1       1.814 -12.826   3.291  0.00  0.00    +0.083 A 
ATOM     37 CL   UNL     1       0.248 -12.389   2.684  0.00  0.00    -0.080 Cl
ENDBRANCH  30  31
ENDBRANCH  29  30
ENDBRANCH  28  29
ENDBRANCH  26  28
ENDBRANCH   5  24
TORSDOF 6
