REMARK  Name = ZINC53118639
REMARK  8 active torsions:
REMARK  status: ('A' for Active; 'I' for Inactive)
REMARK    1  A    between atoms: C_1  and  C_2
REMARK    2  A    between atoms: C_5  and  C_8
REMARK    3  A    between atoms: C_5  and  N_10
REMARK    4  A    between atoms: C_8  and  O_9
REMARK    5  A    between atoms: N_10  and  C_11
REMARK    6  A    between atoms: C_11  and  C_13
REMARK    7  A    between atoms: C_11  and  C_14
REMARK    8  A    between atoms: N_19  and  C_20
REMARK                            x       y       z     vdW  Elec       q    Type
REMARK                         _______ _______ _______ _____ _____    ______ ____
ROOT
ATOM      1  N   UNL     1      -0.720  -1.901   2.326  0.00  0.00    +0.392 N 
ATOM      2  H   UNL     1      -0.970  -0.947   2.114  0.00  0.00    -0.084 HD
ATOM      3  H   UNL     1      -1.263  -2.527   1.749  0.00  0.00    -0.084 HD
ENDROOT
BRANCH   1   8
ATOM      4  C   UNL     1       0.980   1.905   0.454  0.00  0.00    +0.007 C 
ATOM      5  C   UNL     1       1.386   0.497   0.896  0.00  0.00    -0.014 C 
ATOM      6  C   UNL     1       0.570  -0.537   0.118  0.00  0.00    +0.002 C 
ATOM      7  C   UNL     1       0.976  -1.944   0.560  0.00  0.00    -0.010 C 
ATOM      8  C   UNL     1       0.710  -2.105   2.058  0.00  0.00    -0.044 C 
ATOM      9  C   UNL     1       1.526  -1.071   2.835  0.00  0.00    -0.010 C 
ATOM     10  C   UNL     1       1.120   0.336   2.394  0.00  0.00    +0.002 C 
BRANCH   8  11
ATOM     11  C   UNL     1       1.116  -3.513   2.500  0.00  0.00    +0.143 C 
BRANCH  11  12
ATOM     12  O   UNL     1       2.469  -3.761   2.113  0.00  0.00    -0.396 OA
ATOM     13  H   UNL     1       2.794  -4.637   2.362  0.00  0.00    +0.209 HD
ENDBRANCH  11  12
ENDBRANCH   8  11
ENDBRANCH   1   8
BRANCH   1  14
ATOM     14  C   UNL     1      -0.997  -2.177   3.742  0.00  0.00    +0.014 C 
ATOM     15  C   UNL     1      -2.351  -1.575   4.124  0.00  0.00    -0.004 C 
BRANCH  14  16
ATOM     16  C   UNL     1      -1.029  -3.667   3.967  0.00  0.00    +0.206 C 
ATOM     17  O   UNL     1      -1.405  -4.406   3.082  0.00  0.00    -0.277 OA
ATOM     18  N   UNL     1      -0.639  -4.178   5.151  0.00  0.00    -0.242 N 
ATOM     19  C   UNL     1      -0.668  -5.511   5.353  0.00  0.00    +0.306 C 
ATOM     20  O   UNL     1      -1.045  -6.251   4.466  0.00  0.00    -0.252 OA
ATOM     21  N   UNL     1      -0.278  -6.022   6.537  0.00  0.00    -0.302 N 
ATOM     22  C   UNL     1      -0.308  -7.470   6.756  0.00  0.00    +0.129 C 
ATOM     23  H   UNL     1      -0.338  -3.587   5.859  0.00  0.00    +0.159 HD
ATOM     24  H   UNL     1       0.023  -5.431   7.245  0.00  0.00    +0.150 HD
ENDBRANCH  14  16
ENDBRANCH   1  14
TORSDOF 5
