REMARK  Name = ZINC63340084
REMARK  8 active torsions:
REMARK  status: ('A' for Active; 'I' for Inactive)
REMARK    1  A    between atoms: C_1  and  C_2
REMARK    2  A    between atoms: C_4  and  C_15
REMARK    3  A    between atoms: N_7  and  C_9
REMARK    4  A    between atoms: N_17  and  C_18
REMARK    5  A    between atoms: C_18  and  C_19
REMARK    6  A    between atoms: C_19  and  C_20
REMARK    7  A    between atoms: C_23  and  O_29
REMARK    8  A    between atoms: O_29  and  C_30
REMARK                            x       y       z     vdW  Elec       q    Type
REMARK                         _______ _______ _______ _____ _____    ______ ____
ROOT
ATOM      1  C   UNL     1       1.923   0.381  -1.593  0.00  0.00    +0.233 C 
ATOM      2  O   UNL     1       3.056   0.125  -1.243  0.00  0.00    -0.274 OA
ATOM      3  N   UNL     1       1.675   1.492  -2.313  0.00  0.00    -0.314 N 
ATOM      4  H   UNL     1       0.769   1.697  -2.593  0.00  0.00    +0.149 HD
ENDROOT
BRANCH   1   7
ATOM      5  C   UNL     1      -0.019   1.526   0.010  0.00  0.00    +0.028 C 
ATOM      6  C   UNL     1       0.002  -0.004   0.002  0.00  0.00    +0.099 C 
ATOM      7  C   UNL     1       0.792  -0.544  -1.221  0.00  0.00    +0.178 C 
ATOM      8  N   UNL     1       1.304  -1.825  -0.662  0.00  0.00    -0.212 NA
ATOM      9  N   UNL     1       1.562  -1.570   0.660  0.00  0.00    -0.200 N 
ATOM     10  N   UNL     1       0.807  -0.532   1.131  0.00  0.00    -0.221 NA
ATOM     11  H   UNL     1       0.620  -2.561  -0.761  0.00  0.00    +0.147 HD
ATOM     12  H   UNL     1       0.213  -0.831   1.890  0.00  0.00    +0.146 HD
BRANCH   9  13
ATOM     13  C   UNL     1       2.484  -2.282   1.431  0.00  0.00    +0.062 A 
ATOM     14  C   UNL     1       2.675  -1.954   2.767  0.00  0.00    +0.026 A 
ATOM     15  C   UNL     1       3.586  -2.661   3.527  0.00  0.00    +0.002 A 
ATOM     16  C   UNL     1       4.309  -3.694   2.958  0.00  0.00    +0.000 A 
ATOM     17  C   UNL     1       4.121  -4.023   1.629  0.00  0.00    +0.002 A 
ATOM     18  C   UNL     1       3.207  -3.324   0.865  0.00  0.00    +0.026 A 
ENDBRANCH   9  13
ENDBRANCH   1   7
BRANCH   3  19
ATOM     19  C   UNL     1       2.774   2.391  -2.674  0.00  0.00    +0.108 C 
BRANCH  19  20
ATOM     20  C   UNL     1       2.226   3.567  -3.486  0.00  0.00    +0.052 C 
BRANCH  20  21
ATOM     21  C   UNL     1       3.357   4.492  -3.857  0.00  0.00    -0.040 C 
ATOM     22  C   UNL     1       4.058   4.495  -5.013  0.00  0.00    +0.002 A 
ATOM     23  C   UNL     1       3.982   3.672  -6.225  0.00  0.00    +0.055 A 
ATOM     24  C   UNL     1       4.836   3.913  -7.249  0.00  0.00    +0.121 A 
ATOM     25  C   UNL     1       5.804   4.931  -7.196  0.00  0.00    +0.047 A 
ATOM     26  C   UNL     1       5.950   5.740  -6.125  0.00  0.00    +0.029 A 
ATOM     27  C   UNL     1       5.077   5.568  -4.959  0.00  0.00    +0.043 A 
ATOM     28  N   UNL     1       5.009   6.202  -3.815  0.00  0.00    -0.380 N 
ATOM     29  C   UNL     1       3.933   5.607  -3.014  0.00  0.00    +0.144 C 
ATOM     30  H   UNL     1       5.573   6.944  -3.544  0.00  0.00    +0.160 HD
BRANCH  24  31
ATOM     31  O   UNL     1       4.756   3.142  -8.366  0.00  0.00    -0.495 OA
ATOM     32  C   UNL     1       5.675   3.430  -9.421  0.00  0.00    +0.277 C 
ENDBRANCH  24  31
ENDBRANCH  20  21
ENDBRANCH  19  20
ENDBRANCH   3  19
TORSDOF 6
