REMARK  Name = ZINC36207621
REMARK  15 active torsions:
REMARK  status: ('A' for Active; 'I' for Inactive)
REMARK    1  A    between atoms: C_1  and  C_2
REMARK    2  A    between atoms: C_2  and  C_3
REMARK    3  A    between atoms: C_2  and  C_4
REMARK    4  A    between atoms: C_4  and  C_5
REMARK    5  A    between atoms: C_5  and  N_6
REMARK    6  A    between atoms: N_6  and  C_7
REMARK    7  A    between atoms: N_6  and  C_25
REMARK    8  A    between atoms: C_7  and  C_8
REMARK    9  A    between atoms: C_14  and  C_19
REMARK   10  A    between atoms: C_25  and  C_26
REMARK   11  A    between atoms: C_26  and  C_28
REMARK   12  A    between atoms: C_26  and  O_33
REMARK   13  A    between atoms: C_28  and  O_29
REMARK   14  A    between atoms: O_29  and  C_30
REMARK   15  A    between atoms: C_30  and  C_31
REMARK                            x       y       z     vdW  Elec       q    Type
REMARK                         _______ _______ _______ _____ _____    ______ ____
ROOT
ATOM      1  C   UNL     1      -3.642  -1.991  -0.986  0.00  0.00    -0.003 C 
ENDROOT
BRANCH   1   2
ATOM      2  C   UNL     1      -3.729  -0.491  -0.870  0.00  0.00    +0.094 A 
ATOM      3  N   UNL     1      -4.445   0.208  -1.788  0.00  0.00    -0.312 N 
ATOM      4  H   UNL     1      -4.890  -0.267  -2.506  0.00  0.00    +0.170 HD
ATOM      5  C   UNL     1      -4.548   1.548  -1.720  0.00  0.00    +0.260 A 
ATOM      6  O   UNL     1      -5.195   2.162  -2.551  0.00  0.00    -0.267 OA
ATOM      7  C   UNL     1      -3.888   2.242  -0.656  0.00  0.00    +0.080 A 
ATOM      8  C   UNL     1      -3.851   3.671  -0.370  0.00  0.00    +0.004 A 
ATOM      9  C   UNL     1      -3.151   4.102   0.708  0.00  0.00    +0.056 A 
ATOM     10  S   UNL     1      -2.498   2.597   1.404  0.00  0.00    -0.076 S 
ATOM     11  C   UNL     1      -3.172   1.436   0.244  0.00  0.00    +0.116 A 
ATOM     12  N   UNL     1      -3.120   0.113   0.115  0.00  0.00    -0.229 NA
BRANCH   8  13
ATOM     13  C   UNL     1      -4.564   4.635  -1.241  0.00  0.00    -0.017 A 
ATOM     14  C   UNL     1      -4.393   4.587  -2.624  0.00  0.00    +0.008 A 
ATOM     15  C   UNL     1      -5.060   5.486  -3.431  0.00  0.00    +0.001 A 
ATOM     16  C   UNL     1      -5.897   6.434  -2.870  0.00  0.00    +0.000 A 
ATOM     17  C   UNL     1      -6.070   6.487  -1.498  0.00  0.00    +0.001 A 
ATOM     18  C   UNL     1      -5.413   5.589  -0.682  0.00  0.00    +0.008 A 
ENDBRANCH   8  13
ENDBRANCH   1   2
BRANCH   1  19
ATOM     19  N   UNL     1      -2.708  -2.507   0.024  0.00  0.00    +0.386 N 
ATOM     20  H   UNL     1      -2.982  -2.174   0.936  0.00  0.00    -0.081 HD
BRANCH  19  21
ATOM     21  C   UNL     1      -1.350  -2.038  -0.280  0.00  0.00    -0.078 C 
BRANCH  21  22
ATOM     22  C   UNL     1      -0.881  -2.653  -1.600  0.00  0.00    -0.016 C 
BRANCH  22  24
ATOM     23  C   UNL     1       1.011  -2.784  -3.226  0.00  0.00    +0.007 C 
ATOM     24  C   UNL     1       0.487  -2.078  -1.974  0.00  0.00    -0.019 C 
ATOM     25  C   UNL     1       0.352  -0.580  -2.251  0.00  0.00    +0.007 C 
ENDBRANCH  22  24
ENDBRANCH  21  22
ENDBRANCH  19  21
BRANCH  19  26
ATOM     26  C   UNL     1      -2.733  -3.975   0.010  0.00  0.00    -0.044 C 
BRANCH  26  27
ATOM     27  C   UNL     1      -1.897  -4.511   1.174  0.00  0.00    +0.124 C 
BRANCH  27  28
ATOM     28  O   UNL     1      -0.521  -4.191   0.958  0.00  0.00    -0.391 OA
ATOM     29  H   UNL     1      -0.153  -4.566   0.146  0.00  0.00    +0.210 HD
ENDBRANCH  27  28
BRANCH  27  30
ATOM     30  C   UNL     1      -2.060  -6.030   1.262  0.00  0.00    +0.190 C 
BRANCH  30  31
ATOM     31  O   UNL     1      -1.373  -6.516   2.417  0.00  0.00    -0.365 OA
BRANCH  31  32
ATOM     32  C   UNL     1      -1.463  -7.931   2.594  0.00  0.00    +0.248 C 
BRANCH  32  33
ATOM     33  C   UNL     1      -0.724  -8.322   3.806  0.00  0.00    -0.077 C 
ATOM     34  C   UNL     1      -0.136  -8.634   4.773  0.00  0.00    +0.006 C 
ENDBRANCH  32  33
ENDBRANCH  31  32
ENDBRANCH  30  31
ENDBRANCH  27  30
ENDBRANCH  26  27
ENDBRANCH  19  26
ENDBRANCH   1  19
TORSDOF 13
