REMARK  Name = ZINC66244549
REMARK  5 active torsions:
REMARK  status: ('A' for Active; 'I' for Inactive)
REMARK    1  A    between atoms: C_6  and  C_7
REMARK    2  A    between atoms: C_7  and  C_11
REMARK    3  A    between atoms: C_11  and  N_12
REMARK    4  A    between atoms: N_14  and  C_15
REMARK    5  A    between atoms: C_15  and  C_16
REMARK                            x       y       z     vdW  Elec       q    Type
REMARK                         _______ _______ _______ _____ _____    ______ ____
ROOT
ATOM      1  N   UNL     1      -2.457   1.075   1.108  0.00  0.00    -0.357 N 
ATOM      2  C   UNL     1      -3.179   1.688   2.104  0.00  0.00    +0.169 C 
ATOM      3  N   UNL     1      -3.391   2.974   2.058  0.00  0.00    -0.355 N 
ATOM      4  N   UNL     1      -3.677   0.946   3.148  0.00  0.00    -0.371 N 
ATOM      5  H   UNL     1      -2.105   1.599   0.371  0.00  0.00    +0.162 HD
ATOM      6  H   UNL     1      -3.519  -0.010   3.183  0.00  0.00    +0.159 HD
ATOM      7  H   UNL     1      -4.187   1.379   3.851  0.00  0.00    +0.159 HD
ATOM      8  H   UNL     1      -3.039   3.497   1.321  0.00  0.00    +0.162 HD
ENDROOT
BRANCH   1   9
ATOM      9  C   UNL     1      -2.218  -0.370   1.159  0.00  0.00    +0.127 C 
BRANCH   9  10
ATOM     10  C   UNL     1      -1.295  -0.775   0.008  0.00  0.00    +0.013 C 
ATOM     11  C   UNL     1      -1.931  -0.607  -1.382  0.00  0.00    +0.013 C 
ATOM     12  C   UNL     1      -2.459  -2.043  -1.229  0.00  0.00    +0.002 C 
ATOM     13  C   UNL     1      -1.284  -2.288  -0.268  0.00  0.00    +0.013 C 
BRANCH  10  19
ATOM     14  C   UNL     1       0.993  -0.693   1.020  0.00  0.00    +0.005 A 
ATOM     15  C   UNL     1       2.255  -0.139   1.123  0.00  0.00    +0.015 A 
ATOM     16  C   UNL     1       2.606   0.936   0.327  0.00  0.00    +0.018 A 
ATOM     17  C   UNL     1       1.693   1.457  -0.572  0.00  0.00    +0.015 A 
ATOM     18  C   UNL     1       0.431   0.903  -0.675  0.00  0.00    +0.005 A 
ATOM     19  C   UNL     1       0.081  -0.172   0.121  0.00  0.00    -0.039 A 
ATOM     20 BR   UNL     1       4.332   1.694   0.469  0.00  0.00    -0.050 Br
ENDBRANCH  10  19
ENDBRANCH   9  10
ENDBRANCH   1   9
BRANCH   3  21
ATOM     21  C   UNL     1      -4.161   3.627   3.120  0.00  0.00    +0.147 C 
BRANCH  21  22
ATOM     22  C   UNL     1      -4.262   5.126   2.827  0.00  0.00    +0.137 C 
ATOM     23  C   UNL     1      -4.966   5.841   4.000  0.00  0.00    +0.035 C 
ATOM     24  C   UNL     1      -5.854   6.883   3.265  0.00  0.00    +0.031 C 
ATOM     25  C   UNL     1      -6.227   6.098   1.982  0.00  0.00    +0.160 C 
ATOM     26  O   UNL     1      -5.051   5.339   1.651  0.00  0.00    -0.375 OA
ENDBRANCH  21  22
ENDBRANCH   3  21
TORSDOF 5
