REMARK  Name = ZINC07872586
REMARK  12 active torsions:
REMARK  status: ('A' for Active; 'I' for Inactive)
REMARK    1  A    between atoms: C_1  and  C_2
REMARK    2  A    between atoms: C_2  and  C_3
REMARK    3  A    between atoms: C_6  and  C_9
REMARK    4  A    between atoms: C_9  and  C_11
REMARK    5  A    between atoms: C_9  and  N_14
REMARK    6  A    between atoms: C_11  and  C_12
REMARK    7  A    between atoms: C_11  and  C_13
REMARK    8  A    between atoms: N_14  and  C_15
REMARK    9  A    between atoms: C_15  and  C_16
REMARK   10  A    between atoms: N_18  and  C_19
REMARK   11  A    between atoms: C_23  and  S_25
REMARK   12  A    between atoms: S_25  and  N_28
REMARK                            x       y       z     vdW  Elec       q    Type
REMARK                         _______ _______ _______ _____ _____    ______ ____
ROOT
ATOM      1  C   UNL     1       1.788  -4.066   4.563  0.00  0.00    +0.016 C 
ENDROOT
BRANCH   1   2
ATOM      2  C   UNL     1       1.022  -5.116   5.327  0.00  0.00    +0.200 C 
ATOM      3  O   UNL     1       0.597  -4.870   6.436  0.00  0.00    -0.278 OA
ATOM      4  N   UNL     1       0.811  -6.329   4.778  0.00  0.00    -0.287 N 
ATOM      5  H   UNL     1       1.214  -6.551   3.924  0.00  0.00    +0.155 HD
BRANCH   4   6
ATOM      6  C   UNL     1       0.010  -7.266   5.439  0.00  0.00    +0.035 A 
ATOM      7  C   UNL     1       0.312  -8.620   5.358  0.00  0.00    +0.023 A 
ATOM      8  C   UNL     1      -0.481  -9.543   6.012  0.00  0.00    +0.004 A 
ATOM      9  C   UNL     1      -1.574  -9.120   6.747  0.00  0.00    +0.028 A 
ATOM     10  C   UNL     1      -1.877  -7.774   6.829  0.00  0.00    +0.107 A 
ATOM     11  C   UNL     1      -1.085  -6.845   6.183  0.00  0.00    +0.051 A 
BRANCH  10  12
ATOM     12  S   UNL     1      -3.271  -7.242   7.766  0.00  0.00    +0.056 S 
ATOM     13  O   UNL     1      -3.657  -5.980   7.238  0.00  0.00    -0.153 OA
ATOM     14  O   UNL     1      -4.163  -8.346   7.830  0.00  0.00    -0.153 OA
BRANCH  12  15
ATOM     15  N   UNL     1      -2.746  -6.967   9.312  0.00  0.00    -0.204 NA
ATOM     16  H   UNL     1      -3.180  -6.294   9.860  0.00  0.00    +0.144 HD
ATOM     17  H   UNL     1      -2.003  -7.478   9.670  0.00  0.00    +0.144 HD
ENDBRANCH  12  15
ENDBRANCH  10  12
ENDBRANCH   4   6
ENDBRANCH   1   2
BRANCH   1  18
ATOM     18  N   UNL     1       1.881  -2.844   5.372  0.00  0.00    +0.389 N 
ATOM     19  H   UNL     1       2.287  -3.064   6.269  0.00  0.00    -0.084 HD
ATOM     20  H   UNL     1       0.959  -2.457   5.506  0.00  0.00    -0.084 HD
BRANCH  18  21
ATOM     21  C   UNL     1       2.727  -1.862   4.680  0.00  0.00    -0.038 C 
BRANCH  21  25
ATOM     22  C   UNL     1       0.845  -0.685   1.030  0.00  0.00    -0.048 A 
ATOM     23  C   UNL     1       2.213  -0.885   1.070  0.00  0.00    +0.004 A 
ATOM     24  C   UNL     1       2.822  -1.266   2.251  0.00  0.00    +0.002 A 
ATOM     25  C   UNL     1       2.063  -1.446   3.393  0.00  0.00    -0.061 A 
ATOM     26  C   UNL     1       0.696  -1.245   3.353  0.00  0.00    +0.002 A 
ATOM     27  C   UNL     1       0.088  -0.860   2.173  0.00  0.00    +0.004 A 
BRANCH  22  29
ATOM     28  C   UNL     1       0.156   1.257  -0.349  0.00  0.00    +0.009 C 
ATOM     29  C   UNL     1       0.181  -0.270  -0.257  0.00  0.00    +0.032 C 
ENDBRANCH  22  29
ENDBRANCH  21  25
BRANCH  21  30
ATOM     30  C   UNL     1       2.921  -0.635   5.574  0.00  0.00    -0.027 C 
ATOM     31  C   UNL     1       3.498  -1.072   6.921  0.00  0.00    +0.006 C 
ATOM     32  C   UNL     1       3.886   0.341   4.898  0.00  0.00    +0.006 C 
ENDBRANCH  21  30
ENDBRANCH  18  21
ENDBRANCH   1  18
TORSDOF 9
