REMARK  Name = ZINC36369753
REMARK  13 active torsions:
REMARK  status: ('A' for Active; 'I' for Inactive)
REMARK    1  A    between atoms: C_4  and  C_7
REMARK    2  A    between atoms: C_11  and  C_32
REMARK    3  A    between atoms: C_12  and  O_13
REMARK    4  A    between atoms: C_17  and  C_18
REMARK    5  A    between atoms: C_18  and  C_20
REMARK    6  A    between atoms: C_18  and  O_31
REMARK    7  A    between atoms: C_20  and  C_22
REMARK    8  A    between atoms: C_20  and  O_30
REMARK    9  A    between atoms: C_22  and  C_24
REMARK   10  A    between atoms: C_22  and  O_29
REMARK   11  A    between atoms: C_24  and  C_26
REMARK   12  A    between atoms: C_24  and  O_28
REMARK   13  A    between atoms: C_26  and  O_27
REMARK                            x       y       z     vdW  Elec       q    Type
REMARK                         _______ _______ _______ _____ _____    ______ ____
ROOT
ATOM      1  C   UNL     1       3.697  -0.703  -0.021  0.00  0.00    +0.021 C 
ATOM      2  C   UNL     1       4.521  -0.346   1.221  0.00  0.00    -0.061 C 
ATOM      3  N   UNL     1       5.814  -1.034   1.168  0.00  0.00    +0.393 N 
ATOM      4  C   UNL     1       5.617  -2.487   1.189  0.00  0.00    -0.061 C 
ATOM      5  C   UNL     1       4.831  -2.918  -0.054  0.00  0.00    +0.021 C 
ATOM      6  C   UNL     1       3.465  -2.219  -0.039  0.00  0.00    +0.134 C 
ATOM      7  C   UNL     1       5.601  -2.467  -1.301  0.00  0.00    +0.095 C 
ATOM      8  N   UNL     1       5.793  -1.010  -1.239  0.00  0.00    -0.311 NA
ATOM      9  C   UNL     1       4.482  -0.312  -1.280  0.00  0.00    +0.095 C 
ATOM     10  C   UNL     1       6.551  -0.639  -0.036  0.00  0.00    +0.034 C 
ATOM     11  H   UNL     1       6.355  -0.777   1.980  0.00  0.00    -0.079 HD
ENDROOT
BRANCH   1  15
ATOM     12  C   UNL     1      -0.048   1.351   0.064  0.00  0.00    +0.000 A 
ATOM     13  C   UNL     1       1.134   2.068   0.057  0.00  0.00    +0.000 A 
ATOM     14  C   UNL     1       2.346   1.403   0.030  0.00  0.00    +0.004 A 
ATOM     15  C   UNL     1       2.376   0.022   0.009  0.00  0.00    -0.039 A 
ATOM     16  C   UNL     1       1.195  -0.696   0.017  0.00  0.00    +0.004 A 
ATOM     17  C   UNL     1      -0.017  -0.031   0.043  0.00  0.00    +0.000 A 
ENDBRANCH   1  15
BRANCH   5  18
ATOM     18  C   UNL     1       4.646  -4.413  -0.056  0.00  0.00    -0.039 A 
ATOM     19  C   UNL     1       5.064  -5.160  -1.141  0.00  0.00    +0.004 A 
ATOM     20  C   UNL     1       4.895  -6.532  -1.143  0.00  0.00    +0.000 A 
ATOM     21  C   UNL     1       4.307  -7.157  -0.059  0.00  0.00    +0.000 A 
ATOM     22  C   UNL     1       3.890  -6.410   1.027  0.00  0.00    +0.000 A 
ATOM     23  C   UNL     1       4.063  -5.039   1.030  0.00  0.00    +0.004 A 
ENDBRANCH   5  18
BRANCH   6  24
ATOM     24  O   UNL     1       2.714  -2.577  -1.201  0.00  0.00    -0.390 OA
ATOM     25  H   UNL     1       2.456  -3.509  -1.231  0.00  0.00    +0.210 HD
ENDBRANCH   6  24
BRANCH  10  26
ATOM     26  C   UNL     1       6.771   0.875  -0.022  0.00  0.00    +0.146 C 
BRANCH  26  27
ATOM     27  O   UNL     1       7.619   1.223   1.073  0.00  0.00    -0.390 OA
ATOM     28  H   UNL     1       8.492   0.809   1.042  0.00  0.00    +0.210 HD
ENDBRANCH  26  27
BRANCH  26  29
ATOM     29  C   UNL     1       7.428   1.307  -1.334  0.00  0.00    +0.173 C 
BRANCH  29  30
ATOM     30  O   UNL     1       8.629   0.559  -1.534  0.00  0.00    -0.387 OA
ATOM     31  H   UNL     1       9.286   0.675  -0.834  0.00  0.00    +0.210 HD
ENDBRANCH  29  30
BRANCH  29  32
ATOM     32  C   UNL     1       7.761   2.799  -1.271  0.00  0.00    +0.176 C 
BRANCH  32  33
ATOM     33  O   UNL     1       6.560   3.547  -1.071  0.00  0.00    -0.387 OA
ATOM     34  H   UNL     1       5.903   3.431  -1.771  0.00  0.00    +0.210 HD
ENDBRANCH  32  33
BRANCH  32  35
ATOM     35  C   UNL     1       8.419   3.231  -2.583  0.00  0.00    +0.171 C 
BRANCH  35  36
ATOM     36  O   UNL     1       9.620   2.483  -2.783  0.00  0.00    -0.387 OA
ATOM     37  H   UNL     1      10.277   2.599  -2.083  0.00  0.00    +0.210 HD
ENDBRANCH  35  36
BRANCH  35  38
ATOM     38  C   UNL     1       8.752   4.723  -2.519  0.00  0.00    +0.189 C 
BRANCH  38  39
ATOM     39  O   UNL     1       9.258   5.153  -3.785  0.00  0.00    -0.392 OA
ATOM     40  H   UNL     1       9.491   6.091  -3.817  0.00  0.00    +0.210 HD
ENDBRANCH  38  39
ENDBRANCH  35  38
ENDBRANCH  32  35
ENDBRANCH  29  32
ENDBRANCH  26  29
ENDBRANCH  10  26
TORSDOF 13
