REMARK  Name = ZINC36342407
REMARK  12 active torsions:
REMARK  status: ('A' for Active; 'I' for Inactive)
REMARK    1  A    between atoms: C_1  and  O_2
REMARK    2  A    between atoms: O_2  and  C_3
REMARK    3  A    between atoms: C_6  and  O_38
REMARK    4  A    between atoms: C_7  and  C_9
REMARK    5  A    between atoms: C_12  and  C_28
REMARK    6  A    between atoms: C_15  and  C_17
REMARK    7  A    between atoms: C_17  and  N_18
REMARK    8  A    between atoms: C_31  and  O_36
REMARK    9  A    between atoms: C_33  and  O_34
REMARK   10  A    between atoms: O_34  and  C_35
REMARK   11  A    between atoms: O_36  and  C_37
REMARK   12  A    between atoms: O_38  and  C_39
REMARK                            x       y       z     vdW  Elec       q    Type
REMARK                         _______ _______ _______ _____ _____    ______ ____
ROOT
ATOM      1  C   UNL     1       1.323  -4.108  -2.285  0.00  0.00    +0.140 C 
ATOM      2  C   UNL     1       2.631  -4.638  -1.666  0.00  0.00    +0.087 C 
ATOM      3  C   UNL     1       2.166  -5.502  -0.515  0.00  0.00    +0.072 C 
ATOM      4  N   UNL     1       0.879  -5.490  -0.461  0.00  0.00    -0.181 NA
ATOM      5  N   UNL     1       0.273  -4.709  -1.448  0.00  0.00    -0.187 N 
ATOM      6  C   UNL     1      -1.054  -4.533  -1.609  0.00  0.00    +0.219 C 
ATOM      7  O   UNL     1      -1.468  -3.828  -2.505  0.00  0.00    -0.276 OA
ENDROOT
BRANCH   1  12
ATOM      8  C   UNL     1       0.606  -0.608  -1.056  0.00  0.00    +0.121 A 
ATOM      9  C   UNL     1       1.173   0.161  -2.062  0.00  0.00    +0.049 A 
ATOM     10  C   UNL     1       1.786  -0.452  -3.138  0.00  0.00    +0.049 A 
ATOM     11  C   UNL     1       1.835  -1.836  -3.211  0.00  0.00    +0.125 A 
ATOM     12  C   UNL     1       1.269  -2.604  -2.205  0.00  0.00    +0.020 A 
ATOM     13  C   UNL     1       0.661  -1.991  -1.127  0.00  0.00    +0.054 A 
BRANCH   8  15
ATOM     14  C   UNL     1      -0.017   1.425   0.010  0.00  0.00    +0.277 C 
ATOM     15  O   UNL     1       0.002  -0.004   0.002  0.00  0.00    -0.495 OA
ENDBRANCH   8  15
BRANCH  11  16
ATOM     16  O   UNL     1       2.439  -2.439  -4.270  0.00  0.00    -0.495 OA
ATOM     17  C   UNL     1       3.000  -1.586  -5.269  0.00  0.00    +0.277 C 
ENDBRANCH  11  16
ENDBRANCH   1  12
BRANCH   3  18
ATOM     18  C   UNL     1       3.049  -6.243   0.402  0.00  0.00    +0.040 A 
ATOM     19  C   UNL     1       4.436  -6.176   0.248  0.00  0.00    +0.017 A 
ATOM     20  C   UNL     1       5.258  -6.871   1.108  0.00  0.00    +0.046 A 
ATOM     21  C   UNL     1       4.712  -7.640   2.130  0.00  0.00    +0.124 A 
ATOM     22  C   UNL     1       3.336  -7.713   2.291  0.00  0.00    +0.091 A 
ATOM     23  C   UNL     1       2.500  -7.014   1.437  0.00  0.00    +0.132 A 
BRANCH  23  24
ATOM     24  O   UNL     1       1.153  -7.080   1.597  0.00  0.00    -0.494 OA
ATOM     25  C   UNL     1       0.666  -7.885   2.673  0.00  0.00    +0.277 C 
ENDBRANCH  23  24
BRANCH  21  26
ATOM     26  O   UNL     1       5.529  -8.323   2.973  0.00  0.00    -0.495 OA
ATOM     27  C   UNL     1       6.935  -8.204   2.751  0.00  0.00    +0.277 C 
ENDBRANCH  21  26
ENDBRANCH   3  18
BRANCH   6  28
ATOM     28  C   UNL     1      -2.023  -5.212  -0.675  0.00  0.00    +0.021 C 
BRANCH  28  29
ATOM     29  N   UNL     1      -3.397  -4.863  -1.057  0.00  0.00    +0.386 N 
ATOM     30  C   UNL     1      -3.685  -5.404  -2.391  0.00  0.00    -0.073 C 
ATOM     31  C   UNL     1      -5.086  -4.971  -2.830  0.00  0.00    +0.046 C 
ATOM     32  C   UNL     1      -6.113  -5.496  -1.825  0.00  0.00    +0.167 C 
ATOM     33  C   UNL     1      -5.761  -4.994  -0.423  0.00  0.00    +0.046 C 
ATOM     34  C   UNL     1      -4.334  -5.426  -0.077  0.00  0.00    -0.073 C 
ATOM     35  O   UNL     1      -7.422  -5.027  -2.187  0.00  0.00    -0.346 OA
ATOM     36  C   UNL     1      -8.002  -6.109  -2.956  0.00  0.00    +0.191 C 
ATOM     37  C   UNL     1      -7.435  -7.353  -2.228  0.00  0.00    +0.191 C 
ATOM     38  O   UNL     1      -6.113  -6.929  -1.838  0.00  0.00    -0.346 OA
ATOM     39  H   UNL     1      -3.496  -3.859  -1.076  0.00  0.00    -0.081 HD
ENDBRANCH  28  29
ENDBRANCH   6  28
TORSDOF 8
