REMARK  Name = ZINC40713444
REMARK  2 active torsions:
REMARK  status: ('A' for Active; 'I' for Inactive)
REMARK    1  A    between atoms: C_6  and  N_7
REMARK    2  A    between atoms: N_10  and  C_11
REMARK                            x       y       z     vdW  Elec       q    Type
REMARK                         _______ _______ _______ _____ _____    ______ ____
ROOT
ATOM      1  C   UNL     1       0.023   1.391   0.275  0.00  0.00    +0.053 A 
ATOM      2  C   UNL     1       1.221   2.057   0.045  0.00  0.00    +0.038 A 
ATOM      3  C   UNL     1       2.359   1.325  -0.231  0.00  0.00    +0.128 A 
ATOM      4  N   UNL     1       2.321   0.007  -0.279  0.00  0.00    -0.237 NA
ATOM      5  C   UNL     1       1.199  -0.663  -0.065  0.00  0.00    +0.149 A 
ATOM      6  C   UNL     1       0.015   0.009   0.219  0.00  0.00    +0.167 A 
ATOM      7  N   UNL     1       1.205  -2.053  -0.125  0.00  0.00    -0.324 N 
ATOM      8 BR   UNL     1       1.292   3.946   0.109  0.00  0.00    -0.049 Br
ATOM      9  H   UNL     1       0.372  -2.545  -0.048  0.00  0.00    +0.148 HD
ENDROOT
BRANCH   7  10
ATOM     10  C   UNL     1       2.467  -2.773  -0.306  0.00  0.00    +0.075 C 
ATOM     11  C   UNL     1       2.707  -4.006   0.568  0.00  0.00    -0.005 C 
ATOM     12  C   UNL     1       2.401  -4.165  -0.936  0.00  0.00    -0.005 C 
ATOM     13  C   UNL     1       3.692  -4.750  -1.548  0.00  0.00    -0.077 C 
ATOM     14  N   UNL     1       4.374  -5.423  -0.412  0.00  0.00    +0.380 N 
ATOM     15  C   UNL     1       4.161  -4.486   0.767  0.00  0.00    -0.077 C 
ATOM     16  H   UNL     1       3.954  -6.322  -0.232  0.00  0.00    -0.086 HD
ATOM     17  H   UNL     1       5.360  -5.524  -0.602  0.00  0.00    -0.086 HD
ENDBRANCH   7  10
BRANCH   6  18
ATOM     18  N   UNL     1      -1.237  -0.743   0.458  0.00  0.00    +0.060 N 
ATOM     19  O   UNL     1      -2.290  -0.310   0.052  0.00  0.00    -0.126 OA
ATOM     20  O   UNL     1      -1.206  -1.792   1.059  0.00  0.00    -0.126 OA
ENDBRANCH   6  18
TORSDOF 2
