REMARK  Name = ZINC15707619
REMARK  7 active torsions:
REMARK  status: ('A' for Active; 'I' for Inactive)
REMARK    1  A    between atoms: C_10  and  C_12
REMARK    2  A    between atoms: C_12  and  C_13
REMARK    3  A    between atoms: C_13  and  C_14
REMARK    4  A    between atoms: C_23  and  N_26
REMARK    5  A    between atoms: N_26  and  C_27
REMARK    6  A    between atoms: C_27  and  N_29
REMARK    7  A    between atoms: N_29  and  C_30
REMARK                            x       y       z     vdW  Elec       q    Type
REMARK                         _______ _______ _______ _____ _____    ______ ____
ROOT
ATOM      1  C   UNL     1       6.563   1.510  -0.402  0.00  0.00    -0.050 C 
ATOM      2  C   UNL     1       8.087   1.329  -0.350  0.00  0.00    +0.089 C 
ATOM      3  N   UNL     1       8.488  -0.041  -0.644  0.00  0.00    -0.318 N 
ATOM      4  C   UNL     1       7.663  -0.994  -1.118  0.00  0.00    +0.200 C 
ATOM      5  O   UNL     1       8.098  -2.080  -1.439  0.00  0.00    -0.278 OA
ATOM      6  C   UNL     1       6.205  -0.697  -1.243  0.00  0.00    +0.021 C 
ATOM      7  C   UNL     1       4.665   0.894  -1.935  0.00  0.00    -0.055 C 
ATOM      8  C   UNL     1       4.414  -0.343  -2.841  0.00  0.00    +0.054 C 
ATOM      9  C   UNL     1       5.485  -1.379  -2.406  0.00  0.00    +0.014 C 
ATOM     10  H   UNL     1       9.414  -0.283  -0.487  0.00  0.00    +0.149 HD
ATOM     11  N   UNL     1       6.086   0.689  -1.575  0.00  0.00    +0.391 N 
ATOM     12  H   UNL     1       6.672   0.911  -2.388  0.00  0.00    -0.080 HD
ENDROOT
BRANCH   8  13
ATOM     13  N   UNL     1       4.592   0.011  -4.252  0.00  0.00    -0.325 N 
ATOM     14  H   UNL     1       5.462  -0.082  -4.669  0.00  0.00    +0.148 HD
BRANCH  13  15
ATOM     15  C   UNL     1       3.545   0.465  -4.970  0.00  0.00    +0.135 C 
ATOM     16  S   UNL     1       2.008   0.628  -4.233  0.00  0.00    -0.019 S 
BRANCH  15  17
ATOM     17  N   UNL     1       3.708   0.790  -6.267  0.00  0.00    -0.297 N 
ATOM     18  H   UNL     1       4.556   0.620  -6.707  0.00  0.00    +0.154 HD
BRANCH  17  19
ATOM     19  C   UNL     1       2.655   1.374  -6.980  0.00  0.00    +0.033 A 
ATOM     20  C   UNL     1       2.400   0.984  -8.288  0.00  0.00    +0.025 A 
ATOM     21  C   UNL     1       1.357   1.558  -8.988  0.00  0.00    +0.022 A 
ATOM     22  C   UNL     1       0.572   2.528  -8.390  0.00  0.00    +0.041 A 
ATOM     23  C   UNL     1       0.827   2.922  -7.088  0.00  0.00    +0.022 A 
ATOM     24  C   UNL     1       1.865   2.348  -6.382  0.00  0.00    +0.025 A 
ATOM     25 CL   UNL     1      -0.734   3.253  -9.275  0.00  0.00    -0.084 Cl
ENDBRANCH  17  19
ENDBRANCH  15  17
ENDBRANCH  13  15
ENDBRANCH   8  13
BRANCH   1  26
ATOM     26  C   UNL     1       6.221   2.991  -0.574  0.00  0.00    -0.005 C 
BRANCH  26  27
ATOM     27  C   UNL     1       6.658   3.764   0.672  0.00  0.00    +0.095 C 
BRANCH  27  37
ATOM     28  C   UNL     1       8.356   5.528   5.222  0.00  0.00    +0.000 A 
ATOM     29  C   UNL     1       8.156   4.404   4.442  0.00  0.00    +0.002 A 
ATOM     30  C   UNL     1       7.620   4.523   3.178  0.00  0.00    +0.024 A 
ATOM     31  C   UNL     1       7.280   5.779   2.673  0.00  0.00    +0.039 A 
ATOM     32  C   UNL     1       7.489   6.900   3.460  0.00  0.00    -0.024 A 
ATOM     33  C   UNL     1       8.028   6.776   4.727  0.00  0.00    +0.005 A 
ATOM     34  C   UNL     1       7.042   8.121   2.688  0.00  0.00    +0.056 C 
ATOM     35  C   UNL     1       6.542   7.567   1.344  0.00  0.00    +0.118 C 
ATOM     36  N   UNL     1       6.730   6.116   1.432  0.00  0.00    -0.271 N 
ATOM     37  C   UNL     1       6.418   5.236   0.461  0.00  0.00    +0.220 C 
ATOM     38  O   UNL     1       5.944   5.629  -0.584  0.00  0.00    -0.275 OA
ENDBRANCH  27  37
ENDBRANCH  26  27
ENDBRANCH   1  26
TORSDOF 7
