REMARK  Name = ZINC35253416
REMARK  8 active torsions:
REMARK  status: ('A' for Active; 'I' for Inactive)
REMARK    1  A    between atoms: C_1  and  C_2
REMARK    2  A    between atoms: C_2  and  C_4
REMARK    3  A    between atoms: C_2  and  N_10
REMARK    4  A    between atoms: N_10  and  C_11
REMARK    5  A    between atoms: C_11  and  C_12
REMARK    6  A    between atoms: C_14  and  O_20
REMARK    7  A    between atoms: C_15  and  O_19
REMARK    8  A    between atoms: O_20  and  C_21
REMARK                            x       y       z     vdW  Elec       q    Type
REMARK                         _______ _______ _______ _____ _____    ______ ____
ROOT
ATOM      1  C   UNL     1      -2.050  -0.126  -1.234  0.00  0.00    -0.046 C 
ENDROOT
BRANCH   1   2
ATOM      2  C   UNL     1      -3.464  -0.648  -1.224  0.00  0.00    -0.060 A 
ATOM      3  C   UNL     1      -3.739  -1.905  -1.729  0.00  0.00    +0.051 A 
ATOM      4  C   UNL     1      -5.038  -2.387  -1.720  0.00  0.00    +0.163 A 
ATOM      5  C   UNL     1      -6.064  -1.603  -1.201  0.00  0.00    +0.173 A 
ATOM      6  C   UNL     1      -5.782  -0.343  -0.696  0.00  0.00    +0.063 A 
ATOM      7  C   UNL     1      -4.481   0.129  -0.704  0.00  0.00    +0.021 A 
ATOM      8 BR   UNL     1      -7.173   0.726   0.010  0.00  0.00    -0.046 Br
BRANCH   5   9
ATOM      9  O   UNL     1      -7.341  -2.071  -1.191  0.00  0.00    -0.503 OA
ATOM     10  H   UNL     1      -7.575  -2.558  -0.389  0.00  0.00    +0.292 HD
ENDBRANCH   5   9
BRANCH   4  11
ATOM     11  O   UNL     1      -5.310  -3.623  -2.218  0.00  0.00    -0.491 OA
ATOM     12  C   UNL     1      -4.208  -4.371  -2.734  0.00  0.00    +0.277 C 
ENDBRANCH   4  11
ENDBRANCH   1   2
BRANCH   1  13
ATOM     13  N   UNL     1      -1.376  -0.512   0.012  0.00  0.00    +0.386 N 
ATOM     14  H   UNL     1      -1.363  -1.518   0.090  0.00  0.00    -0.085 HD
ATOM     15  H   UNL     1      -1.873  -0.121   0.799  0.00  0.00    -0.085 HD
BRANCH  13  17
ATOM     16  C   UNL     1      -0.019   1.526   0.010  0.00  0.00    -0.008 C 
ATOM     17  C   UNL     1       0.002  -0.004   0.002  0.00  0.00    -0.037 C 
BRANCH  17  18
ATOM     18  C   UNL     1       0.731  -0.503   1.223  0.00  0.00    -0.023 A 
ATOM     19  C   UNL     1       2.009  -0.938   1.335  0.00  0.00    +0.011 A 
ATOM     20  C   UNL     1       2.471  -1.355   2.570  0.00  0.00    +0.028 A 
ATOM     21  C   UNL     1       1.629  -1.315   3.633  0.00  0.00    +0.078 A 
ATOM     22  S   UNL     1       0.136  -0.668   2.898  0.00  0.00    -0.083 S 
ATOM     23 CL   UNL     1       1.927  -1.770   5.282  0.00  0.00    -0.076 Cl
ENDBRANCH  17  18
ENDBRANCH  13  17
ENDBRANCH   1  13
TORSDOF 6
