REMARK  Name = ZINC39490296
REMARK  7 active torsions:
REMARK  status: ('A' for Active; 'I' for Inactive)
REMARK    1  A    between atoms: C_1  and  C_2
REMARK    2  A    between atoms: C_2  and  C_35
REMARK    3  A    between atoms: C_4  and  N_21
REMARK    4  A    between atoms: N_10  and  C_14
REMARK    5  A    between atoms: N_21  and  C_22
REMARK    6  A    between atoms: C_22  and  C_23
REMARK    7  A    between atoms: C_28  and  C_29
REMARK                            x       y       z     vdW  Elec       q    Type
REMARK                         _______ _______ _______ _____ _____    ______ ____
ROOT
ATOM      1  C   UNL     1      -0.088   1.503  -0.076  0.00  0.00    +0.011 C 
ATOM      2  C   UNL     1      -0.047  -0.026  -0.055  0.00  0.00    -0.035 C 
ATOM      3  C   UNL     1       0.691  -0.541  -1.296  0.00  0.00    -0.009 C 
ATOM      4  C   UNL     1       0.641  -2.067  -1.291  0.00  0.00    -0.065 C 
ATOM      5  C   UNL     1       1.357  -2.633  -0.064  0.00  0.00    +0.012 C 
ATOM      6  C   UNL     1       0.824  -4.089   0.121  0.00  0.00    +0.106 C 
ATOM      7  N   UNL     1      -0.482  -3.882   0.789  0.00  0.00    -0.240 NA
ATOM      8  N   UNL     1      -0.492  -2.669   1.426  0.00  0.00    -0.264 N 
ATOM      9  C   UNL     1       0.817  -1.993   1.230  0.00  0.00    +0.094 C 
ATOM     10  C   UNL     1       0.710  -0.505   1.184  0.00  0.00    +0.030 C 
ATOM     11  C   UNL     1      -1.473  -0.581  -0.034  0.00  0.00    +0.011 C 
ATOM     12  H   UNL     1      -1.241  -3.950   0.127  0.00  0.00    +0.144 HD
ENDROOT
BRANCH   8  13
ATOM     13  C   UNL     1      -1.567  -2.144   2.148  0.00  0.00    +0.047 A 
ATOM     14  C   UNL     1      -2.869  -2.369   1.720  0.00  0.00    +0.024 A 
ATOM     15  C   UNL     1      -3.930  -1.849   2.435  0.00  0.00    +0.005 A 
ATOM     16  C   UNL     1      -3.698  -1.105   3.577  0.00  0.00    +0.038 A 
ATOM     17  C   UNL     1      -2.401  -0.879   4.008  0.00  0.00    +0.125 A 
ATOM     18  C   UNL     1      -1.335  -1.401   3.298  0.00  0.00    +0.062 A 
ATOM     19  F   UNL     1      -2.178  -0.151   5.124  0.00  0.00    -0.205 F 
ENDBRANCH   8  13
BRANCH   4  20
ATOM     20  N   UNL     1       1.293  -2.574  -2.506  0.00  0.00    +0.382 N 
ATOM     21  H   UNL     1       2.228  -2.200  -2.567  0.00  0.00    -0.085 HD
ATOM     22  H   UNL     1       1.336  -3.582  -2.469  0.00  0.00    -0.085 HD
BRANCH  20  23
ATOM     23  C   UNL     1       0.522  -2.160  -3.686  0.00  0.00    -0.067 C 
BRANCH  23  24
ATOM     24  C   UNL     1       1.201  -2.689  -4.950  0.00  0.00    +0.066 C 
ATOM     25  C   UNL     1       2.522  -1.984  -5.182  0.00  0.00    +0.115 C 
ATOM     26  N   UNL     1       2.411  -1.377  -6.319  0.00  0.00    -0.161 NA
ATOM     27  N   UNL     1       1.167  -1.576  -6.909  0.00  0.00    -0.153 NA
ATOM     28  C   UNL     1       0.389  -2.335  -6.181  0.00  0.00    +0.077 C 
BRANCH  28  29
ATOM     29  C   UNL     1      -0.987  -2.757  -6.488  0.00  0.00    -0.001 A 
ATOM     30  C   UNL     1      -1.689  -3.571  -5.594  0.00  0.00    +0.010 A 
ATOM     31  C   UNL     1      -2.978  -3.962  -5.889  0.00  0.00    +0.001 A 
ATOM     32  C   UNL     1      -3.576  -3.552  -7.068  0.00  0.00    +0.000 A 
ATOM     33  C   UNL     1      -2.888  -2.747  -7.958  0.00  0.00    +0.001 A 
ATOM     34  C   UNL     1      -1.601  -2.342  -7.674  0.00  0.00    +0.010 A 
ENDBRANCH  28  29
ENDBRANCH  23  24
ENDBRANCH  20  23
ENDBRANCH   4  20
TORSDOF 5
