REMARK  Name = ZINC39945885
REMARK  6 active torsions:
REMARK  status: ('A' for Active; 'I' for Inactive)
REMARK    1  A    between atoms: C_9  and  C_12
REMARK    2  A    between atoms: C_12  and  O_14
REMARK    3  A    between atoms: O_14  and  C_15
REMARK    4  A    between atoms: C_15  and  C_16
REMARK    5  A    between atoms: N_18  and  C_19
REMARK    6  A    between atoms: C_22  and  C_25
REMARK                            x       y       z     vdW  Elec       q    Type
REMARK                         _______ _______ _______ _____ _____    ______ ____
ROOT
ATOM      1  C   UNL     1      -0.971  -4.991  -0.095  0.00  0.00    +0.328 C 
ENDROOT
BRANCH   1   2
ATOM      2  C   UNL     1      -0.662  -6.459  -0.239  0.00  0.00    +0.255 C 
ATOM      3  O   UNL     1       0.488  -6.830  -0.340  0.00  0.00    -0.272 OA
ATOM      4  N   UNL     1      -1.665  -7.359  -0.256  0.00  0.00    -0.283 N 
ATOM      5  H   UNL     1      -2.587  -7.059  -0.256  0.00  0.00    +0.155 HD
BRANCH   4   6
ATOM      6  C   UNL     1      -1.377  -8.723  -0.274  0.00  0.00    +0.034 A 
ATOM      7  C   UNL     1      -0.270  -9.208   0.415  0.00  0.00    +0.024 A 
ATOM      8  C   UNL     1       0.018 -10.554   0.400  0.00  0.00    +0.015 A 
ATOM      9  C   UNL     1      -0.804 -11.434  -0.309  0.00  0.00    +0.037 A 
ATOM     10  C   UNL     1      -1.915 -10.945  -1.000  0.00  0.00    +0.015 A 
ATOM     11  C   UNL     1      -2.200  -9.598  -0.976  0.00  0.00    +0.024 A 
BRANCH   9  12
ATOM     12  C   UNL     1      -0.498 -12.878  -0.328  0.00  0.00    +0.242 C 
ATOM     13  O   UNL     1       0.469 -13.303   0.273  0.00  0.00    -0.270 OA
ATOM     14  N   UNL     1      -1.292 -13.726  -1.012  0.00  0.00    -0.325 N 
ATOM     15  H   UNL     1      -2.064 -13.387  -1.492  0.00  0.00    +0.145 HD
ATOM     16  H   UNL     1      -1.091 -14.675  -1.025  0.00  0.00    +0.145 HD
ENDBRANCH   9  12
ENDBRANCH   4   6
ENDBRANCH   1   2
BRANCH   1  17
ATOM     17  O   UNL     1       0.248  -4.245  -0.105  0.00  0.00    -0.452 OA
BRANCH  17  18
ATOM     18  C   UNL     1       0.147  -2.906   0.016  0.00  0.00    +0.337 C 
ATOM     19  O   UNL     1      -0.945  -2.387   0.126  0.00  0.00    -0.245 OA
BRANCH  18  28
ATOM     20  C   UNL     1       4.059  -4.592  -0.001  0.00  0.00    +0.001 A 
ATOM     21  C   UNL     1       5.183  -3.756  -0.003  0.00  0.00    +0.002 A 
ATOM     22  C   UNL     1       5.091  -2.405   0.002  0.00  0.00    +0.024 A 
ATOM     23  C   UNL     1       3.827  -1.774   0.007  0.00  0.00    +0.041 A 
ATOM     24  N   UNL     1       3.744  -0.452   0.011  0.00  0.00    -0.285 N 
ATOM     25  C   UNL     1       2.591   0.207   0.017  0.00  0.00    +0.222 C 
ATOM     26  O   UNL     1       2.585   1.422   0.020  0.00  0.00    -0.275 OA
ATOM     27  C   UNL     1       1.286  -0.557   0.019  0.00  0.00    +0.139 C 
ATOM     28  C   UNL     1       1.365  -2.071   0.014  0.00  0.00    +0.054 C 
ATOM     29  C   UNL     1       2.624  -2.634   0.008  0.00  0.00    +0.007 A 
ATOM     30  C   UNL     1       2.801  -4.087   0.004  0.00  0.00    +0.010 A 
ATOM     31  H   UNL     1       4.567   0.061   0.010  0.00  0.00    +0.155 HD
ENDBRANCH  18  28
ENDBRANCH  17  18
ENDBRANCH   1  17
TORSDOF 6
