REMARK  Name = ZINC36660270
REMARK  13 active torsions:
REMARK  status: ('A' for Active; 'I' for Inactive)
REMARK    1  A    between atoms: C_1  and  C_2
REMARK    2  A    between atoms: C_2  and  N_3
REMARK    3  A    between atoms: N_3  and  C_4
REMARK    4  A    between atoms: N_3  and  C_6
REMARK    5  A    between atoms: C_4  and  C_5
REMARK    6  A    between atoms: C_6  and  C_7
REMARK    7  A    between atoms: C_7  and  N_8
REMARK    8  A    between atoms: C_14  and  O_18
REMARK    9  A    between atoms: O_18  and  C_19
REMARK   10  A    between atoms: C_20  and  C_22
REMARK   11  A    between atoms: N_27  and  S_28
REMARK   12  A    between atoms: S_28  and  C_31
REMARK   13  A    between atoms: C_34  and  C_37
REMARK                            x       y       z     vdW  Elec       q    Type
REMARK                         _______ _______ _______ _____ _____    ______ ____
ROOT
ATOM      1  N   UNL     1      -3.265  -4.546   0.005  0.00  0.00    -0.251 N 
ATOM      2  C   UNL     1      -3.462  -5.027   1.290  0.00  0.00    +0.168 A 
ATOM      3  N   UNL     1      -3.581  -4.354   2.410  0.00  0.00    -0.224 NA
ATOM      4  C   UNL     1      -3.773  -4.959   3.604  0.00  0.00    +0.081 A 
ATOM      5  C   UNL     1      -3.915  -4.356   4.875  0.00  0.00    +0.032 A 
ATOM      6  C   UNL     1      -4.104  -5.118   5.997  0.00  0.00    +0.048 A 
ATOM      7  C   UNL     1      -4.163  -6.507   5.929  0.00  0.00    +0.121 A 
ATOM      8  C   UNL     1      -4.028  -7.131   4.697  0.00  0.00    +0.063 A 
ATOM      9  C   UNL     1      -3.838  -6.371   3.571  0.00  0.00    +0.044 A 
ATOM     10  S   UNL     1      -3.628  -6.719   1.841  0.00  0.00    -0.052 S 
ATOM     11  C   UNL     1      -3.174  -5.406  -1.029  0.00  0.00    +0.240 C 
ATOM     12  O   UNL     1      -3.356  -6.592  -0.850  0.00  0.00    -0.273 OA
ENDROOT
BRANCH  11  13
ATOM     13  C   UNL     1      -2.846  -4.894  -2.408  0.00  0.00    +0.166 C 
ATOM     14  C   UNL     1      -4.147  -4.545  -3.162  0.00  0.00    +0.031 C 
ATOM     15  C   UNL     1      -3.845  -5.011  -4.610  0.00  0.00    +0.019 C 
ATOM     16  C   UNL     1      -2.985  -6.274  -4.358  0.00  0.00    +0.110 C 
ATOM     17  N   UNL     1      -2.159  -5.940  -3.180  0.00  0.00    -0.165 NA
BRANCH  17  18
ATOM     18  S   UNL     1      -0.703  -6.627  -2.791  0.00  0.00    +0.062 S 
ATOM     19  O   UNL     1      -0.091  -7.002  -4.017  0.00  0.00    -0.153 OA
ATOM     20  O   UNL     1      -0.076  -5.751  -1.863  0.00  0.00    -0.153 OA
BRANCH  18  21
ATOM     21  C   UNL     1      -1.046  -8.120  -1.921  0.00  0.00    +0.106 A 
ATOM     22  C   UNL     1      -1.041  -8.131  -0.539  0.00  0.00    +0.029 A 
ATOM     23  C   UNL     1      -1.311  -9.303   0.144  0.00  0.00    +0.005 A 
ATOM     24  C   UNL     1      -1.586 -10.463  -0.556  0.00  0.00    -0.050 A 
ATOM     25  C   UNL     1      -1.592 -10.451  -1.939  0.00  0.00    +0.005 A 
ATOM     26  C   UNL     1      -1.327  -9.278  -2.621  0.00  0.00    +0.029 A 
ATOM     27  C   UNL     1      -1.879 -11.740   0.188  0.00  0.00    +0.044 C 
ENDBRANCH  18  21
ENDBRANCH  17  18
ENDBRANCH  11  13
BRANCH   7  28
ATOM     28  O   UNL     1      -4.350  -7.244   7.056  0.00  0.00    -0.495 OA
ATOM     29  C   UNL     1      -4.480  -6.527   8.286  0.00  0.00    +0.277 C 
ENDBRANCH   7  28
BRANCH   1  30
ATOM     30  C   UNL     1      -3.156  -3.104  -0.230  0.00  0.00    +0.097 C 
BRANCH  30  31
ATOM     31  C   UNL     1      -1.685  -2.688  -0.166  0.00  0.00    -0.059 C 
BRANCH  31  32
ATOM     32  N   UNL     1      -1.563  -1.267  -0.521  0.00  0.00    +0.380 N 
ATOM     33  H   UNL     1      -2.003  -1.105  -1.414  0.00  0.00    -0.082 HD
BRANCH  32  35
ATOM     34  C   UNL     1      -2.202   1.020   0.075  0.00  0.00    -0.017 C 
ATOM     35  C   UNL     1      -2.220  -0.448   0.506  0.00  0.00    -0.082 C 
ENDBRANCH  32  35
BRANCH  32  36
ATOM     36  C   UNL     1      -0.142  -0.903  -0.602  0.00  0.00    -0.082 C 
ATOM     37  C   UNL     1       0.511  -1.655  -1.764  0.00  0.00    -0.017 C 
ENDBRANCH  32  36
ENDBRANCH  31  32
ENDBRANCH  30  31
ENDBRANCH   1  30
TORSDOF 9
