REMARK  Name = ZINC63133517
REMARK  7 active torsions:
REMARK  status: ('A' for Active; 'I' for Inactive)
REMARK    1  A    between atoms: C_7  and  C_10
REMARK    2  A    between atoms: C_10  and  C_12
REMARK    3  A    between atoms: C_10  and  C_26
REMARK    4  A    between atoms: C_12  and  N_13
REMARK    5  A    between atoms: C_14  and  C_16
REMARK    6  A    between atoms: C_16  and  C_17
REMARK    7  A    between atoms: C_17  and  C_18
REMARK                            x       y       z     vdW  Elec       q    Type
REMARK                         _______ _______ _______ _____ _____    ______ ____
ROOT
ATOM      1  C   UNL     1       0.691  -3.186  -0.024  0.00  0.00    +0.066 C 
ENDROOT
BRANCH   1   8
ATOM      2  C   UNL     1      -0.016   1.348   0.009  0.00  0.00    +0.001 A 
ATOM      3  C   UNL     1       1.166   2.101   0.002  0.00  0.00    +0.002 A 
ATOM      4  C   UNL     1       2.391   1.535  -0.013  0.00  0.00    +0.026 A 
ATOM      5  C   UNL     1       2.529   0.120  -0.022  0.00  0.00    +0.043 A 
ATOM      6  N   UNL     1       3.587  -0.654  -0.037  0.00  0.00    -0.380 N 
ATOM      7  C   UNL     1       3.143  -2.053  -0.041  0.00  0.00    +0.145 C 
ATOM      8  C   UNL     1       1.631  -2.008  -0.025  0.00  0.00    -0.033 C 
ATOM      9  C   UNL     1       1.295  -0.698  -0.014  0.00  0.00    -0.000 A 
ATOM     10  C   UNL     1       0.002  -0.004   0.002  0.00  0.00    +0.010 A 
ATOM     11  H   UNL     1       4.509  -0.353  -0.045  0.00  0.00    +0.160 HD
ENDBRANCH   1   8
BRANCH   1  12
ATOM     12  C   UNL     1       0.920  -4.014  -1.262  0.00  0.00    -0.020 A 
ATOM     13  C   UNL     1       2.158  -4.583  -1.493  0.00  0.00    +0.006 A 
ATOM     14  C   UNL     1       2.369  -5.342  -2.629  0.00  0.00    +0.000 A 
ATOM     15  C   UNL     1       1.341  -5.534  -3.534  0.00  0.00    +0.001 A 
ATOM     16  C   UNL     1       0.103  -4.965  -3.303  0.00  0.00    +0.020 A 
ATOM     17  C   UNL     1      -0.110  -4.210  -2.164  0.00  0.00    +0.045 A 
ATOM     18 CL   UNL     1      -1.668  -3.501  -1.871  0.00  0.00    -0.083 Cl
ENDBRANCH   1  12
BRANCH   1  19
ATOM     19  C   UNL     1       0.947  -4.042   1.218  0.00  0.00    +0.116 C 
BRANCH  19  20
ATOM     20  N   UNL     1      -0.044  -5.118   1.282  0.00  0.00    -0.314 N 
ATOM     21  C   UNL     1      -0.013  -6.003   2.298  0.00  0.00    +0.213 C 
ATOM     22  O   UNL     1       0.836  -5.909   3.159  0.00  0.00    -0.276 OA
ATOM     23  H   UNL     1      -0.723  -5.194   0.593  0.00  0.00    +0.149 HD
BRANCH  21  24
ATOM     24  C   UNL     1      -1.034  -7.111   2.364  0.00  0.00    +0.098 C 
BRANCH  24  25
ATOM     25  C   UNL     1      -0.777  -7.967   3.606  0.00  0.00    +0.041 C 
BRANCH  25  26
ATOM     26  C   UNL     1      -1.813  -9.091   3.673  0.00  0.00    +0.161 C 
ATOM     27  C   UNL     1      -1.604  -9.935   4.915  0.00  0.00    +0.241 C 
ATOM     28  O   UNL     1      -1.669  -9.569   6.069  0.00  0.00    -0.273 OA
ATOM     29  N   UNL     1      -1.331 -11.177   4.469  0.00  0.00    -0.239 N 
ATOM     30  C   UNL     1      -1.338 -11.235   3.132  0.00  0.00    +0.307 C 
ATOM     31  O   UNL     1      -1.120 -12.248   2.498  0.00  0.00    -0.252 OA
ATOM     32  N   UNL     1      -1.617 -10.043   2.566  0.00  0.00    -0.288 N 
ATOM     33  H   UNL     1      -1.151 -11.936   5.046  0.00  0.00    +0.159 HD
ATOM     34  H   UNL     1      -1.677  -9.849   1.617  0.00  0.00    +0.151 HD
ENDBRANCH  25  26
ENDBRANCH  24  25
ENDBRANCH  21  24
ENDBRANCH  19  20
ENDBRANCH   1  19
TORSDOF 7
