REMARK  Name = ZINC39500164
REMARK  6 active torsions:
REMARK  status: ('A' for Active; 'I' for Inactive)
REMARK    1  A    between atoms: C_1  and  C_2
REMARK    2  A    between atoms: C_5  and  N_9
REMARK    3  A    between atoms: C_7  and  C_8
REMARK    4  A    between atoms: C_15  and  N_21
REMARK    5  A    between atoms: N_21  and  C_22
REMARK    6  A    between atoms: C_22  and  C_23
REMARK                            x       y       z     vdW  Elec       q    Type
REMARK                         _______ _______ _______ _____ _____    ______ ____
ROOT
ATOM      1  N   UNL     1      -0.166  -4.010  -0.224  0.00  0.00    -0.221 N 
ATOM      2  C   UNL     1      -0.212  -4.941  -1.353  0.00  0.00    +0.105 C 
ATOM      3  C   UNL     1      -1.213  -4.604  -2.399  0.00  0.00    +0.025 C 
ATOM      4  C   UNL     1      -2.530  -5.340  -2.309  0.00  0.00    +0.000 C 
ATOM      5  C   UNL     1      -2.331  -6.820  -2.055  0.00  0.00    -0.015 C 
ATOM      6  C   UNL     1      -1.515  -7.082  -0.815  0.00  0.00    -0.061 C 
ATOM      7  C   UNL     1      -0.240  -6.315  -0.723  0.00  0.00    +0.040 C 
ATOM      8  C   UNL     1       0.022  -6.022   0.750  0.00  0.00    +0.107 C 
ATOM      9  N   UNL     1       0.040  -4.764   0.935  0.00  0.00    -0.192 NA
ENDROOT
BRANCH   1  14
ATOM     10  C   UNL     1      -0.703   1.628  -0.505  0.00  0.00    +0.044 C 
ATOM     11  C   UNL     1      -0.561   0.130  -0.431  0.00  0.00    -0.047 A 
ATOM     12  C   UNL     1       0.270  -0.529  -1.319  0.00  0.00    +0.005 A 
ATOM     13  C   UNL     1       0.403  -1.902  -1.253  0.00  0.00    +0.025 A 
ATOM     14  C   UNL     1      -0.298  -2.622  -0.293  0.00  0.00    +0.052 A 
ATOM     15  C   UNL     1      -1.132  -1.956   0.598  0.00  0.00    +0.028 A 
ATOM     16  C   UNL     1      -1.256  -0.583   0.529  0.00  0.00    -0.046 A 
ATOM     17  C   UNL     1      -2.155   0.141   1.499  0.00  0.00    +0.044 C 
ENDBRANCH   1  14
BRANCH   6  18
ATOM     18  N   UNL     1      -2.333  -6.741   0.357  0.00  0.00    +0.385 N 
ATOM     19  H   UNL     1      -1.780  -6.845   1.195  0.00  0.00    -0.085 HD
ATOM     20  H   UNL     1      -2.650  -5.787   0.279  0.00  0.00    -0.085 HD
BRANCH  18  21
ATOM     21  C   UNL     1      -3.494  -7.639   0.422  0.00  0.00    -0.028 C 
BRANCH  21  22
ATOM     22  C   UNL     1      -4.333  -7.289   1.624  0.00  0.00    -0.000 A 
ATOM     23  H   UNL     1      -3.410  -8.363   3.151  0.00  0.00    +0.166 HD
ATOM     24  C   UNL     1      -5.401  -6.477   1.608  0.00  0.00    +0.029 A 
ATOM     25  C   UNL     1      -5.913  -6.415   2.979  0.00  0.00    -0.000 A 
ATOM     26  C   UNL     1      -6.980  -5.752   3.587  0.00  0.00    +0.010 A 
ATOM     27  C   UNL     1      -7.199  -5.905   4.928  0.00  0.00    +0.001 A 
ATOM     28  C   UNL     1      -6.368  -6.714   5.689  0.00  0.00    +0.002 A 
ATOM     29  C   UNL     1      -5.309  -7.378   5.109  0.00  0.00    +0.026 A 
ATOM     30  C   UNL     1      -5.068  -7.237   3.747  0.00  0.00    +0.047 A 
ATOM     31  N   UNL     1      -4.122  -7.757   2.892  0.00  0.00    -0.360 N 
ENDBRANCH  21  22
ENDBRANCH  18  21
ENDBRANCH   6  18
TORSDOF 4
