REMARK  Name = ZINC08636668
REMARK  7 active torsions:
REMARK  status: ('A' for Active; 'I' for Inactive)
REMARK    1  A    between atoms: C_1  and  O_2
REMARK    2  A    between atoms: O_2  and  C_3
REMARK    3  A    between atoms: C_6  and  O_9
REMARK    4  A    between atoms: O_9  and  C_10
REMARK    5  A    between atoms: C_13  and  N_36
REMARK    6  A    between atoms: C_15  and  C_16
REMARK    7  A    between atoms: C_23  and  N_66
REMARK                            x       y       z     vdW  Elec       q    Type
REMARK                         _______ _______ _______ _____ _____    ______ ____
ROOT
ATOM      1  C   UNL     1      -2.995   8.640  -3.457  0.00  0.00    +0.250 C 
ATOM      2  O   UNL     1      -4.192   8.477  -3.596  0.00  0.00    -0.270 OA
ATOM      3  N   UNL     1      -2.192   7.580  -3.239  0.00  0.00    -0.301 N 
ATOM      4  C   UNL     1      -2.720   6.208  -3.296  0.00  0.00    +0.089 C 
ATOM      5  C   UNL     1      -2.305   5.473  -2.017  0.00  0.00    -0.058 C 
ATOM      6  C   UNL     1      -0.427   6.967  -1.673  0.00  0.00    -0.058 C 
ATOM      7  C   UNL     1      -0.764   7.764  -2.938  0.00  0.00    +0.089 C 
ATOM      8  N   UNL     1      -0.836   5.560  -1.874  0.00  0.00    +0.389 N 
ATOM      9  H   UNL     1      -0.396   5.205  -2.731  0.00  0.00    -0.080 HD
ENDROOT
BRANCH   8  10
ATOM     10  C   UNL     1      -0.391   4.737  -0.731  0.00  0.00    -0.005 C 
ATOM     11  C   UNL     1      -1.256   4.973   0.483  0.00  0.00    -0.049 A 
ATOM     12  C   UNL     1      -1.510   6.102   1.233  0.00  0.00    +0.003 A 
ATOM     13  C   UNL     1      -2.369   6.035   2.316  0.00  0.00    +0.000 A 
ATOM     14  C   UNL     1      -2.966   4.834   2.654  0.00  0.00    +0.001 A 
ATOM     15  C   UNL     1      -2.718   3.700   1.909  0.00  0.00    +0.009 A 
ATOM     16  C   UNL     1      -1.857   3.761   0.812  0.00  0.00    -0.016 A 
ATOM     17  C   UNL     1      -1.419   2.717  -0.147  0.00  0.00    -0.016 A 
ATOM     18  C   UNL     1      -0.545   3.276  -1.075  0.00  0.00    -0.049 A 
ATOM     19  C   UNL     1      -0.001   2.498  -2.074  0.00  0.00    +0.003 A 
ATOM     20  C   UNL     1      -0.322   1.155  -2.159  0.00  0.00    +0.000 A 
ATOM     21  C   UNL     1      -1.189   0.590  -1.242  0.00  0.00    +0.001 A 
ATOM     22  C   UNL     1      -1.738   1.361  -0.238  0.00  0.00    +0.009 A 
ENDBRANCH   8  10
BRANCH   1  28
ATOM     23  C   UNL     1      -3.108  11.082  -2.961  0.00  0.00    +0.141 A 
ATOM     24  C   UNL     1      -2.557  12.353  -3.028  0.00  0.00    +0.049 A 
ATOM     25  C   UNL     1      -1.344  12.550  -3.658  0.00  0.00    +0.036 A 
ATOM     26  C   UNL     1      -0.666  11.481  -4.223  0.00  0.00    +0.127 A 
ATOM     27  C   UNL     1      -1.196  10.211  -4.161  0.00  0.00    +0.049 A 
ATOM     28  C   UNL     1      -2.422   9.997  -3.526  0.00  0.00    +0.081 A 
BRANCH  26  29
ATOM     29  N   UNL     1       0.633  11.706  -4.896  0.00  0.00    +0.056 N 
ATOM     30  O   UNL     1       1.231  10.769  -5.393  0.00  0.00    -0.126 OA
ATOM     31  O   UNL     1       1.104  12.828  -4.952  0.00  0.00    -0.126 OA
ENDBRANCH  26  29
BRANCH  23  32
ATOM     32  O   UNL     1      -4.301  10.888  -2.347  0.00  0.00    -0.455 OA
BRANCH  32  36
ATOM     33  C   UNL     1      -4.288  10.045   1.694  0.00  0.00    +0.120 A 
ATOM     34  C   UNL     1      -5.479  10.020   0.984  0.00  0.00    +0.049 A 
ATOM     35  C   UNL     1      -5.484  10.302  -0.368  0.00  0.00    +0.050 A 
ATOM     36  C   UNL     1      -4.297  10.611  -1.016  0.00  0.00    +0.129 A 
ATOM     37  C   UNL     1      -3.105  10.631  -0.307  0.00  0.00    +0.050 A 
ATOM     38  C   UNL     1      -3.101  10.354   1.046  0.00  0.00    +0.049 A 
BRANCH  33  40
ATOM     39  C   UNL     1      -3.021   9.811   3.692  0.00  0.00    +0.277 C 
ATOM     40  O   UNL     1      -4.284   9.767   3.025  0.00  0.00    -0.495 OA
ENDBRANCH  33  40
ENDBRANCH  32  36
ENDBRANCH  23  32
ENDBRANCH   1  28
TORSDOF 6
