REMARK  Name = ZINC63511030
REMARK  8 active torsions:
REMARK  status: ('A' for Active; 'I' for Inactive)
REMARK    1  A    between atoms: C_1  and  C_2
REMARK    2  A    between atoms: C_4  and  C_7
REMARK    3  A    between atoms: C_7  and  N_12
REMARK    4  A    between atoms: N_12  and  C_13
REMARK    5  A    between atoms: C_13  and  C_14
REMARK    6  A    between atoms: N_16  and  C_17
REMARK    7  A    between atoms: C_20  and  S_23
REMARK    8  A    between atoms: S_23  and  N_26
REMARK                            x       y       z     vdW  Elec       q    Type
REMARK                         _______ _______ _______ _____ _____    ______ ____
ROOT
ATOM      1  C   UNL     1      -4.159  -1.910  -2.355  0.00  0.00    +0.200 C 
ATOM      2  O   UNL     1      -4.144  -2.813  -3.164  0.00  0.00    -0.278 OA
ATOM      3  N   UNL     1      -4.980  -0.856  -2.536  0.00  0.00    -0.287 N 
ATOM      4  H   UNL     1      -5.042  -0.167  -1.857  0.00  0.00    +0.155 HD
ENDROOT
BRANCH   3   5
ATOM      5  C   UNL     1      -5.743  -0.757  -3.705  0.00  0.00    +0.033 A 
ATOM      6  C   UNL     1      -5.986   0.487  -4.273  0.00  0.00    +0.025 A 
ATOM      7  C   UNL     1      -6.739   0.582  -5.427  0.00  0.00    +0.030 A 
ATOM      8  C   UNL     1      -7.252  -0.560  -6.016  0.00  0.00    +0.105 A 
ATOM      9  C   UNL     1      -7.012  -1.800  -5.452  0.00  0.00    +0.030 A 
ATOM     10  C   UNL     1      -6.254  -1.902  -4.302  0.00  0.00    +0.025 A 
BRANCH   8  11
ATOM     11  S   UNL     1      -8.212  -0.435  -7.488  0.00  0.00    +0.056 S 
ATOM     12  O   UNL     1      -9.032  -1.594  -7.537  0.00  0.00    -0.153 OA
ATOM     13  O   UNL     1      -8.750   0.880  -7.511  0.00  0.00    -0.153 OA
BRANCH  11  14
ATOM     14  N   UNL     1      -7.165  -0.540  -8.766  0.00  0.00    -0.204 NA
ATOM     15  H   UNL     1      -6.215  -0.651  -8.607  0.00  0.00    +0.144 HD
ATOM     16  H   UNL     1      -7.503  -0.492  -9.675  0.00  0.00    +0.144 HD
ENDBRANCH  11  14
ENDBRANCH   8  11
ENDBRANCH   3   5
BRANCH   1  17
ATOM     17  C   UNL     1      -3.261  -1.966  -1.146  0.00  0.00    +0.017 C 
BRANCH  17  18
ATOM     18  N   UNL     1      -2.472  -3.205  -1.180  0.00  0.00    +0.393 N 
ATOM     19  H   UNL     1      -1.910  -3.223  -2.018  0.00  0.00    -0.084 HD
ATOM     20  H   UNL     1      -3.093  -4.000  -1.174  0.00  0.00    -0.084 HD
BRANCH  18  21
ATOM     21  C   UNL     1      -1.596  -3.259  -0.002  0.00  0.00    -0.003 C 
ATOM     22  C   UNL     1      -2.443  -3.285   1.287  0.00  0.00    -0.005 C 
ATOM     23  C   UNL     1      -2.555  -4.790   1.638  0.00  0.00    -0.001 C 
ATOM     24  C   UNL     1      -1.153  -5.332   1.267  0.00  0.00    -0.001 C 
ATOM     25  C   UNL     1      -0.775  -4.561  -0.015  0.00  0.00    -0.005 C 
BRANCH  21  29
ATOM     26  C   UNL     1      -0.037   1.501   0.048  0.00  0.00    +0.112 C 
ATOM     27  C   UNL     1      -0.013  -0.006   0.032  0.00  0.00    +0.224 A 
ATOM     28  N   UNL     1      -1.058  -0.786   0.024  0.00  0.00    -0.198 NA
ATOM     29  C   UNL     1      -0.673  -2.068   0.011  0.00  0.00    +0.161 A 
ATOM     30  N   UNL     1       0.628  -2.118   0.011  0.00  0.00    -0.063 NA
ATOM     31  O   UNL     1       1.084  -0.773   0.019  0.00  0.00    -0.338 OA
ENDBRANCH  21  29
ENDBRANCH  18  21
ENDBRANCH  17  18
ENDBRANCH   1  17
TORSDOF 7
