REMARK  Name = ZINC34793086
REMARK  8 active torsions:
REMARK  status: ('A' for Active; 'I' for Inactive)
REMARK    1  A    between atoms: C_1  and  C_2
REMARK    2  A    between atoms: C_5  and  C_8
REMARK    3  A    between atoms: C_8  and  N_9
REMARK    4  A    between atoms: C_15  and  C_17
REMARK    5  A    between atoms: C_17  and  C_19
REMARK    6  A    between atoms: C_17  and  N_20
REMARK    7  A    between atoms: C_26  and  C_33
REMARK    8  A    between atoms: N_31  and  C_32
REMARK                            x       y       z     vdW  Elec       q    Type
REMARK                         _______ _______ _______ _____ _____    ______ ____
ROOT
ATOM      1  N   UNL     1       5.408  -9.176   1.998  0.00  0.00    -0.281 N 
ATOM      2  C   UNL     1       6.619  -9.950   1.683  0.00  0.00    +0.160 C 
ATOM      3  C   UNL     1       7.099 -10.479   3.015  0.00  0.00    +0.042 C 
ATOM      4  C   UNL     1       6.227 -10.028   3.940  0.00  0.00    +0.058 C 
ATOM      5  C   UNL     1       5.224  -9.248   3.328  0.00  0.00    +0.247 C 
ATOM      6  O   UNL     1       4.310  -8.711   3.926  0.00  0.00    -0.270 OA
ATOM      7  C   UNL     1       6.470 -10.413   5.385  0.00  0.00    +0.143 C 
ATOM      8  N   UNL     1       7.647 -11.255   5.662  0.00  0.00    -0.288 N 
ATOM      9  C   UNL     1       8.427 -11.627   4.628  0.00  0.00    +0.307 C 
ATOM     10  O   UNL     1       9.400 -12.322   4.847  0.00  0.00    -0.252 OA
ATOM     11  N   UNL     1       8.165 -11.257   3.368  0.00  0.00    -0.260 N 
ATOM     12  C   UNL     1       9.071 -11.711   2.310  0.00  0.00    +0.139 C 
ATOM     13  H   UNL     1       7.855 -11.534   6.567  0.00  0.00    +0.151 HD
ENDROOT
BRANCH   7  14
ATOM     14  C   UNL     1       6.608  -9.145   6.187  0.00  0.00    -0.004 A 
ATOM     15  C   UNL     1       7.861  -8.619   6.439  0.00  0.00    +0.007 A 
ATOM     16  C   UNL     1       7.987  -7.455   7.175  0.00  0.00    +0.000 A 
ATOM     17  C   UNL     1       6.860  -6.818   7.660  0.00  0.00    +0.001 A 
ATOM     18  C   UNL     1       5.607  -7.343   7.409  0.00  0.00    +0.020 A 
ATOM     19  C   UNL     1       5.480  -8.504   6.667  0.00  0.00    +0.046 A 
ATOM     20 CL   UNL     1       3.905  -9.161   6.346  0.00  0.00    -0.083 Cl
ENDBRANCH   7  14
BRANCH   1  21
ATOM     21  C   UNL     1       4.564  -8.456   1.041  0.00  0.00    +0.160 C 
ATOM     22  C   UNL     1       3.141  -9.016   1.095  0.00  0.00    +0.038 C 
BRANCH  21  29
ATOM     23  N   UNL     1       4.191  -4.180  -1.535  0.00  0.00    -0.295 NA
ATOM     24  C   UNL     1       4.482  -5.583  -1.860  0.00  0.00    +0.103 C 
ATOM     25  C   UNL     1       3.747  -6.496  -0.873  0.00  0.00    +0.123 C 
ATOM     26  N   UNL     1       4.104  -6.088   0.495  0.00  0.00    -0.298 N 
ATOM     27  C   UNL     1       3.969  -4.668   0.855  0.00  0.00    +0.123 C 
ATOM     28  C   UNL     1       4.695  -3.828  -0.201  0.00  0.00    +0.103 C 
ATOM     29  C   UNL     1       4.542  -6.991   1.394  0.00  0.00    +0.236 C 
ATOM     30  O   UNL     1       4.918  -6.625   2.487  0.00  0.00    -0.274 OA
BRANCH  23  31
ATOM     31  C   UNL     1       4.736  -3.279  -2.558  0.00  0.00    +0.119 C 
BRANCH  31  36
ATOM     32  C   UNL     1       1.982  -4.156  -7.563  0.00  0.00    +0.044 C 
ATOM     33  C   UNL     1       2.700  -3.927  -6.258  0.00  0.00    -0.050 A 
ATOM     34  C   UNL     1       2.220  -2.993  -5.359  0.00  0.00    +0.003 A 
ATOM     35  C   UNL     1       2.878  -2.784  -4.162  0.00  0.00    +0.005 A 
ATOM     36  C   UNL     1       4.017  -3.508  -3.863  0.00  0.00    -0.033 A 
ATOM     37  C   UNL     1       4.497  -4.442  -4.762  0.00  0.00    +0.005 A 
ATOM     38  C   UNL     1       3.836  -4.655  -5.957  0.00  0.00    +0.003 A 
ENDBRANCH  31  36
ENDBRANCH  23  31
ENDBRANCH  21  29
ENDBRANCH   1  21
TORSDOF 5
