REMARK  Name = ZINC37376000
REMARK  6 active torsions:
REMARK  status: ('A' for Active; 'I' for Inactive)
REMARK    1  A    between atoms: C_6  and  N_7
REMARK    2  A    between atoms: C_8  and  N_34
REMARK    3  A    between atoms: C_10  and  C_25
REMARK    4  A    between atoms: N_16  and  C_17
REMARK    5  A    between atoms: C_17  and  C_18
REMARK    6  A    between atoms: C_18  and  N_19
REMARK                            x       y       z     vdW  Elec       q    Type
REMARK                         _______ _______ _______ _____ _____    ______ ____
ROOT
ATOM      1  N   UNL     1      -1.385  -0.600  -0.334  0.00  0.00    -0.216 N 
ATOM      2  C   UNL     1      -1.469  -1.895  -0.696  0.00  0.00    +0.131 A 
ATOM      3  C   UNL     1      -2.639  -2.407  -0.149  0.00  0.00    +0.086 A 
ATOM      4  C   UNL     1      -3.294  -3.659  -0.152  0.00  0.00    +0.089 A 
ATOM      5  N   UNL     1      -4.440  -3.770   0.509  0.00  0.00    -0.214 NA
ATOM      6  C   UNL     1      -4.981  -2.748   1.164  0.00  0.00    +0.218 A 
ATOM      7  N   UNL     1      -4.438  -1.548   1.218  0.00  0.00    -0.193 NA
ATOM      8  C   UNL     1      -3.273  -1.300   0.589  0.00  0.00    +0.189 A 
ATOM      9  N   UNL     1      -2.489  -0.253   0.454  0.00  0.00    -0.144 NA
ATOM     10  N   UNL     1      -6.178  -2.954   1.825  0.00  0.00    -0.315 N 
ATOM     11  H   UNL     1      -6.600  -3.827   1.802  0.00  0.00    +0.149 HD
ENDROOT
BRANCH   4  12
ATOM     12  C   UNL     1      -2.717  -4.816  -0.872  0.00  0.00    +0.005 A 
ATOM     13  C   UNL     1      -1.363  -5.124  -0.729  0.00  0.00    +0.014 A 
ATOM     14  C   UNL     1      -0.828  -6.202  -1.401  0.00  0.00    +0.050 A 
ATOM     15  C   UNL     1      -1.631  -6.984  -2.219  0.00  0.00    +0.166 A 
ATOM     16  C   UNL     1      -2.985  -6.681  -2.365  0.00  0.00    +0.167 A 
ATOM     17  C   UNL     1      -3.527  -5.605  -1.690  0.00  0.00    +0.059 A 
ATOM     18  O   UNL     1      -3.546  -7.592  -3.214  0.00  0.00    -0.453 OA
ATOM     19  C   UNL     1      -2.441  -8.204  -3.904  0.00  0.00    +0.466 C 
ATOM     20  O   UNL     1      -1.347  -8.083  -2.976  0.00  0.00    -0.453 OA
ENDBRANCH   4  12
BRANCH   1  26
ATOM     21  C   UNL     1      -0.610   1.611  -0.927  0.00  0.00    +0.029 A 
ATOM     22  C   UNL     1       0.418   2.465  -1.275  0.00  0.00    +0.022 A 
ATOM     23  C   UNL     1       1.711   1.985  -1.384  0.00  0.00    +0.041 A 
ATOM     24  C   UNL     1       1.978   0.648  -1.146  0.00  0.00    +0.022 A 
ATOM     25  C   UNL     1       0.955  -0.210  -0.797  0.00  0.00    +0.029 A 
ATOM     26  C   UNL     1      -0.344   0.269  -0.687  0.00  0.00    +0.068 A 
ATOM     27 CL   UNL     1       3.001   3.062  -1.822  0.00  0.00    -0.084 Cl
ENDBRANCH   1  26
BRANCH   2  28
ATOM     28  N   UNL     1      -0.557  -2.587  -1.472  0.00  0.00    -0.342 N 
ATOM     29  H   UNL     1       0.307  -2.195  -1.670  0.00  0.00    +0.144 HD
ATOM     30  H   UNL     1      -0.783  -3.465  -1.817  0.00  0.00    +0.144 HD
ENDBRANCH   2  28
BRANCH  10  31
ATOM     31  C   UNL     1      -6.809  -1.854   2.559  0.00  0.00    +0.086 C 
BRANCH  31  32
ATOM     32  C   UNL     1      -8.112  -2.345   3.192  0.00  0.00    -0.060 C 
BRANCH  32  33
ATOM     33  N   UNL     1      -8.744  -1.243   3.929  0.00  0.00    +0.381 N 
ATOM     34  C   UNL     1      -7.883  -0.847   5.049  0.00  0.00    -0.079 C 
ATOM     35  C   UNL     1      -8.498   0.354   5.771  0.00  0.00    -0.019 C 
ATOM     36  C   UNL     1      -9.882  -0.029   6.300  0.00  0.00    -0.004 C 
ATOM     37  C   UNL     1     -10.749  -0.511   5.133  0.00  0.00    -0.019 C 
ATOM     38  C   UNL     1     -10.051  -1.680   4.435  0.00  0.00    -0.079 C 
ATOM     39  H   UNL     1      -8.871  -0.456   3.310  0.00  0.00    -0.082 HD
ENDBRANCH  32  33
ENDBRANCH  31  32
ENDBRANCH  10  31
TORSDOF 6
