REMARK  Name = ZINC37028957
REMARK  5 active torsions:
REMARK  status: ('A' for Active; 'I' for Inactive)
REMARK    1  A    between atoms: C_1  and  N_2
REMARK    2  A    between atoms: N_2  and  C_3
REMARK    3  A    between atoms: C_5  and  N_10
REMARK    4  A    between atoms: N_10  and  C_11
REMARK    5  A    between atoms: C_19  and  O_21
REMARK                            x       y       z     vdW  Elec       q    Type
REMARK                         _______ _______ _______ _____ _____    ______ ____
ROOT
ATOM      1  N   UNL     1       0.048  -2.793   0.208  0.00  0.00    -0.331 N 
ATOM      2  H   UNL     1       0.879  -2.297   0.272  0.00  0.00    +0.147 HD
ENDROOT
BRANCH   1   7
ATOM      3  C   UNL     1       0.648   0.385   1.230  0.00  0.00    +0.130 C 
ATOM      4  N   UNL     1       0.000  -0.003  -0.025  0.00  0.00    -0.321 N 
ATOM      5  C   UNL     1       0.610   0.358  -1.307  0.00  0.00    +0.130 C 
ATOM      6  C   UNL     1      -1.196  -0.716   0.000  0.00  0.00    +0.120 A 
ATOM      7  C   UNL     1      -1.171  -2.109   0.117  0.00  0.00    +0.066 A 
ATOM      8  C   UNL     1      -2.373  -2.803   0.141  0.00  0.00    +0.028 A 
ATOM      9  C   UNL     1      -3.555  -2.082   0.047  0.00  0.00    +0.019 A 
ATOM     10  C   UNL     1      -3.503  -0.708  -0.066  0.00  0.00    +0.084 A 
ATOM     11  N   UNL     1      -2.347  -0.070  -0.081  0.00  0.00    -0.348 N 
ATOM     12  H   UNL     1      -2.341   0.897  -0.157  0.00  0.00    +0.167 HD
ENDBRANCH   1   7
BRANCH   1  13
ATOM     13  C   UNL     1       0.067  -4.258   0.205  0.00  0.00    +0.142 C 
ATOM     14  C   UNL     1      -0.050  -4.815   1.643  0.00  0.00    +0.256 C 
ATOM     15  O   UNL     1       1.324  -4.974   2.036  0.00  0.00    -0.489 OA
ATOM     16  C   UNL     1       2.087  -5.187   0.928  0.00  0.00    +0.129 A 
ATOM     17  C   UNL     1       1.424  -4.781  -0.225  0.00  0.00    +0.018 A 
ATOM     18  C   UNL     1       2.021  -4.895  -1.461  0.00  0.00    +0.013 A 
ATOM     19  C   UNL     1       3.293  -5.427  -1.570  0.00  0.00    +0.046 A 
ATOM     20  C   UNL     1       3.964  -5.844  -0.429  0.00  0.00    +0.120 A 
ATOM     21  C   UNL     1       3.365  -5.725   0.816  0.00  0.00    +0.091 A 
BRANCH  20  22
ATOM     22  O   UNL     1       5.212  -6.370  -0.532  0.00  0.00    -0.507 OA
ATOM     23  H   UNL     1       5.921  -5.715  -0.471  0.00  0.00    +0.292 HD
ENDBRANCH  20  22
ENDBRANCH   1  13
TORSDOF 3
