REMARK  Name = ZINC34681319
REMARK  7 active torsions:
REMARK  status: ('A' for Active; 'I' for Inactive)
REMARK    1  A    between atoms: C_1  and  C_2
REMARK    2  A    between atoms: C_5  and  C_34
REMARK    3  A    between atoms: C_6  and  N_8
REMARK    4  A    between atoms: N_11  and  C_12
REMARK    5  A    between atoms: C_24  and  C_26
REMARK    6  A    between atoms: C_29  and  O_32
REMARK    7  A    between atoms: O_32  and  C_33
REMARK                            x       y       z     vdW  Elec       q    Type
REMARK                         _______ _______ _______ _____ _____    ______ ____
ROOT
ATOM      1  C   UNL     1       1.110  -2.081   6.130  0.00  0.00    +0.051 A 
ATOM      2  C   UNL     1       1.118  -0.689   6.190  0.00  0.00    +0.028 A 
ATOM      3  C   UNL     1       0.958  -0.082   7.422  0.00  0.00    +0.043 A 
ATOM      4  C   UNL     1       0.795  -0.875   8.553  0.00  0.00    +0.099 A 
ATOM      5  N   UNL     1       0.793  -2.196   8.458  0.00  0.00    -0.348 N 
ATOM      6  C   UNL     1       0.938  -2.808   7.298  0.00  0.00    +0.107 A 
ATOM      7  N   UNL     1       0.634  -0.274   9.798  0.00  0.00    -0.314 N 
ATOM      8  C   UNL     1       0.493   1.184   9.912  0.00  0.00    +0.125 C 
ATOM      9  C   UNL     1      -0.803   1.494  10.671  0.00  0.00    +0.127 C 
ATOM     10  N   UNL     1      -0.837   0.681  11.895  0.00  0.00    -0.295 N 
ATOM     11  C   UNL     1      -0.697  -0.777  11.781  0.00  0.00    +0.127 C 
ATOM     12  C   UNL     1       0.594  -1.088  11.022  0.00  0.00    +0.125 C 
ATOM     13  C   UNL     1      -0.994   1.263  13.100  0.00  0.00    +0.247 C 
ATOM     14  O   UNL     1      -0.925   0.592  14.112  0.00  0.00    -0.270 OA
ATOM     15  H   UNL     1       0.678  -2.727   9.261  0.00  0.00    +0.167 HD
ENDROOT
BRANCH   1  19
ATOM     16  N   UNL     1       2.082  -2.760   2.714  0.00  0.00    -0.269 N 
ATOM     17  C   UNL     1       2.011  -2.178   3.927  0.00  0.00    +0.308 C 
ATOM     18  O   UNL     1       2.617  -1.146   4.143  0.00  0.00    -0.252 OA
ATOM     19  N   UNL     1       1.269  -2.739   4.902  0.00  0.00    -0.268 N 
ATOM     20  H   UNL     1       1.535  -3.536   2.516  0.00  0.00    +0.156 HD
ATOM     21  H   UNL     1       0.844  -3.599   4.754  0.00  0.00    +0.156 HD
BRANCH  16  27
ATOM     22  C   UNL     1       6.070  -0.126   1.559  0.00  0.00    +0.044 C 
ATOM     23  C   UNL     1       4.886  -0.965   1.153  0.00  0.00    -0.049 A 
ATOM     24  C   UNL     1       4.652  -1.227  -0.185  0.00  0.00    +0.004 A 
ATOM     25  C   UNL     1       3.567  -1.996  -0.562  0.00  0.00    +0.005 A 
ATOM     26  C   UNL     1       2.713  -2.506   0.396  0.00  0.00    -0.029 A 
ATOM     27  C   UNL     1       2.945  -2.245   1.740  0.00  0.00    +0.038 A 
ATOM     28  C   UNL     1       4.039  -1.477   2.116  0.00  0.00    +0.027 A 
ATOM     29  C   UNL     1       1.530  -3.344  -0.016  0.00  0.00    +0.045 C 
ENDBRANCH  16  27
ENDBRANCH   1  19
BRANCH  13  30
ATOM     30  C   UNL     1      -1.248   2.714  13.192  0.00  0.00    +0.037 A 
ATOM     31  C   UNL     1      -2.146   3.325  12.313  0.00  0.00    +0.016 A 
ATOM     32  C   UNL     1      -2.381   4.679  12.402  0.00  0.00    +0.046 A 
ATOM     33  C   UNL     1      -1.725   5.438  13.365  0.00  0.00    +0.120 A 
ATOM     34  C   UNL     1      -0.831   4.834  14.241  0.00  0.00    +0.046 A 
ATOM     35  C   UNL     1      -0.595   3.479  14.162  0.00  0.00    +0.016 A 
BRANCH  33  36
ATOM     36  O   UNL     1      -1.959   6.772  13.449  0.00  0.00    -0.495 OA
ATOM     37  C   UNL     1      -1.252   7.492  14.461  0.00  0.00    +0.277 C 
ENDBRANCH  33  36
ENDBRANCH  13  30
TORSDOF 4
