REMARK  Name = ZINC02470366
REMARK  8 active torsions:
REMARK  status: ('A' for Active; 'I' for Inactive)
REMARK    1  A    between atoms: C_1  and  C_2
REMARK    2  A    between atoms: N_7  and  C_8
REMARK    3  A    between atoms: C_8  and  C_10
REMARK    4  A    between atoms: C_8  and  C_19
REMARK    5  A    between atoms: C_13  and  N_16
REMARK    6  A    between atoms: N_16  and  C_17
REMARK    7  A    between atoms: N_16  and  C_18
REMARK    8  A    between atoms: C_28  and  O_29
REMARK                            x       y       z     vdW  Elec       q    Type
REMARK                         _______ _______ _______ _____ _____    ______ ____
ROOT
ATOM      1  C   UNL     1       1.452   2.354   4.684  0.00  0.00    +0.136 C 
ENDROOT
BRANCH   1   8
ATOM      2  C   UNL     1       1.658   6.077   8.202  0.00  0.00    +0.044 C 
ATOM      3  C   UNL     1       0.556   5.265   7.571  0.00  0.00    -0.046 A 
ATOM      4  C   UNL     1      -0.772   5.484   7.913  0.00  0.00    +0.021 A 
ATOM      5  C   UNL     1      -1.758   4.728   7.312  0.00  0.00    +0.084 A 
ATOM      6  C   UNL     1      -0.199   3.553   6.081  0.00  0.00    +0.097 A 
ATOM      7  C   UNL     1       0.845   4.282   6.642  0.00  0.00    +0.045 A 
ATOM      8  N   UNL     1       0.078   2.562   5.147  0.00  0.00    -0.320 N 
ATOM      9  H   UNL     1      -0.639   2.008   4.801  0.00  0.00    +0.148 HD
ATOM     10  N   UNL     1      -1.511   3.753   6.396  0.00  0.00    -0.350 N 
ATOM     11  H   UNL     1      -2.265   3.203   5.969  0.00  0.00    +0.166 HD
ENDBRANCH   1   8
BRANCH   1  12
ATOM     12  C   UNL     1       1.770   3.345   3.593  0.00  0.00    +0.021 A 
ATOM     13  C   UNL     1       0.736   3.876   2.827  0.00  0.00    +0.010 A 
ATOM     14  C   UNL     1       0.989   4.777   1.837  0.00  0.00    +0.010 A 
ATOM     15  C   UNL     1       2.312   5.169   1.575  0.00  0.00    +0.004 A 
ATOM     16  C   UNL     1       2.613   6.094   0.557  0.00  0.00    +0.011 A 
ATOM     17  C   UNL     1       3.922   6.430   0.359  0.00  0.00    +0.020 A 
ATOM     18  C   UNL     1       4.914   5.861   1.155  0.00  0.00    +0.111 A 
ATOM     19  N   UNL     1       4.629   5.000   2.102  0.00  0.00    -0.251 NA
ATOM     20  C   UNL     1       3.369   4.629   2.347  0.00  0.00    +0.113 A 
ATOM     21  C   UNL     1       3.068   3.703   3.368  0.00  0.00    +0.148 A 
BRANCH  21  22
ATOM     22  O   UNL     1       4.064   3.170   4.122  0.00  0.00    -0.504 OA
ATOM     23  H   UNL     1       4.436   2.353   3.762  0.00  0.00    +0.292 HD
ENDBRANCH  21  22
ENDBRANCH   1  12
BRANCH   1  24
ATOM     24  C   UNL     1       1.595   0.953   4.148  0.00  0.00    -0.023 A 
ATOM     25  C   UNL     1       0.639   0.442   3.289  0.00  0.00    +0.007 A 
ATOM     26  C   UNL     1       0.770  -0.840   2.792  0.00  0.00    +0.023 A 
ATOM     27  C   UNL     1       1.858  -1.619   3.163  0.00  0.00    +0.029 A 
ATOM     28  C   UNL     1       2.814  -1.105   4.030  0.00  0.00    +0.023 A 
ATOM     29  C   UNL     1       2.679   0.180   4.519  0.00  0.00    +0.007 A 
BRANCH  27  30
ATOM     30  N   UNL     1       1.990  -2.918   2.667  0.00  0.00    -0.336 N 
ATOM     31  C   UNL     1       3.138  -3.739   3.059  0.00  0.00    +0.129 C 
ATOM     32  C   UNL     1       0.981  -3.459   1.753  0.00  0.00    +0.129 C 
ENDBRANCH  27  30
ENDBRANCH   1  24
TORSDOF 5
