REMARK  Name = ZINC46926728
REMARK  8 active torsions:
REMARK  status: ('A' for Active; 'I' for Inactive)
REMARK    1  A    between atoms: C_1  and  N_2
REMARK    2  A    between atoms: N_2  and  C_3
REMARK    3  A    between atoms: N_2  and  C_4
REMARK    4  A    between atoms: C_4  and  C_5
REMARK    5  A    between atoms: C_9  and  C_11
REMARK    6  A    between atoms: C_11  and  N_12
REMARK    7  A    between atoms: N_15  and  N_16
REMARK    8  A    between atoms: N_16  and  C_17
REMARK                            x       y       z     vdW  Elec       q    Type
REMARK                         _______ _______ _______ _____ _____    ______ ____
ROOT
ATOM      1  N   UNL     1       0.188  -5.662   2.242  0.00  0.00    -0.294 N 
ATOM      2  C   UNL     1       0.474  -6.322   3.381  0.00  0.00    +0.316 C 
ATOM      3  O   UNL     1      -0.415  -6.860   4.012  0.00  0.00    -0.251 OA
ATOM      4  N   UNL     1       1.747  -6.388   3.821  0.00  0.00    -0.220 N 
ATOM      5  H   UNL     1       0.898  -5.233   1.739  0.00  0.00    +0.151 HD
ATOM      6  H   UNL     1       1.952  -6.863   4.641  0.00  0.00    +0.174 HD
ENDROOT
BRANCH   4   7
ATOM      7  N   UNL     1       2.772  -5.768   3.095  0.00  0.00    -0.258 N 
ATOM      8  H   UNL     1       2.558  -5.228   2.318  0.00  0.00    +0.170 HD
BRANCH   7   9
ATOM      9  C   UNL     1       4.107  -5.929   3.490  0.00  0.00    +0.121 A 
ATOM     10  C   UNL     1       4.534  -7.139   4.022  0.00  0.00    +0.186 A 
ATOM     11  C   UNL     1       5.853  -7.297   4.412  0.00  0.00    +0.198 A 
ATOM     12  C   UNL     1       6.748  -6.248   4.270  0.00  0.00    +0.199 A 
ATOM     13  C   UNL     1       6.324  -5.040   3.739  0.00  0.00    +0.198 A 
ATOM     14  C   UNL     1       5.007  -4.880   3.344  0.00  0.00    +0.186 A 
ATOM     15  F   UNL     1       4.595  -3.705   2.821  0.00  0.00    -0.200 F 
ATOM     16  F   UNL     1       7.198  -4.019   3.602  0.00  0.00    -0.199 F 
ATOM     17  F   UNL     1       8.035  -6.403   4.651  0.00  0.00    -0.199 F 
ATOM     18  F   UNL     1       6.269  -8.473   4.930  0.00  0.00    -0.199 F 
ATOM     19  F   UNL     1       3.661  -8.162   4.161  0.00  0.00    -0.200 F 
ENDBRANCH   7   9
ENDBRANCH   4   7
BRANCH   1  20
ATOM     20  C   UNL     1      -1.195  -5.591   1.764  0.00  0.00    +0.141 C 
BRANCH  20  25
ATOM     21  C   UNL     1      -1.476  -2.709  -0.658  0.00  0.00    -0.064 A 
ATOM     22  C   UNL     1      -1.332  -3.354  -1.873  0.00  0.00    +0.002 A 
ATOM     23  C   UNL     1      -1.145  -4.723  -1.910  0.00  0.00    +0.001 A 
ATOM     24  C   UNL     1      -1.100  -5.447  -0.733  0.00  0.00    +0.005 A 
ATOM     25  C   UNL     1      -1.243  -4.802   0.481  0.00  0.00    -0.030 A 
ATOM     26  C   UNL     1      -1.426  -3.432   0.519  0.00  0.00    +0.007 A 
BRANCH  21  27
ATOM     27  C   UNL     1      -1.681  -1.216  -0.618  0.00  0.00    -0.044 C 
BRANCH  27  29
ATOM     28  C   UNL     1      -0.569   0.909  -0.629  0.00  0.00    -0.096 C 
ATOM     29  N   UNL     1      -0.376  -0.545  -0.548  0.00  0.00    +0.379 N 
ATOM     30  C   UNL     1       0.281  -0.882   0.722  0.00  0.00    -0.096 C 
ATOM     31  H   UNL     1       0.201  -0.851  -1.317  0.00  0.00    -0.082 HD
ENDBRANCH  27  29
ENDBRANCH  21  27
ENDBRANCH  20  25
ENDBRANCH   1  20
TORSDOF 6
