REMARK  Name = ZINC63389187
REMARK  5 active torsions:
REMARK  status: ('A' for Active; 'I' for Inactive)
REMARK    1  A    between atoms: C_1  and  C_2
REMARK    2  A    between atoms: C_2  and  C_3
REMARK    3  A    between atoms: C_2  and  C_4
REMARK    4  A    between atoms: C_7  and  N_10
REMARK    5  A    between atoms: N_20  and  C_24
REMARK                            x       y       z     vdW  Elec       q    Type
REMARK                         _______ _______ _______ _____ _____    ______ ____
ROOT
ATOM      1  N   UNL     1      -5.320  -1.968   0.042  0.00  0.00    -0.264 N 
ATOM      2  C   UNL     1      -5.825  -2.721  -1.092  0.00  0.00    +0.121 C 
ATOM      3  C   UNL     1      -5.229  -2.277  -2.446  0.00  0.00    +0.190 C 
ATOM      4  S   UNL     1      -6.461  -3.037  -3.595  0.00  0.00    -0.028 S 
ATOM      5  O   UNL     1      -6.794  -2.095  -4.605  0.00  0.00    -0.174 OA
ATOM      6  O   UNL     1      -6.010  -4.332  -3.967  0.00  0.00    -0.174 OA
ATOM      7  C   UNL     1      -7.888  -3.206  -2.438  0.00  0.00    +0.186 C 
ATOM      8  C   UNL     1      -7.347  -2.514  -1.180  0.00  0.00    +0.101 C 
ATOM      9  N   UNL     1      -7.947  -3.005   0.056  0.00  0.00    -0.285 NA
ATOM     10  C   UNL     1      -7.565  -2.113   1.165  0.00  0.00    +0.181 C 
ATOM     11  C   UNL     1      -6.113  -1.740   1.105  0.00  0.00    +0.234 C 
ATOM     12  O   UNL     1      -5.625  -1.196   2.072  0.00  0.00    -0.274 OA
ENDROOT
BRANCH   9  13
ATOM     13  C   UNL     1      -9.408  -3.095  -0.067  0.00  0.00    +0.058 C 
ATOM     14  C   UNL     1      -9.976  -1.684  -0.323  0.00  0.00    +0.019 C 
ATOM     15  C   UNL     1     -11.339  -1.824  -0.944  0.00  0.00    +0.002 C 
ATOM     16  C   UNL     1     -12.470  -1.777   0.102  0.00  0.00    +0.000 C 
ATOM     17  C   UNL     1     -12.139  -2.578   1.375  0.00  0.00    +0.000 C 
ATOM     18  C   UNL     1     -11.475  -3.894   1.072  0.00  0.00    +0.002 C 
ATOM     19  C   UNL     1      -9.946  -3.699   1.143  0.00  0.00    +0.019 C 
ENDBRANCH   9  13
BRANCH   1  23
ATOM     20  C   UNL     1      -1.412  -0.525   0.011  0.00  0.00    -0.045 A 
ATOM     21  C   UNL     1      -1.644  -1.887   0.067  0.00  0.00    +0.006 A 
ATOM     22  C   UNL     1      -2.939  -2.368   0.077  0.00  0.00    +0.024 A 
ATOM     23  C   UNL     1      -4.008  -1.483   0.032  0.00  0.00    +0.037 A 
ATOM     24  C   UNL     1      -3.771  -0.116  -0.024  0.00  0.00    +0.024 A 
ATOM     25  C   UNL     1      -2.474   0.360  -0.029  0.00  0.00    +0.006 A 
BRANCH  20  27
ATOM     26  C   UNL     1       0.722  -0.455   1.271  0.00  0.00    +0.012 C 
ATOM     27  C   UNL     1       0.002  -0.003  -0.001  0.00  0.00    +0.013 C 
ATOM     28  C   UNL     1       0.737  -0.549  -1.226  0.00  0.00    +0.012 C 
ENDBRANCH  20  27
ENDBRANCH   1  23
TORSDOF 3
