REMARK  Name = ZINC65494091
REMARK  5 active torsions:
REMARK  status: ('A' for Active; 'I' for Inactive)
REMARK    1  A    between atoms: C_1  and  C_2
REMARK    2  A    between atoms: C_4  and  N_9
REMARK    3  A    between atoms: N_12  and  C_15
REMARK    4  A    between atoms: C_15  and  C_16
REMARK    5  A    between atoms: C_21  and  N_22
REMARK                            x       y       z     vdW  Elec       q    Type
REMARK                         _______ _______ _______ _____ _____    ______ ____
ROOT
ATOM      1  N   UNL     1       0.303  -2.578  -2.340  0.00  0.00    -0.313 N 
ATOM      2  C   UNL     1       0.079  -4.030  -2.270  0.00  0.00    +0.122 C 
ATOM      3  C   UNL     1       1.135  -4.728  -3.132  0.00  0.00    +0.103 C 
ATOM      4  N   UNL     1       1.110  -4.160  -4.487  0.00  0.00    -0.295 NA
ATOM      5  C   UNL     1       1.470  -2.736  -4.474  0.00  0.00    +0.103 C 
ATOM      6  C   UNL     1       0.421  -1.955  -3.667  0.00  0.00    +0.122 C 
ENDROOT
BRANCH   1  10
ATOM      7  C   UNL     1       0.702   1.795  -0.118  0.00  0.00    +0.063 C 
ATOM      8  C   UNL     1       0.589   0.293  -0.086  0.00  0.00    +0.019 A 
ATOM      9  C   UNL     1       0.499  -0.426  -1.262  0.00  0.00    +0.064 A 
ATOM     10  C   UNL     1       0.396  -1.817  -1.186  0.00  0.00    +0.127 A 
ATOM     11  N   UNL     1       0.387  -2.399   0.009  0.00  0.00    -0.201 NA
ATOM     12  C   UNL     1       0.475  -1.673   1.113  0.00  0.00    +0.192 A 
ATOM     13  N   UNL     1       0.579  -0.353   1.071  0.00  0.00    -0.332 N 
ATOM     14  N   UNL     1       0.464  -2.311   2.342  0.00  0.00    -0.329 N 
ATOM     15  H   UNL     1       0.392  -3.277   2.386  0.00  0.00    +0.145 HD
ATOM     16  H   UNL     1       0.527  -1.791   3.158  0.00  0.00    +0.145 HD
ATOM     17  H   UNL     1       0.646   0.148   1.899  0.00  0.00    +0.168 HD
ENDBRANCH   1  10
BRANCH   4  18
ATOM     18  C   UNL     1       1.986  -4.917  -5.391  0.00  0.00    +0.122 C 
BRANCH  18  19
ATOM     19  C   UNL     1       1.672  -4.550  -6.819  0.00  0.00    -0.005 A 
ATOM     20  C   UNL     1       2.520  -3.716  -7.521  0.00  0.00    +0.045 A 
ATOM     21  C   UNL     1       2.231  -3.379  -8.833  0.00  0.00    +0.124 A 
ATOM     22  C   UNL     1       1.091  -3.876  -9.443  0.00  0.00    +0.040 A 
ATOM     23  C   UNL     1       0.241  -4.710  -8.744  0.00  0.00    +0.031 A 
ATOM     24  C   UNL     1       0.532  -5.055  -7.431  0.00  0.00    +0.070 A 
ATOM     25  F   UNL     1       3.062  -2.563  -9.518  0.00  0.00    -0.205 F 
BRANCH  24  26
ATOM     26  N   UNL     1      -0.327  -5.906  -6.721  0.00  0.00    -0.240 N 
ATOM     27  C   UNL     1      -1.409  -6.542  -7.222  0.00  0.00    +0.114 A 
ATOM     28  C   UNL     1      -1.965  -7.263  -6.220  0.00  0.00    +0.041 A 
ATOM     29  C   UNL     1      -1.197  -7.061  -5.068  0.00  0.00    +0.135 A 
ATOM     30  N   UNL     1      -0.211  -6.254  -5.369  0.00  0.00    -0.175 NA
ENDBRANCH  24  26
ENDBRANCH  18  19
ENDBRANCH   4  18
TORSDOF 4
