REMARK  Name = ZINC59170491
REMARK  9 active torsions:
REMARK  status: ('A' for Active; 'I' for Inactive)
REMARK    1  A    between atoms: C_1  and  O_2
REMARK    2  A    between atoms: O_2  and  C_3
REMARK    3  A    between atoms: C_6  and  N_9
REMARK    4  A    between atoms: C_10  and  C_12
REMARK    5  A    between atoms: C_18  and  O_33
REMARK    6  A    between atoms: N_22  and  C_23
REMARK    7  A    between atoms: C_26  and  S_29
REMARK    8  A    between atoms: S_29  and  N_32
REMARK    9  A    between atoms: O_33  and  C_34
REMARK                            x       y       z     vdW  Elec       q    Type
REMARK                         _______ _______ _______ _____ _____    ______ ____
ROOT
ATOM      1  C   UNL     1       3.380  -4.421  -5.377  0.00  0.00    +0.098 A 
ATOM      2  C   UNL     1       3.431  -5.806  -5.474  0.00  0.00    +0.030 A 
ATOM      3  C   UNL     1       4.150  -6.374  -6.617  0.00  0.00    +0.022 A 
ATOM      4  C   UNL     1       4.027  -7.732  -6.938  0.00  0.00    +0.012 A 
ATOM      5  C   UNL     1       4.702  -8.240  -8.012  0.00  0.00    +0.004 A 
ATOM      6  C   UNL     1       5.510  -7.423  -8.790  0.00  0.00    +0.049 A 
ATOM      7  C   UNL     1       5.648  -6.079  -8.490  0.00  0.00    +0.163 A 
ATOM      8  C   UNL     1       4.971  -5.542  -7.399  0.00  0.00    +0.179 A 
ATOM      9  O   UNL     1       5.098  -4.229  -7.084  0.00  0.00    -0.435 OA
ATOM     10  C   UNL     1       4.051  -3.647  -6.440  0.00  0.00    +0.212 A 
ATOM     11  N   UNL     1       3.652  -2.432  -6.749  0.00  0.00    -0.325 N 
ATOM     12  H   UNL     1       2.841  -2.073  -6.355  0.00  0.00    +0.169 HD
ENDROOT
BRANCH  11  13
ATOM     13  C   UNL     1       4.380  -1.675  -7.625  0.00  0.00    +0.042 A 
ATOM     14  C   UNL     1       5.771  -1.614  -7.512  0.00  0.00    +0.027 A 
ATOM     15  C   UNL     1       6.498  -0.849  -8.400  0.00  0.00    +0.030 A 
ATOM     16  C   UNL     1       5.853  -0.142  -9.400  0.00  0.00    +0.105 A 
ATOM     17  C   UNL     1       4.475  -0.198  -9.517  0.00  0.00    +0.030 A 
ATOM     18  C   UNL     1       3.736  -0.964  -8.641  0.00  0.00    +0.027 A 
BRANCH  16  19
ATOM     19  S   UNL     1       6.790   0.833 -10.528  0.00  0.00    +0.056 S 
ATOM     20  O   UNL     1       5.911   1.830 -11.032  0.00  0.00    -0.153 OA
ATOM     21  O   UNL     1       8.009   1.155  -9.873  0.00  0.00    -0.153 OA
BRANCH  19  22
ATOM     22  N   UNL     1       7.184  -0.141 -11.808  0.00  0.00    -0.204 NA
ATOM     23  H   UNL     1       6.893  -1.066 -11.821  0.00  0.00    +0.144 HD
ATOM     24  H   UNL     1       7.705   0.213 -12.545  0.00  0.00    +0.144 HD
ENDBRANCH  19  22
ENDBRANCH  16  19
ENDBRANCH  11  13
BRANCH   1  26
ATOM     25  N   UNL     1       2.765  -2.417  -4.122  0.00  0.00    -0.281 N 
ATOM     26  C   UNL     1       2.682  -3.755  -4.265  0.00  0.00    +0.253 C 
ATOM     27  O   UNL     1       2.030  -4.411  -3.475  0.00  0.00    -0.270 OA
ATOM     28  H   UNL     1       3.241  -1.888  -4.781  0.00  0.00    +0.155 HD
BRANCH  25  32
ATOM     29  C   UNL     1       0.979  -0.554  -0.848  0.00  0.00    +0.120 A 
ATOM     30  C   UNL     1       2.172  -0.065  -1.358  0.00  0.00    +0.047 A 
ATOM     31  C   UNL     1       2.765  -0.681  -2.442  0.00  0.00    +0.027 A 
ATOM     32  C   UNL     1       2.166  -1.792  -3.022  0.00  0.00    +0.034 A 
ATOM     33  C   UNL     1       0.971  -2.281  -2.511  0.00  0.00    +0.027 A 
ATOM     34  C   UNL     1       0.382  -1.667  -1.423  0.00  0.00    +0.047 A 
BRANCH  29  36
ATOM     35  C   UNL     1       1.065   1.194   0.762  0.00  0.00    +0.277 C 
ATOM     36  O   UNL     1       0.396   0.053   0.220  0.00  0.00    -0.495 OA
ENDBRANCH  29  36
ENDBRANCH  25  32
ENDBRANCH   1  26
BRANCH   7  37
ATOM     37  O   UNL     1       6.443  -5.286  -9.258  0.00  0.00    -0.491 OA
ATOM     38  C   UNL     1       7.106  -5.907 -10.361  0.00  0.00    +0.277 C 
ENDBRANCH   7  37
TORSDOF 7
