REMARK  Name = ZINC02273450
REMARK  6 active torsions:
REMARK  status: ('A' for Active; 'I' for Inactive)
REMARK    1  A    between atoms: C_1  and  C_2
REMARK    2  A    between atoms: C_2  and  C_36
REMARK    3  A    between atoms: C_6  and  C_28
REMARK    4  A    between atoms: C_8  and  C_9
REMARK    5  A    between atoms: C_17  and  C_19
REMARK    6  A    between atoms: C_22  and  N_25
REMARK                            x       y       z     vdW  Elec       q    Type
REMARK                         _______ _______ _______ _____ _____    ______ ____
ROOT
ATOM      1  C   UNL     1       1.330   2.155  -1.286  0.00  0.00    +0.041 C 
ATOM      2  C   UNL     1       2.548   1.551  -0.584  0.00  0.00    +0.068 C 
ATOM      3  C   UNL     1       2.292   0.070  -0.294  0.00  0.00    +0.071 C 
ATOM      4  C   UNL     1       1.263  -0.062   0.796  0.00  0.00    -0.017 A 
ATOM      5  C   UNL     1       0.939   0.994   1.615  0.00  0.00    +0.007 A 
ATOM      6  C   UNL     1      -0.020   0.813   2.615  0.00  0.00    +0.053 A 
ATOM      7  C   UNL     1      -0.341  -1.399   2.018  0.00  0.00    +0.117 A 
ATOM      8  C   UNL     1       0.615  -1.290   0.991  0.00  0.00    +0.093 A 
ATOM      9  N   UNL     1      -0.991  -2.603   2.227  0.00  0.00    -0.313 N 
ATOM     10  C   UNL     1      -2.410  -2.505   1.860  0.00  0.00    +0.125 C 
ATOM     11  C   UNL     1      -3.051  -3.895   1.933  0.00  0.00    +0.127 C 
ATOM     12  N   UNL     1      -2.791  -4.460   3.265  0.00  0.00    -0.295 N 
ATOM     13  C   UNL     1      -1.406  -4.467   3.761  0.00  0.00    +0.127 C 
ATOM     14  C   UNL     1      -0.830  -3.054   3.616  0.00  0.00    +0.125 C 
ATOM     15  C   UNL     1      -3.795  -4.959   4.013  0.00  0.00    +0.247 C 
ATOM     16  O   UNL     1      -3.581  -5.325   5.152  0.00  0.00    -0.270 OA
ATOM     17  C   UNL     1       1.592   2.341   1.456  0.00  0.00    +0.198 C 
ATOM     18  O   UNL     1       2.770   2.226   0.659  0.00  0.00    -0.369 OA
ATOM     19  C   UNL     1       3.781   1.698  -1.477  0.00  0.00    +0.041 C 
ATOM     20  N   UNL     1      -0.670  -0.368   2.846  0.00  0.00    -0.342 N 
ATOM     21  H   UNL     1      -1.364  -0.472   3.596  0.00  0.00    +0.167 HD
ENDROOT
BRANCH  15  22
ATOM     22  C   UNL     1      -5.158  -5.060   3.448  0.00  0.00    +0.037 A 
ATOM     23  C   UNL     1      -5.335  -5.339   2.092  0.00  0.00    +0.015 A 
ATOM     24  C   UNL     1      -6.609  -5.438   1.572  0.00  0.00    +0.033 A 
ATOM     25  C   UNL     1      -7.709  -5.250   2.389  0.00  0.00    +0.126 A 
ATOM     26  C   UNL     1      -7.540  -4.968   3.733  0.00  0.00    +0.033 A 
ATOM     27  C   UNL     1      -6.272  -4.872   4.267  0.00  0.00    +0.015 A 
BRANCH  25  28
ATOM     28  N   UNL     1      -9.073  -5.351   1.823  0.00  0.00    +0.056 N 
ATOM     29  O   UNL     1     -10.044  -5.186   2.540  0.00  0.00    -0.126 OA
ATOM     30  O   UNL     1      -9.225  -5.599   0.640  0.00  0.00    -0.126 OA
ENDBRANCH  25  28
ENDBRANCH  15  22
BRANCH   6  31
ATOM     31  C   UNL     1      -0.373   1.947   3.502  0.00  0.00    -0.001 A 
ATOM     32  C   UNL     1      -0.483   1.751   4.878  0.00  0.00    +0.010 A 
ATOM     33  C   UNL     1      -0.812   2.811   5.699  0.00  0.00    +0.001 A 
ATOM     34  C   UNL     1      -1.032   4.066   5.159  0.00  0.00    +0.000 A 
ATOM     35  C   UNL     1      -0.924   4.265   3.794  0.00  0.00    +0.001 A 
ATOM     36  C   UNL     1      -0.596   3.213   2.963  0.00  0.00    +0.010 A 
ENDBRANCH   6  31
BRANCH   8  37
ATOM     37  C   UNL     1       0.919  -2.414   0.158  0.00  0.00    +0.103 C 
ATOM     38  N   UNL     1       1.161  -3.306  -0.503  0.00  0.00    -0.191 NA
ENDBRANCH   8  37
TORSDOF 4
