REMARK  Name = ZINC63633436
REMARK  5 active torsions:
REMARK  status: ('A' for Active; 'I' for Inactive)
REMARK    1  A    between atoms: C_1  and  C_2
REMARK    2  A    between atoms: C_7  and  C_27
REMARK    3  A    between atoms: N_15  and  C_16
REMARK    4  A    between atoms: C_16  and  C_17
REMARK    5  A    between atoms: C_17  and  C_18
REMARK                            x       y       z     vdW  Elec       q    Type
REMARK                         _______ _______ _______ _____ _____    ______ ____
ROOT
ATOM      1  C   UNL     1      -1.120   1.352  -0.314  0.00  0.00    +0.060 C 
ATOM      2  C   UNL     1      -0.809  -0.120  -0.235  0.00  0.00    +0.008 C 
ATOM      3  C   UNL     1      -0.743  -0.838  -1.369  0.00  0.00    +0.085 C 
ATOM      4  C   UNL     1      -0.439  -2.217  -1.370  0.00  0.00    +0.245 C 
ATOM      5  O   UNL     1      -0.400  -2.826  -2.423  0.00  0.00    -0.270 OA
ATOM      6  N   UNL     1      -0.192  -2.861  -0.219  0.00  0.00    -0.237 N 
ATOM      7  C   UNL     1       0.219  -4.264  -0.181  0.00  0.00    +0.232 C 
ATOM      8  N   UNL     1       1.315  -4.420   0.777  0.00  0.00    -0.228 NA
ATOM      9  C   UNL     1       1.632  -3.504   1.634  0.00  0.00    +0.180 C 
ATOM     10  N   UNL     1       0.989  -2.293   1.710  0.00  0.00    -0.284 N 
ATOM     11  C   UNL     1      -0.319  -2.134   1.059  0.00  0.00    +0.257 C 
ATOM     12  N   UNL     1      -0.595  -0.692   0.988  0.00  0.00    -0.314 N 
ATOM     13  N   UNL     1       2.661  -3.756   2.511  0.00  0.00    -0.317 N 
ATOM     14  H   UNL     1       1.393  -1.551   2.188  0.00  0.00    +0.152 HD
ATOM     15  H   UNL     1      -0.628  -0.156   1.796  0.00  0.00    +0.149 HD
ATOM     16  H   UNL     1       2.917  -3.086   3.163  0.00  0.00    +0.149 HD
ENDROOT
BRANCH   7  17
ATOM     17  C   UNL     1       0.681  -4.691  -1.550  0.00  0.00    +0.013 A 
ATOM     18  C   UNL     1       1.840  -4.161  -2.097  0.00  0.00    +0.010 A 
ATOM     19  C   UNL     1       2.226  -4.583  -3.360  0.00  0.00    +0.020 A 
ATOM     20  C   UNL     1       1.449  -5.511  -4.027  0.00  0.00    +0.111 A 
ATOM     21  N   UNL     1       0.353  -5.994  -3.476  0.00  0.00    -0.263 NA
ATOM     22  C   UNL     1      -0.042  -5.620  -2.275  0.00  0.00    +0.118 A 
ENDBRANCH   7  17
BRANCH  13  23
ATOM     23  C   UNL     1       3.370  -5.037   2.460  0.00  0.00    +0.108 C 
BRANCH  23  24
ATOM     24  C   UNL     1       4.460  -5.060   3.534  0.00  0.00    +0.052 C 
BRANCH  24  25
ATOM     25  C   UNL     1       5.189  -6.378   3.481  0.00  0.00    -0.040 C 
ATOM     26  C   UNL     1       6.341  -6.644   2.825  0.00  0.00    -0.001 A 
ATOM     27  C   UNL     1       7.227  -5.818   1.996  0.00  0.00    +0.010 A 
ATOM     28  C   UNL     1       8.335  -6.379   1.460  0.00  0.00    +0.001 A 
ATOM     29  C   UNL     1       8.659  -7.725   1.677  0.00  0.00    +0.002 A 
ATOM     30  C   UNL     1       7.894  -8.547   2.428  0.00  0.00    +0.026 A 
ATOM     31  C   UNL     1       6.705  -8.063   3.040  0.00  0.00    +0.043 A 
ATOM     32  N   UNL     1       5.812  -8.651   3.798  0.00  0.00    -0.380 N 
ATOM     33  C   UNL     1       4.783  -7.669   4.157  0.00  0.00    +0.144 C 
ATOM     34  H   UNL     1       5.831  -9.579   4.079  0.00  0.00    +0.160 HD
ENDBRANCH  24  25
ENDBRANCH  23  24
ENDBRANCH  13  23
TORSDOF 4
