REMARK  Name = ZINC15418779
REMARK  13 active torsions:
REMARK  status: ('A' for Active; 'I' for Inactive)
REMARK    1  A    between atoms: C_1  and  C_2
REMARK    2  A    between atoms: C_6  and  C_32
REMARK    3  A    between atoms: C_7  and  N_8
REMARK    4  A    between atoms: C_9  and  C_11
REMARK    5  A    between atoms: C_11  and  N_66
REMARK    6  A    between atoms: C_12  and  C_13
REMARK    7  A    between atoms: C_12  and  N_66
REMARK    8  A    between atoms: C_13  and  C_14
REMARK    9  A    between atoms: C_20  and  C_21
REMARK   10  A    between atoms: C_20  and  N_66
REMARK   11  A    between atoms: N_23  and  C_24
REMARK   12  A    between atoms: C_25  and  C_31
REMARK   13  A    between atoms: C_29  and  C_30
REMARK                            x       y       z     vdW  Elec       q    Type
REMARK                         _______ _______ _______ _____ _____    ______ ____
ROOT
ATOM      1  N   UNL     1       0.772   3.149   7.049  0.00  0.00    +0.391 N 
ATOM      2  H   UNL     1       1.284   2.716   7.826  0.00  0.00    -0.080 HD
ENDROOT
BRANCH   1   3
ATOM      3  C   UNL     1       0.393   2.099   6.080  0.00  0.00    +0.020 C 
BRANCH   3   5
ATOM      4  N   UNL     1       1.538   0.279   4.856  0.00  0.00    -0.287 N 
ATOM      5  C   UNL     1       1.602   1.246   5.793  0.00  0.00    +0.201 C 
ATOM      6  O   UNL     1       2.632   1.428   6.406  0.00  0.00    -0.278 OA
ATOM      7  H   UNL     1       0.698   0.093   4.408  0.00  0.00    +0.155 HD
BRANCH   4  14
ATOM      8  C   UNL     1       3.699   1.645   3.606  0.00  0.00    +0.045 C 
ATOM      9  C   UNL     1       3.761   0.172   3.917  0.00  0.00    -0.029 A 
ATOM     10  C   UNL     1       4.891  -0.555   3.600  0.00  0.00    +0.005 A 
ATOM     11  C   UNL     1       4.947  -1.908   3.881  0.00  0.00    +0.001 A 
ATOM     12  C   UNL     1       3.873  -2.536   4.484  0.00  0.00    +0.005 A 
ATOM     13  C   UNL     1       2.741  -1.814   4.809  0.00  0.00    -0.029 A 
ATOM     14  C   UNL     1       2.683  -0.455   4.528  0.00  0.00    +0.039 A 
ATOM     15  C   UNL     1       1.572  -2.500   5.467  0.00  0.00    +0.045 C 
ENDBRANCH   4  14
ENDBRANCH   3   5
ENDBRANCH   1   3
BRANCH   1  16
ATOM     16  C   UNL     1      -0.441   3.805   7.581  0.00  0.00    -0.073 C 
BRANCH  16  17
ATOM     17  C   UNL     1      -1.074   2.890   8.631  0.00  0.00    +0.016 C 
BRANCH  17  18
ATOM     18  C   UNL     1      -2.365   3.498   9.114  0.00  0.00    -0.049 A 
ATOM     19  C   UNL     1      -2.364   4.350  10.202  0.00  0.00    +0.003 A 
ATOM     20  C   UNL     1      -3.548   4.912  10.643  0.00  0.00    +0.000 A 
ATOM     21  C   UNL     1      -4.735   4.612  10.001  0.00  0.00    +0.000 A 
ATOM     22  C   UNL     1      -4.738   3.755   8.917  0.00  0.00    +0.000 A 
ATOM     23  C   UNL     1      -3.553   3.198   8.473  0.00  0.00    +0.003 A 
ENDBRANCH  17  18
ENDBRANCH  16  17
ENDBRANCH   1  16
BRANCH   1  24
ATOM     24  C   UNL     1       1.643   4.149   6.397  0.00  0.00    +0.020 C 
BRANCH  24  25
ATOM     25  C   UNL     1       2.190   5.077   7.450  0.00  0.00    +0.201 C 
ATOM     26  O   UNL     1       1.873   4.931   8.611  0.00  0.00    -0.278 OA
ATOM     27  N   UNL     1       3.031   6.071   7.101  0.00  0.00    -0.287 N 
ATOM     28  H   UNL     1       3.233   6.229   6.166  0.00  0.00    +0.155 HD
BRANCH  27  29
ATOM     29  C   UNL     1       3.613   6.874   8.088  0.00  0.00    +0.039 A 
ATOM     30  C   UNL     1       4.410   6.301   9.070  0.00  0.00    -0.029 A 
ATOM     31  C   UNL     1       4.988   7.097  10.040  0.00  0.00    +0.005 A 
ATOM     32  C   UNL     1       4.764   8.461  10.041  0.00  0.00    +0.001 A 
ATOM     33  C   UNL     1       3.966   9.034   9.068  0.00  0.00    +0.005 A 
ATOM     34  C   UNL     1       3.390   8.244   8.091  0.00  0.00    -0.029 A 
ATOM     35  C   UNL     1       2.521   8.870   7.031  0.00  0.00    +0.045 C 
ATOM     36  C   UNL     1       4.651   4.813   9.074  0.00  0.00    +0.045 C 
ENDBRANCH  27  29
ENDBRANCH  24  25
ENDBRANCH   1  24
TORSDOF 9
