REMARK  Name = ZINC67085732
REMARK  11 active torsions:
REMARK  status: ('A' for Active; 'I' for Inactive)
REMARK    1  A    between atoms: C_1  and  C_2
REMARK    2  A    between atoms: C_5  and  C_7
REMARK    3  A    between atoms: C_7  and  N_8
REMARK    4  A    between atoms: N_11  and  C_12
REMARK    5  A    between atoms: C_12  and  C_13
REMARK    6  A    between atoms: C_17  and  C_19
REMARK    7  A    between atoms: N_21  and  C_22
REMARK    8  A    between atoms: C_22  and  C_23
REMARK    9  A    between atoms: C_23  and  N_24
REMARK   10  A    between atoms: N_24  and  C_25
REMARK   11  A    between atoms: N_24  and  C_26
REMARK                            x       y       z     vdW  Elec       q    Type
REMARK                         _______ _______ _______ _____ _____    ______ ____
ROOT
ATOM      1  C   UNL     1       2.421  -7.714  -4.710  0.00  0.00    -0.030 A 
ATOM      2  C   UNL     1       1.333  -8.231  -5.391  0.00  0.00    +0.005 A 
ATOM      3  C   UNL     1       1.394  -8.427  -6.759  0.00  0.00    +0.001 A 
ATOM      4  C   UNL     1       2.543  -8.107  -7.453  0.00  0.00    +0.013 A 
ATOM      5  C   UNL     1       3.644  -7.585  -6.773  0.00  0.00    +0.037 A 
ATOM      6  C   UNL     1       3.573  -7.385  -5.393  0.00  0.00    +0.018 A 
ENDROOT
BRANCH   5   7
ATOM      7  C   UNL     1       4.878  -7.241  -7.510  0.00  0.00    +0.244 C 
ATOM      8  O   UNL     1       5.835  -6.787  -6.915  0.00  0.00    -0.270 OA
ATOM      9  N   UNL     1       4.941  -7.431  -8.843  0.00  0.00    -0.313 N 
ATOM     10  H   UNL     1       4.178  -7.794  -9.318  0.00  0.00    +0.149 HD
BRANCH   9  11
ATOM     11  C   UNL     1       6.164  -7.090  -9.574  0.00  0.00    +0.086 C 
BRANCH  11  12
ATOM     12  C   UNL     1       5.973  -7.400 -11.060  0.00  0.00    -0.061 C 
BRANCH  12  13
ATOM     13  N   UNL     1       7.200  -7.058 -11.793  0.00  0.00    +0.377 N 
ATOM     14  C   UNL     1       8.294  -7.932 -11.351  0.00  0.00    -0.097 C 
ATOM     15  C   UNL     1       6.977  -7.242 -13.233  0.00  0.00    -0.097 C 
ATOM     16  H   UNL     1       7.443  -6.096 -11.611  0.00  0.00    -0.083 HD
ENDBRANCH  12  13
ENDBRANCH  11  12
ENDBRANCH   9  11
ENDBRANCH   5   7
BRANCH   1  17
ATOM     17  C   UNL     1       2.345  -7.504  -3.219  0.00  0.00    +0.141 C 
BRANCH  17  21
ATOM     18  N   UNL     1       1.210  -4.510  -1.412  0.00  0.00    -0.295 N 
ATOM     19  C   UNL     1       1.680  -5.747  -1.667  0.00  0.00    +0.300 C 
ATOM     20  O   UNL     1       1.965  -6.491  -0.749  0.00  0.00    -0.253 OA
ATOM     21  N   UNL     1       1.834  -6.159  -2.941  0.00  0.00    -0.295 N 
ATOM     22  H   UNL     1       0.983  -3.917  -2.144  0.00  0.00    +0.151 HD
ATOM     23  H   UNL     1       1.606  -5.566  -3.674  0.00  0.00    +0.151 HD
BRANCH  18  24
ATOM     24  C   UNL     1       1.043  -4.062  -0.027  0.00  0.00    +0.148 C 
BRANCH  24  29
ATOM     25  C   UNL     1      -0.018   1.503   0.010  0.00  0.00    +0.051 C 
ATOM     26  C   UNL     1       0.002  -0.004   0.002  0.00  0.00    -0.013 A 
ATOM     27  C   UNL     1      -1.039  -0.872   0.002  0.00  0.00    +0.011 A 
ATOM     28  C   UNL     1      -0.780  -2.230  -0.007  0.00  0.00    +0.013 A 
ATOM     29  C   UNL     1       0.507  -2.653  -0.016  0.00  0.00    +0.007 A 
ATOM     30  S   UNL     1       1.404  -1.109  -0.018  0.00  0.00    -0.097 S 
ENDBRANCH  24  29
ENDBRANCH  18  24
ENDBRANCH  17  21
ENDBRANCH   1  17
TORSDOF 8
