REMARK  Name = ZINC36232611
REMARK  5 active torsions:
REMARK  status: ('A' for Active; 'I' for Inactive)
REMARK    1  A    between atoms: C_1  and  C_2
REMARK    2  A    between atoms: C_2  and  C_18
REMARK    3  A    between atoms: N_4  and  C_8
REMARK    4  A    between atoms: C_8  and  C_9
REMARK    5  A    between atoms: C_12  and  C_15
REMARK                            x       y       z     vdW  Elec       q    Type
REMARK                         _______ _______ _______ _____ _____    ______ ____
ROOT
ATOM      1  C   UNL     1      -2.696  -4.052  -0.126  0.00  0.00    -0.033 A 
ATOM      2  C   UNL     1      -2.679  -4.597  -1.397  0.00  0.00    +0.005 A 
ATOM      3  C   UNL     1      -2.615  -5.965  -1.563  0.00  0.00    +0.011 A 
ATOM      4  C   UNL     1      -2.566  -6.799  -0.446  0.00  0.00    +0.012 A 
ATOM      5  C   UNL     1      -2.583  -6.243   0.834  0.00  0.00    +0.011 A 
ATOM      6  C   UNL     1      -2.642  -4.873   0.987  0.00  0.00    +0.005 A 
ENDROOT
BRANCH   4   7
ATOM      7  C   UNL     1      -2.497  -8.268  -0.617  0.00  0.00    +0.094 C 
ATOM      8  N   UNL     1      -2.450  -9.061   0.452  0.00  0.00    -0.387 N 
ATOM      9  N   UNL     1      -2.482  -8.795  -1.839  0.00  0.00    -0.345 N 
ATOM     10  H   UNL     1      -2.462  -8.676   1.342  0.00  0.00    +0.157 HD
ATOM     11  H   UNL     1      -2.516  -8.218  -2.617  0.00  0.00    +0.144 HD
ATOM     12  H   UNL     1      -2.437  -9.758  -1.951  0.00  0.00    +0.144 HD
ATOM     13  H   UNL     1      -2.405 -10.023   0.340  0.00  0.00    +0.157 HD
ENDBRANCH   4   7
BRANCH   1  14
ATOM     14  C   UNL     1      -2.767  -2.557   0.049  0.00  0.00    +0.119 C 
BRANCH  14  18
ATOM     15  C   UNL     1      -0.019   1.526   0.010  0.00  0.00    +0.042 C 
ATOM     16  C   UNL     1       0.002  -0.004   0.002  0.00  0.00    +0.077 C 
ATOM     17  C   UNL     1      -1.434  -0.535   0.018  0.00  0.00    +0.119 C 
ATOM     18  N   UNL     1      -1.407  -2.003   0.088  0.00  0.00    -0.293 NA
ATOM     19  C   UNL     1      -0.689  -2.455   1.289  0.00  0.00    +0.113 C 
ATOM     20  C   UNL     1       0.739  -1.905   1.260  0.00  0.00    +0.176 C 
ATOM     21  O   UNL     1       0.694  -0.479   1.160  0.00  0.00    -0.371 OA
ATOM     22  C   UNL     1       0.716  -0.498  -1.258  0.00  0.00    +0.042 C 
ENDBRANCH  14  18
ENDBRANCH   1  14
TORSDOF 3
