REMARK  Name = ZINC66109747
REMARK  12 active torsions:
REMARK  status: ('A' for Active; 'I' for Inactive)
REMARK    1  A    between atoms: C_1  and  C_2
REMARK    2  A    between atoms: C_2  and  C_3
REMARK    3  A    between atoms: C_2  and  O_4
REMARK    4  A    between atoms: O_4  and  C_5
REMARK    5  A    between atoms: C_8  and  C_11
REMARK    6  A    between atoms: C_11  and  N_12
REMARK    7  A    between atoms: N_12  and  C_13
REMARK    8  A    between atoms: C_13  and  C_14
REMARK    9  A    between atoms: N_16  and  C_17
REMARK   10  A    between atoms: C_20  and  C_23
REMARK   11  A    between atoms: N_25  and  C_26
REMARK   12  A    between atoms: C_26  and  C_27
REMARK                            x       y       z     vdW  Elec       q    Type
REMARK                         _______ _______ _______ _____ _____    ______ ____
ROOT
ATOM      1  C   UNL     1      -1.962  -9.037  -0.555  0.00  0.00    +0.200 C 
ATOM      2  O   UNL     1      -1.567  -8.720   0.546  0.00  0.00    -0.278 OA
ATOM      3  N   UNL     1      -2.289 -10.319  -0.811  0.00  0.00    -0.287 N 
ATOM      4  H   UNL     1      -2.535 -10.587  -1.710  0.00  0.00    +0.155 HD
ENDROOT
BRANCH   3   5
ATOM      5  C   UNL     1      -2.275 -11.261   0.218  0.00  0.00    +0.033 A 
ATOM      6  C   UNL     1      -2.621 -10.882   1.511  0.00  0.00    +0.024 A 
ATOM      7  C   UNL     1      -2.607 -11.809   2.529  0.00  0.00    +0.015 A 
ATOM      8  C   UNL     1      -2.245 -13.132   2.261  0.00  0.00    +0.037 A 
ATOM      9  C   UNL     1      -1.899 -13.509   0.961  0.00  0.00    +0.015 A 
ATOM     10  C   UNL     1      -1.919 -12.579  -0.053  0.00  0.00    +0.024 A 
BRANCH   8  11
ATOM     11  C   UNL     1      -2.229 -14.128   3.350  0.00  0.00    +0.244 C 
ATOM     12  O   UNL     1      -2.531 -13.798   4.481  0.00  0.00    -0.270 OA
ATOM     13  N   UNL     1      -1.880 -15.404   3.091  0.00  0.00    -0.304 N 
ATOM     14  H   UNL     1      -1.640 -15.667   2.189  0.00  0.00    +0.149 HD
BRANCH  13  15
ATOM     15  C   UNL     1      -1.864 -16.393   4.172  0.00  0.00    +0.179 C 
BRANCH  15  16
ATOM     16  C   UNL     1      -1.443 -17.731   3.622  0.00  0.00    +0.122 A 
ATOM     17  C   UNL     1      -0.180 -18.189   3.547  0.00  0.00    +0.046 A 
ATOM     18  C   UNL     1      -0.245 -19.478   2.969  0.00  0.00    +0.041 A 
ATOM     19  C   UNL     1      -1.544 -19.731   2.726  0.00  0.00    +0.195 A 
ATOM     20  O   UNL     1      -2.265 -18.672   3.129  0.00  0.00    -0.466 OA
ENDBRANCH  15  16
ENDBRANCH  13  15
ENDBRANCH   8  11
ENDBRANCH   3   5
BRANCH   1  21
ATOM     21  C   UNL     1      -2.087  -7.997  -1.639  0.00  0.00    +0.016 C 
BRANCH  21  22
ATOM     22  N   UNL     1      -1.673  -6.690  -1.113  0.00  0.00    +0.387 N 
ATOM     23  H   UNL     1      -0.714  -6.740  -0.804  0.00  0.00    -0.085 HD
ATOM     24  H   UNL     1      -2.264  -6.438  -0.336  0.00  0.00    -0.085 HD
BRANCH  22  25
ATOM     25  C   UNL     1      -1.795  -5.676  -2.170  0.00  0.00    -0.046 C 
BRANCH  25  29
ATOM     26  C   UNL     1      -0.591  -1.872  -0.640  0.00  0.00    +0.121 A 
ATOM     27  C   UNL     1       0.343  -2.711  -1.231  0.00  0.00    +0.046 A 
ATOM     28  C   UNL     1      -0.049  -3.940  -1.724  0.00  0.00    +0.005 A 
ATOM     29  C   UNL     1      -1.370  -4.335  -1.630  0.00  0.00    -0.064 A 
ATOM     30  C   UNL     1      -2.303  -3.500  -1.043  0.00  0.00    +0.005 A 
ATOM     31  C   UNL     1      -1.915  -2.272  -0.542  0.00  0.00    +0.046 A 
BRANCH  26  32
ATOM     32  O   UNL     1      -0.208  -0.662  -0.154  0.00  0.00    -0.489 OA
BRANCH  32  34
ATOM     33  C   UNL     1      -0.499   1.053   1.524  0.00  0.00    +0.051 C 
ATOM     34  C   UNL     1      -1.192   0.093   0.555  0.00  0.00    +0.167 C 
ATOM     35  C   UNL     1      -2.034   0.894  -0.441  0.00  0.00    +0.051 C 
ENDBRANCH  32  34
ENDBRANCH  26  32
ENDBRANCH  25  29
ENDBRANCH  22  25
ENDBRANCH  21  22
ENDBRANCH   1  21
TORSDOF 10
