REMARK  Name = ZINC20832655
REMARK  9 active torsions:
REMARK  status: ('A' for Active; 'I' for Inactive)
REMARK    1  A    between atoms: C_2  and  C_3
REMARK    2  A    between atoms: C_3  and  C_4
REMARK    3  A    between atoms: C_8  and  C_11
REMARK    4  A    between atoms: C_9  and  O_10
REMARK    5  A    between atoms: N_12  and  N_13
REMARK    6  A    between atoms: C_16  and  S_19
REMARK    7  A    between atoms: S_19  and  C_20
REMARK    8  A    between atoms: C_20  and  C_21
REMARK    9  A    between atoms: N_23  and  C_24
REMARK                            x       y       z     vdW  Elec       q    Type
REMARK                         _______ _______ _______ _____ _____    ______ ____
ROOT
ATOM      1  N   UNL     1       4.955  -2.647  -0.060  0.00  0.00    -0.205 N 
ATOM      2  C   UNL     1       4.982  -4.034  -0.068  0.00  0.00    +0.232 A 
ATOM      3  N   UNL     1       6.104  -4.815  -0.088  0.00  0.00    -0.186 NA
ATOM      4  C   UNL     1       5.708  -6.123  -0.085  0.00  0.00    +0.211 A 
ATOM      5  N   UNL     1       4.396  -6.149  -0.074  0.00  0.00    -0.144 NA
ATOM      6  N   UNL     1       3.937  -4.825  -0.062  0.00  0.00    -0.245 N 
ATOM      7  H   UNL     1       5.896  -2.078  -0.066  0.00  0.00    +0.177 HD
ATOM      8  H   UNL     1       2.924  -4.398  -0.051  0.00  0.00    +0.192 HD
ENDROOT
BRANCH   1  10
ATOM      9  C   UNL     1       3.702  -0.672  -0.037  0.00  0.00    +0.142 C 
ATOM     10  N   UNL     1       3.728  -1.971  -0.044  0.00  0.00    -0.187 NA
BRANCH   9  15
ATOM     11  C   UNL     1       0.002  -0.004   0.002  0.00  0.00    -0.002 A 
ATOM     12  C   UNL     1      -0.017   1.379   0.010  0.00  0.00    +0.007 A 
ATOM     13  C   UNL     1       1.168   2.095   0.002  0.00  0.00    +0.001 A 
ATOM     14  C   UNL     1       2.379   1.435  -0.013  0.00  0.00    +0.013 A 
ATOM     15  C   UNL     1       2.411   0.039  -0.021  0.00  0.00    +0.036 A 
ATOM     16  C   UNL     1       1.209  -0.682  -0.014  0.00  0.00    +0.129 A 
BRANCH  16  17
ATOM     17  O   UNL     1       1.228  -2.040  -0.022  0.00  0.00    -0.506 OA
ATOM     18  H   UNL     1       2.189  -2.577  -0.034  0.00  0.00    +0.292 HD
ENDBRANCH  16  17
BRANCH  11  19
ATOM     19  C   UNL     1      -1.293  -0.774   0.010  0.00  0.00    +0.065 C 
BRANCH  19  21
ATOM     20  C   UNL     1      -2.814  -0.807   1.920  0.00  0.00    +0.004 C 
ATOM     21  C   UNL     1      -1.648  -1.145   1.427  0.00  0.00    -0.030 C 
ENDBRANCH  19  21
ENDBRANCH  11  19
ENDBRANCH   9  15
ENDBRANCH   1  10
BRANCH   4  22
ATOM     22  S   UNL     1       6.772  -7.527  -0.102  0.00  0.00    -0.075 S 
BRANCH  22  23
ATOM     23  C   UNL     1       5.634  -8.940  -0.100  0.00  0.00    +0.173 C 
BRANCH  23  24
ATOM     24  C   UNL     1       6.425 -10.222  -0.113  0.00  0.00    +0.224 C 
ATOM     25  O   UNL     1       7.637 -10.187  -0.124  0.00  0.00    -0.275 OA
ATOM     26  N   UNL     1       5.785 -11.409  -0.114  0.00  0.00    -0.308 N 
ATOM     27  H   UNL     1       4.686 -11.441  -0.104  0.00  0.00    +0.149 HD
BRANCH  26  28
ATOM     28  C   UNL     1       6.554 -12.655  -0.127  0.00  0.00    +0.103 C 
ATOM     29  C   UNL     1       5.702 -13.767  -0.735  0.00  0.00    +0.027 C 
ATOM     30  C   UNL     1       6.436 -15.099  -0.543  0.00  0.00    +0.007 C 
ATOM     31  C   UNL     1       6.412 -15.453   0.942  0.00  0.00    +0.035 C 
ATOM     32  C   UNL     1       6.894 -14.292   1.771  0.00  0.00    -0.042 A 
ATOM     33  C   UNL     1       6.956 -13.007   1.282  0.00  0.00    -0.024 A 
ATOM     34  C   UNL     1       7.404 -11.979   2.101  0.00  0.00    +0.006 A 
ATOM     35  C   UNL     1       7.790 -12.236   3.401  0.00  0.00    +0.000 A 
ATOM     36  C   UNL     1       7.732 -13.527   3.891  0.00  0.00    +0.000 A 
ATOM     37  C   UNL     1       7.286 -14.549   3.079  0.00  0.00    +0.004 A 
ENDBRANCH  26  28
ENDBRANCH  23  24
ENDBRANCH  22  23
ENDBRANCH   4  22
TORSDOF 9
