REMARK  Name = ZINC20831300
REMARK  14 active torsions:
REMARK  status: ('A' for Active; 'I' for Inactive)
REMARK    1  A    between atoms: C_1  and  C_2
REMARK    2  A    between atoms: C_2  and  C_36
REMARK    3  A    between atoms: C_4  and  N_10
REMARK    4  A    between atoms: C_6  and  C_8
REMARK    5  A    between atoms: C_6  and  C_9
REMARK    6  A    between atoms: C_11  and  C_13
REMARK    7  A    between atoms: C_13  and  S_14
REMARK    8  A    between atoms: S_14  and  C_15
REMARK    9  A    between atoms: C_18  and  C_26
REMARK   10  A    between atoms: N_19  and  C_20
REMARK   11  A    between atoms: C_26  and  N_27
REMARK   12  A    between atoms: N_27  and  C_28
REMARK   13  A    between atoms: C_33  and  O_34
REMARK   14  A    between atoms: O_34  and  C_35
REMARK                            x       y       z     vdW  Elec       q    Type
REMARK                         _______ _______ _______ _____ _____    ______ ____
ROOT
ATOM      1  C   UNL     1      -6.453   1.503  -0.550  0.00  0.00    +0.197 A 
ATOM      2  N   UNL     1      -6.375   1.443   0.760  0.00  0.00    -0.122 NA
ATOM      3  N   UNL     1      -5.424   0.650   1.105  0.00  0.00    -0.132 NA
ATOM      4  C   UNL     1      -4.835   0.168   0.048  0.00  0.00    +0.156 A 
ATOM      5  N   UNL     1      -5.471   0.691  -1.047  0.00  0.00    -0.273 N 
ENDROOT
BRANCH   5   6
ATOM      6  C   UNL     1      -5.178   0.444  -2.396  0.00  0.00    +0.050 A 
ATOM      7  C   UNL     1      -3.964   0.854  -2.930  0.00  0.00    +0.026 A 
ATOM      8  C   UNL     1      -3.675   0.604  -4.257  0.00  0.00    +0.002 A 
ATOM      9  C   UNL     1      -4.598  -0.043  -5.057  0.00  0.00    +0.000 A 
ATOM     10  C   UNL     1      -5.811  -0.449  -4.529  0.00  0.00    +0.002 A 
ATOM     11  C   UNL     1      -6.103  -0.207  -3.201  0.00  0.00    +0.026 A 
ENDBRANCH   5   6
BRANCH   1  12
ATOM     12  S   UNL     1      -7.603   2.452  -1.488  0.00  0.00    -0.076 S 
BRANCH  12  13
ATOM     13  C   UNL     1      -8.538   3.229  -0.147  0.00  0.00    +0.173 C 
BRANCH  13  15
ATOM     14  N   UNL     1     -10.436   4.798   0.087  0.00  0.00    -0.312 N 
ATOM     15  C   UNL     1      -9.611   4.114  -0.729  0.00  0.00    +0.224 C 
ATOM     16  O   UNL     1      -9.730   4.209  -1.932  0.00  0.00    -0.275 OA
ATOM     17  H   UNL     1     -10.327   4.711   1.178  0.00  0.00    +0.149 HD
BRANCH  14  21
ATOM     18  C   UNL     1     -14.521   5.959  -1.077  0.00  0.00    -0.010 C 
ATOM     19  C   UNL     1     -13.708   6.719  -0.023  0.00  0.00    -0.072 C 
ATOM     20  C   UNL     1     -12.615   5.809   0.533  0.00  0.00    +0.009 C 
ATOM     21  C   UNL     1     -11.481   5.660  -0.480  0.00  0.00    +0.070 C 
ATOM     22  C   UNL     1     -10.894   7.044  -0.760  0.00  0.00    +0.009 C 
ATOM     23  C   UNL     1     -11.966   7.970  -1.330  0.00  0.00    -0.072 C 
ATOM     24  N   UNL     1     -13.190   7.962  -0.557  0.00  0.00    +0.386 N 
ATOM     25  C   UNL     1     -12.233   7.604  -2.795  0.00  0.00    -0.010 C 
ATOM     26  C   UNL     1     -11.395   9.406  -1.315  0.00  0.00    -0.010 C 
ATOM     27  C   UNL     1     -14.668   7.057   1.139  0.00  0.00    -0.010 C 
ATOM     28  H   UNL     1     -13.933   8.406  -1.236  0.00  0.00    -0.084 HD
ATOM     29  H   UNL     1     -12.985   8.659   0.268  0.00  0.00    -0.084 HD
ENDBRANCH  14  21
ENDBRANCH  13  15
ENDBRANCH  12  13
ENDBRANCH   1  12
BRANCH   4  30
ATOM     30  C   UNL     1      -3.674  -0.792   0.032  0.00  0.00    +0.178 C 
BRANCH  30  31
ATOM     31  N   UNL     1      -2.417  -0.039   0.024  0.00  0.00    -0.334 N 
ATOM     32  H   UNL     1      -2.436   1.061   0.030  0.00  0.00    +0.147 HD
BRANCH  31  33
ATOM     33  C   UNL     1      -1.194  -0.719   0.010  0.00  0.00    +0.070 A 
ATOM     34  C   UNL     1      -1.169  -2.106   0.002  0.00  0.00    +0.026 A 
ATOM     35  C   UNL     1       0.041  -2.775  -0.013  0.00  0.00    +0.002 A 
ATOM     36  C   UNL     1       1.227  -2.065  -0.021  0.00  0.00    +0.004 A 
ATOM     37  C   UNL     1       1.210  -0.682  -0.019  0.00  0.00    +0.047 A 
ATOM     38  C   UNL     1       0.002  -0.004   0.002  0.00  0.00    +0.141 A 
BRANCH  38  39
ATOM     39  O   UNL     1      -0.016   1.356   0.009  0.00  0.00    -0.493 OA
ATOM     40  C   UNL     1       1.248   2.022   0.001  0.00  0.00    +0.277 C 
ENDBRANCH  38  39
ENDBRANCH  31  33
ENDBRANCH  30  31
ENDBRANCH   4  30
TORSDOF 9
