REMARK  Name = ZINC59876075
REMARK  13 active torsions:
REMARK  status: ('A' for Active; 'I' for Inactive)
REMARK    1  A    between atoms: C_1  and  C_2
REMARK    2  A    between atoms: C_2  and  N_3
REMARK    3  A    between atoms: N_3  and  C_4
REMARK    4  A    between atoms: N_3  and  C_6
REMARK    5  A    between atoms: C_4  and  C_5
REMARK    6  A    between atoms: C_6  and  C_8
REMARK    7  A    between atoms: C_6  and  C_28
REMARK    8  A    between atoms: C_8  and  N_9
REMARK    9  A    between atoms: C_10  and  C_12
REMARK   10  A    between atoms: C_12  and  C_13
REMARK   11  A    between atoms: C_13  and  C_14
REMARK   12  A    between atoms: C_14  and  C_15
REMARK   13  A    between atoms: C_15  and  C_16
REMARK                            x       y       z     vdW  Elec       q    Type
REMARK                         _______ _______ _______ _____ _____    ______ ____
ROOT
ATOM      1  N   UNL     1       1.456   0.933  -1.083  0.00  0.00    -0.317 N 
ATOM      2  C   UNL     1       2.413   1.882  -1.111  0.00  0.00    +0.213 C 
ATOM      3  O   UNL     1       3.160   1.962  -2.063  0.00  0.00    -0.276 OA
ATOM      4  H   UNL     1       0.813   0.913  -0.357  0.00  0.00    +0.149 HD
ENDROOT
BRANCH   1   5
ATOM      5  C   UNL     1       1.387  -0.069  -2.149  0.00  0.00    +0.093 C 
BRANCH   5   6
ATOM      6  C   UNL     1       0.147  -0.943  -1.948  0.00  0.00    -0.020 C 
BRANCH   6   7
ATOM      7  C   UNL     1       0.160  -2.070  -2.949  0.00  0.00    -0.059 A 
ATOM      8  C   UNL     1       1.358  -2.509  -3.481  0.00  0.00    +0.002 A 
ATOM      9  C   UNL     1       1.369  -3.543  -4.398  0.00  0.00    +0.000 A 
ATOM     10  C   UNL     1       0.182  -4.138  -4.784  0.00  0.00    +0.000 A 
ATOM     11  C   UNL     1      -1.016  -3.700  -4.251  0.00  0.00    +0.000 A 
ATOM     12  C   UNL     1      -1.027  -2.669  -3.330  0.00  0.00    +0.002 A 
ENDBRANCH   6   7
BRANCH   6  13
ATOM     13  N   UNL     1       0.153  -1.496  -0.587  0.00  0.00    +0.385 N 
ATOM     14  H   UNL     1       0.227  -0.744   0.081  0.00  0.00    -0.081 HD
BRANCH  13  16
ATOM     15  C   UNL     1      -2.276  -1.267  -0.375  0.00  0.00    -0.017 C 
ATOM     16  C   UNL     1      -1.093  -2.238  -0.354  0.00  0.00    -0.081 C 
ENDBRANCH  13  16
BRANCH  13  17
ATOM     17  C   UNL     1       1.299  -2.403  -0.432  0.00  0.00    -0.081 C 
ATOM     18  C   UNL     1       2.518  -1.609   0.039  0.00  0.00    -0.017 C 
ENDBRANCH  13  17
ENDBRANCH   6  13
ENDBRANCH   5   6
ENDBRANCH   1   5
BRANCH   2  19
ATOM     19  C   UNL     1       2.555   2.843   0.042  0.00  0.00    +0.096 C 
BRANCH  19  20
ATOM     20  C   UNL     1       3.621   3.888  -0.294  0.00  0.00    +0.009 C 
BRANCH  20  21
ATOM     21  C   UNL     1       3.765   4.863   0.875  0.00  0.00    +0.002 C 
BRANCH  21  22
ATOM     22  C   UNL     1       4.831   5.908   0.540  0.00  0.00    +0.016 C 
BRANCH  22  23
ATOM     23  C   UNL     1       4.975   6.884   1.709  0.00  0.00    +0.069 C 
ATOM     24  C   UNL     1       6.074   7.930   1.426  0.00  0.00    +0.108 C 
ATOM     25  C   UNL     1       5.712   9.344   1.891  0.00  0.00    +0.105 C 
ATOM     26  C   UNL     1       4.316   9.444   2.542  0.00  0.00    +0.093 C 
ATOM     27  S   UNL     1       3.481   7.956   1.865  0.00  0.00    -0.154 S 
ATOM     28  N   UNL     1       5.715  10.139   0.652  0.00  0.00    -0.294 N 
ATOM     29  C   UNL     1       6.025   9.340  -0.378  0.00  0.00    +0.300 C 
ATOM     30  O   UNL     1       6.099   9.737  -1.525  0.00  0.00    -0.253 OA
ATOM     31  N   UNL     1       6.239   8.073  -0.029  0.00  0.00    -0.294 N 
ATOM     32  H   UNL     1       5.523  11.088   0.592  0.00  0.00    +0.151 HD
ATOM     33  H   UNL     1       6.469   7.358  -0.643  0.00  0.00    +0.151 HD
ENDBRANCH  22  23
ENDBRANCH  21  22
ENDBRANCH  20  21
ENDBRANCH  19  20
ENDBRANCH   2  19
TORSDOF 11
