REMARK  Name = ZINC17590008
REMARK  8 active torsions:
REMARK  status: ('A' for Active; 'I' for Inactive)
REMARK    1  A    between atoms: C_1  and  N_2
REMARK    2  A    between atoms: C_6  and  C_7
REMARK    3  A    between atoms: C_7  and  C_9
REMARK    4  A    between atoms: C_7  and  N_15
REMARK    5  A    between atoms: N_15  and  C_16
REMARK    6  A    between atoms: C_19  and  N_26
REMARK    7  A    between atoms: C_21  and  S_22
REMARK    8  A    between atoms: S_22  and  N_25
REMARK                            x       y       z     vdW  Elec       q    Type
REMARK                         _______ _______ _______ _____ _____    ______ ____
ROOT
ATOM      1  N   UNL     1      -0.742  -1.296   3.336  0.00  0.00    -0.329 N 
ATOM      2  H   UNL     1      -0.290  -2.015   3.805  0.00  0.00    +0.147 HD
ENDROOT
BRANCH   1   3
ATOM      3  C   UNL     1      -2.128  -1.158   3.438  0.00  0.00    +0.055 A 
ATOM      4  C   UNL     1      -2.777  -0.132   2.763  0.00  0.00    +0.027 A 
ATOM      5  C   UNL     1      -4.148   0.002   2.866  0.00  0.00    +0.034 A 
ATOM      6  C   UNL     1      -4.874  -0.885   3.641  0.00  0.00    +0.128 A 
ATOM      7  C   UNL     1      -4.231  -1.907   4.314  0.00  0.00    +0.063 A 
ATOM      8  C   UNL     1      -2.861  -2.049   4.211  0.00  0.00    +0.128 A 
BRANCH   8   9
ATOM      9  S   UNL     1      -2.043  -3.356   5.064  0.00  0.00    +0.058 S 
ATOM     10  O   UNL     1      -0.948  -2.769   5.753  0.00  0.00    -0.153 OA
ATOM     11  O   UNL     1      -3.053  -4.099   5.733  0.00  0.00    -0.153 OA
BRANCH   9  12
ATOM     12  N   UNL     1      -1.398  -4.361   3.917  0.00  0.00    -0.203 NA
ATOM     13  H   UNL     1      -1.515  -4.161   2.975  0.00  0.00    +0.144 HD
ATOM     14  H   UNL     1      -0.902  -5.150   4.187  0.00  0.00    +0.144 HD
ENDBRANCH   9  12
ENDBRANCH   8   9
BRANCH   6  15
ATOM     15  N   UNL     1      -6.343  -0.739   3.749  0.00  0.00    +0.056 N 
ATOM     16  O   UNL     1      -6.906   0.155   3.160  0.00  0.00    -0.126 OA
ATOM     17  O   UNL     1      -6.979  -1.513   4.425  0.00  0.00    -0.126 OA
ENDBRANCH   6  15
ENDBRANCH   1   3
BRANCH   1  18
ATOM     18  C   UNL     1       0.030  -0.354   2.521  0.00  0.00    +0.165 C 
BRANCH  18  24
ATOM     19  C   UNL     1      -0.018   1.461   0.010  0.00  0.00    +0.150 C 
ATOM     20  N   UNL     1       0.002  -0.004   0.002  0.00  0.00    -0.337 N 
ATOM     21  C   UNL     1       0.009  -0.810  -1.104  0.00  0.00    +0.104 A 
ATOM     22  C   UNL     1       0.029  -2.081  -0.660  0.00  0.00    +0.102 A 
ATOM     23  N   UNL     1       0.034  -2.052   0.681  0.00  0.00    -0.348 N 
ATOM     24  C   UNL     1       0.023  -0.811   1.085  0.00  0.00    +0.112 A 
ATOM     25  H   UNL     1       0.048  -2.831   1.260  0.00  0.00    +0.167 HD
ENDBRANCH  18  24
BRANCH  18  26
ATOM     26  C   UNL     1       1.449  -0.300   3.024  0.00  0.00    -0.020 A 
ATOM     27  C   UNL     1       2.087  -1.461   3.421  0.00  0.00    +0.006 A 
ATOM     28  C   UNL     1       3.389  -1.411   3.882  0.00  0.00    +0.000 A 
ATOM     29  C   UNL     1       4.053  -0.201   3.947  0.00  0.00    +0.000 A 
ATOM     30  C   UNL     1       3.416   0.960   3.549  0.00  0.00    +0.000 A 
ATOM     31  C   UNL     1       2.116   0.909   3.084  0.00  0.00    +0.006 A 
ENDBRANCH  18  26
ENDBRANCH   1  18
TORSDOF 7
