REMARK  Name = ZINC39532673
REMARK  12 active torsions:
REMARK  status: ('A' for Active; 'I' for Inactive)
REMARK    1  A    between atoms: C_1  and  C_2
REMARK    2  A    between atoms: C_2  and  C_3
REMARK    3  A    between atoms: C_3  and  C_4
REMARK    4  A    between atoms: C_7  and  C_10
REMARK    5  A    between atoms: C_10  and  C_12
REMARK    6  A    between atoms: C_10  and  N_17
REMARK    7  A    between atoms: C_12  and  N_13
REMARK    8  A    between atoms: N_13  and  O_14
REMARK    9  A    between atoms: O_14  and  C_15
REMARK   10  A    between atoms: C_15  and  C_16
REMARK   11  A    between atoms: C_21  and  C_24
REMARK   12  A    between atoms: C_29  and  O_30
REMARK                            x       y       z     vdW  Elec       q    Type
REMARK                         _______ _______ _______ _____ _____    ______ ____
ROOT
ATOM      1  C   UNL     1      -1.355  -6.312  -0.019  0.00  0.00    +0.103 C 
ENDROOT
BRANCH   1   2
ATOM      2  N   UNL     1      -0.474  -6.699   1.090  0.00  0.00    -0.297 NA
ATOM      3  C   UNL     1       0.256  -7.936   0.776  0.00  0.00    +0.066 C 
ATOM      4  C   UNL     1       1.204  -8.271   1.929  0.00  0.00    -0.066 C 
ATOM      5  N   UNL     1       0.431  -8.440   3.167  0.00  0.00    +0.385 N 
ATOM      6  C   UNL     1      -0.272  -7.189   3.480  0.00  0.00    -0.023 C 
ATOM      7  C   UNL     1      -1.233  -6.844   2.341  0.00  0.00    +0.074 C 
ATOM      8  H   UNL     1      -0.241  -9.182   3.045  0.00  0.00    -0.085 HD
ATOM      9  H   UNL     1       1.056  -8.673   3.924  0.00  0.00    -0.085 HD
BRANCH   6  10
ATOM     10  C   UNL     1      -1.050  -7.357   4.760  0.00  0.00    -0.019 A 
ATOM     11  C   UNL     1      -1.361  -8.623   5.218  0.00  0.00    +0.005 A 
ATOM     12  C   UNL     1      -2.075  -8.778   6.392  0.00  0.00    +0.000 A 
ATOM     13  C   UNL     1      -2.480  -7.668   7.110  0.00  0.00    +0.004 A 
ATOM     14  C   UNL     1      -2.172  -6.401   6.656  0.00  0.00    +0.045 A 
ATOM     15  C   UNL     1      -1.450  -6.242   5.481  0.00  0.00    +0.118 A 
BRANCH  15  16
ATOM     16  O   UNL     1      -1.141  -4.996   5.035  0.00  0.00    -0.507 OA
ATOM     17  H   UNL     1      -1.807  -4.611   4.449  0.00  0.00    +0.292 HD
ENDBRANCH  15  16
ENDBRANCH   6  10
ENDBRANCH   1   2
BRANCH   1  21
ATOM     18  C   UNL     1      -1.508  -2.052  -0.298  0.00  0.00    -0.047 A 
ATOM     19  C   UNL     1      -1.357  -2.814  -1.441  0.00  0.00    +0.004 A 
ATOM     20  C   UNL     1      -1.307  -4.193  -1.351  0.00  0.00    +0.005 A 
ATOM     21  C   UNL     1      -1.408  -4.809  -0.117  0.00  0.00    -0.029 A 
ATOM     22  C   UNL     1      -1.558  -4.046   1.026  0.00  0.00    +0.005 A 
ATOM     23  C   UNL     1      -1.604  -2.667   0.936  0.00  0.00    +0.004 A 
BRANCH  18  24
ATOM     24  C   UNL     1      -1.561  -0.549  -0.397  0.00  0.00    +0.035 C 
BRANCH  24  26
ATOM     25  C   UNL     1      -0.200   1.546  -0.388  0.00  0.00    +0.004 C 
ATOM     26  C   UNL     1      -0.145   0.020  -0.288  0.00  0.00    +0.001 C 
ENDBRANCH  24  26
ENDBRANCH  18  24
ENDBRANCH   1  21
BRANCH   1  27
ATOM     27  C   UNL     1      -2.763  -6.856   0.234  0.00  0.00    +0.134 C 
BRANCH  27  28
ATOM     28  N   UNL     1      -2.703  -8.315   0.391  0.00  0.00    -0.199 NA
ATOM     29  H   UNL     1      -2.271  -8.748  -0.412  0.00  0.00    +0.154 HD
BRANCH  28  30
ATOM     30  O   UNL     1      -4.033  -8.872   0.635  0.00  0.00    -0.300 OA
BRANCH  30  31
ATOM     31  C   UNL     1      -4.049 -10.291   0.798  0.00  0.00    +0.182 C 
ATOM     32  C   UNL     1      -5.484 -10.761   1.046  0.00  0.00    +0.036 C 
ENDBRANCH  30  31
ENDBRANCH  28  30
ENDBRANCH  27  28
ENDBRANCH   1  27
TORSDOF 10
