REMARK  Name = ZINC34750075
REMARK  10 active torsions:
REMARK  status: ('A' for Active; 'I' for Inactive)
REMARK    1  A    between atoms: C_1  and  C_2
REMARK    2  A    between atoms: C_2  and  C_3
REMARK    3  A    between atoms: C_2  and  C_4
REMARK    4  A    between atoms: C_4  and  S_5
REMARK    5  A    between atoms: S_5  and  C_6
REMARK    6  A    between atoms: C_17  and  C_19
REMARK    7  A    between atoms: C_17  and  C_20
REMARK    8  A    between atoms: N_24  and  C_27
REMARK    9  A    between atoms: C_27  and  C_28
REMARK   10  A    between atoms: N_30  and  C_31
REMARK                            x       y       z     vdW  Elec       q    Type
REMARK                         _______ _______ _______ _____ _____    ______ ____
ROOT
ATOM      1  C   UNL     1       2.308  -0.248   4.538  0.00  0.00    +0.191 A 
ATOM      2  N   UNL     1       1.841  -0.099   5.772  0.00  0.00    -0.206 NA
ATOM      3  C   UNL     1       1.051  -0.996   6.337  0.00  0.00    +0.134 A 
ATOM      4  C   UNL     1       0.684  -2.160   5.606  0.00  0.00    +0.051 A 
ATOM      5  C   UNL     1      -0.167  -3.274   6.022  0.00  0.00    -0.020 A 
ATOM      6  C   UNL     1      -0.359  -4.268   5.128  0.00  0.00    +0.021 A 
ATOM      7  S   UNL     1       0.568  -3.788   3.698  0.00  0.00    -0.071 S 
ATOM      8  C   UNL     1       1.216  -2.251   4.303  0.00  0.00    +0.115 A 
ATOM      9  N   UNL     1       1.995  -1.310   3.808  0.00  0.00    -0.215 NA
ATOM     10  C   UNL     1      -1.185  -5.499   5.337  0.00  0.00    +0.203 C 
ATOM     11  O   UNL     1      -1.475  -5.604   6.740  0.00  0.00    -0.368 OA
ATOM     12  C   UNL     1      -1.960  -4.388   7.314  0.00  0.00    +0.068 C 
ATOM     13  C   UNL     1      -0.832  -3.356   7.394  0.00  0.00    +0.071 C 
ATOM     14  C   UNL     1      -3.093  -3.835   6.447  0.00  0.00    +0.041 C 
ATOM     15  C   UNL     1      -2.492  -4.668   8.721  0.00  0.00    +0.041 C 
ATOM     16  N   UNL     1       0.586  -0.804   7.625  0.00  0.00    -0.318 N 
ATOM     17  C   UNL     1       1.281  -1.400   8.777  0.00  0.00    +0.088 C 
ATOM     18  C   UNL     1       1.520  -0.304   9.821  0.00  0.00    -0.059 C 
ATOM     19  N   UNL     1       0.244   0.343  10.151  0.00  0.00    +0.387 N 
ATOM     20  C   UNL     1      -0.288   1.032   8.969  0.00  0.00    -0.059 C 
ATOM     21  C   UNL     1      -0.614   0.007   7.883  0.00  0.00    +0.088 C 
ATOM     22  H   UNL     1      -0.417  -0.356  10.457  0.00  0.00    -0.081 HD
ENDROOT
BRANCH   1  23
ATOM     23  S   UNL     1       3.357   0.992   3.855  0.00  0.00    -0.086 S 
BRANCH  23  24
ATOM     24  C   UNL     1       3.732   0.381   2.188  0.00  0.00    +0.080 C 
BRANCH  24  26
ATOM     25  C   UNL     1       5.996   1.438   2.195  0.00  0.00    +0.008 C 
ATOM     26  C   UNL     1       4.648   1.377   1.474  0.00  0.00    -0.007 C 
ATOM     27  C   UNL     1       4.863   0.925   0.028  0.00  0.00    +0.008 C 
ENDBRANCH  24  26
ENDBRANCH  23  24
ENDBRANCH   1  23
BRANCH  19  28
ATOM     28  C   UNL     1       0.455   1.317  11.230  0.00  0.00    +0.019 C 
BRANCH  28  29
ATOM     29  C   UNL     1      -0.871   1.893  11.654  0.00  0.00    +0.197 C 
ATOM     30  O   UNL     1      -1.892   1.527  11.112  0.00  0.00    -0.278 OA
ATOM     31  N   UNL     1      -0.923   2.814  12.637  0.00  0.00    -0.314 N 
ATOM     32  H   UNL     1      -0.106   3.106  13.071  0.00  0.00    +0.149 HD
BRANCH  31  33
ATOM     33  C   UNL     1      -2.212   3.373  13.050  0.00  0.00    +0.073 C 
ATOM     34  C   UNL     1      -2.577   4.544  12.134  0.00  0.00    +0.022 C 
ATOM     35  C   UNL     1      -3.924   5.128  12.565  0.00  0.00    +0.002 C 
ATOM     36  C   UNL     1      -3.826   5.622  14.010  0.00  0.00    +0.000 C 
ATOM     37  C   UNL     1      -3.462   4.451  14.926  0.00  0.00    +0.002 C 
ATOM     38  C   UNL     1      -2.115   3.867  14.495  0.00  0.00    +0.022 C 
ENDBRANCH  31  33
ENDBRANCH  28  29
ENDBRANCH  19  28
TORSDOF 6
