REMARK  Name = ZINC35375508
REMARK  6 active torsions:
REMARK  status: ('A' for Active; 'I' for Inactive)
REMARK    1  A    between atoms: C_1  and  C_2
REMARK    2  A    between atoms: C_2  and  C_3
REMARK    3  A    between atoms: C_3  and  C_5
REMARK    4  A    between atoms: C_3  and  N_6
REMARK    5  A    between atoms: C_11  and  C_29
REMARK    6  A    between atoms: C_29  and  C_30
REMARK                            x       y       z     vdW  Elec       q    Type
REMARK                         _______ _______ _______ _____ _____    ______ ____
ROOT
ATOM      1  N   UNL     1      -0.008  -0.140   2.444  0.00  0.00    -0.239 N 
ATOM      2  C   UNL     1      -1.287  -0.551   2.694  0.00  0.00    +0.227 C 
ATOM      3  O   UNL     1      -1.882  -1.460   2.157  0.00  0.00    -0.275 OA
ATOM      4  C   UNL     1      -1.803   0.358   3.776  0.00  0.00    +0.107 C 
ATOM      5  C   UNL     1      -2.612  -0.239   4.934  0.00  0.00    +0.076 C 
ATOM      6  N   UNL     1      -2.200   0.614   6.098  0.00  0.00    -0.295 NA
ATOM      7  C   UNL     1      -0.825   1.126   5.811  0.00  0.00    +0.136 C 
ATOM      8  C   UNL     1      -0.426   0.497   4.541  0.00  0.00    +0.122 C 
ATOM      9  C   UNL     1       0.500   0.653   3.442  0.00  0.00    +0.228 C 
ATOM     10  O   UNL     1       1.502   1.335   3.410  0.00  0.00    -0.275 OA
ATOM     11  C   UNL     1      -0.853   2.631   5.748  0.00  0.00    +0.005 A 
ATOM     12  C   UNL     1      -1.484   3.528   4.915  0.00  0.00    +0.008 A 
ATOM     13  C   UNL     1      -1.315   4.888   5.107  0.00  0.00    +0.002 A 
ATOM     14  C   UNL     1      -0.511   5.343   6.136  0.00  0.00    +0.022 A 
ATOM     15  C   UNL     1       0.123   4.448   6.973  0.00  0.00    +0.062 A 
ATOM     16  C   UNL     1      -0.043   3.076   6.786  0.00  0.00    +0.057 A 
ATOM     17  N   UNL     1       0.483   1.989   7.489  0.00  0.00    -0.282 N 
ATOM     18  C   UNL     1       0.074   0.812   6.982  0.00  0.00    +0.243 C 
ATOM     19  O   UNL     1       0.371  -0.291   7.390  0.00  0.00    -0.273 OA
ATOM     20 CL   UNL     1       1.130   5.031   8.261  0.00  0.00    -0.082 Cl
ATOM     21  H   UNL     1      -2.848   1.376   6.235  0.00  0.00    +0.124 HD
ATOM     22  H   UNL     1       1.074   2.074   8.253  0.00  0.00    +0.155 HD
ENDROOT
BRANCH   1  23
ATOM     23  C   UNL     1       0.742  -0.511   1.242  0.00  0.00    +0.081 C 
ATOM     24  C   UNL     1       0.872  -2.034   1.171  0.00  0.00    +0.028 C 
BRANCH  23  26
ATOM     25  C   UNL     1      -0.019   1.526   0.010  0.00  0.00    +0.006 C 
ATOM     26  C   UNL     1       0.002  -0.004   0.002  0.00  0.00    +0.019 C 
ENDBRANCH  23  26
ENDBRANCH   1  23
BRANCH   5  27
ATOM     27  C   UNL     1      -4.113  -0.115   4.669  0.00  0.00    +0.115 C 
BRANCH  27  28
ATOM     28  C   UNL     1      -4.877  -0.817   5.762  0.00  0.00    +0.212 C 
ATOM     29  O   UNL     1      -4.278  -1.364   6.664  0.00  0.00    -0.276 OA
ATOM     30  N   UNL     1      -6.224  -0.838   5.737  0.00  0.00    -0.329 N 
ATOM     31  H   UNL     1      -6.702  -0.401   5.015  0.00  0.00    +0.145 HD
ATOM     32  H   UNL     1      -6.715  -1.291   6.440  0.00  0.00    +0.145 HD
ENDBRANCH  27  28
ENDBRANCH   5  27
TORSDOF 4
