REMARK  Name = ZINC15931882
REMARK  4 active torsions:
REMARK  status: ('A' for Active; 'I' for Inactive)
REMARK    1  A    between atoms: C_1  and  C_2
REMARK    2  A    between atoms: C_5  and  C_20
REMARK    3  A    between atoms: C_9  and  C_11
REMARK    4  A    between atoms: C_14  and  N_17
REMARK                            x       y       z     vdW  Elec       q    Type
REMARK                         _______ _______ _______ _____ _____    ______ ____
ROOT
ATOM      1  C   UNL     1       4.957  -2.573   0.373  0.00  0.00    +0.050 C 
ATOM      2  C   UNL     1       3.587  -1.904   0.511  0.00  0.00    +0.173 C 
ATOM      3  N   UNL     1       3.353  -1.534   1.906  0.00  0.00    -0.267 NA
ATOM      4  C   UNL     1       2.277  -2.073   2.360  0.00  0.00    +0.064 C 
ATOM      5  C   UNL     1       1.617  -2.898   1.280  0.00  0.00    +0.130 C 
ATOM      6  N   UNL     1       2.529  -2.848   0.114  0.00  0.00    -0.262 NA
ATOM      7  C   UNL     1       1.229  -2.186  -0.022  0.00  0.00    +0.113 C 
ENDROOT
BRANCH   4   8
ATOM      8  C   UNL     1       1.760  -1.909   3.732  0.00  0.00    -0.002 A 
ATOM      9  C   UNL     1       0.574  -2.539   4.115  0.00  0.00    +0.011 A 
ATOM     10  C   UNL     1       0.099  -2.386   5.400  0.00  0.00    +0.015 A 
ATOM     11  C   UNL     1       0.789  -1.601   6.308  0.00  0.00    +0.013 A 
ATOM     12  C   UNL     1       1.963  -0.969   5.934  0.00  0.00    +0.015 A 
ATOM     13  C   UNL     1       2.452  -1.119   4.653  0.00  0.00    +0.011 A 
ATOM     14  I   UNL     1       0.054  -1.368   8.256  0.00  0.00    -0.044 I 
ENDBRANCH   4   8
BRANCH   7  15
ATOM     15  C   UNL     1       1.208  -0.679  -0.014  0.00  0.00    -0.028 A 
ATOM     16  C   UNL     1       1.836   0.026  -1.024  0.00  0.00    +0.007 A 
ATOM     17  C   UNL     1       1.817   1.409  -1.016  0.00  0.00    +0.033 A 
ATOM     18  C   UNL     1       1.171   2.086   0.001  0.00  0.00    +0.126 A 
ATOM     19  C   UNL     1       0.543   1.380   1.011  0.00  0.00    +0.033 A 
ATOM     20  C   UNL     1       0.562  -0.002   1.004  0.00  0.00    +0.007 A 
BRANCH  18  21
ATOM     21  N   UNL     1       1.151   3.566   0.010  0.00  0.00    +0.056 N 
ATOM     22  O   UNL     1       1.704   4.187  -0.880  0.00  0.00    -0.126 OA
ATOM     23  O   UNL     1       0.581   4.162   0.906  0.00  0.00    -0.126 OA
ENDBRANCH  18  21
ENDBRANCH   7  15
TORSDOF 3
