REMARK  Name = ZINC09323250
REMARK  11 active torsions:
REMARK  status: ('A' for Active; 'I' for Inactive)
REMARK    1  A    between atoms: C_1  and  C_2
REMARK    2  A    between atoms: C_7  and  C_8
REMARK    3  A    between atoms: N_12  and  C_13
REMARK    4  A    between atoms: C_13  and  C_14
REMARK    5  A    between atoms: C_14  and  N_63
REMARK    6  A    between atoms: C_15  and  N_63
REMARK    7  A    between atoms: C_16  and  N_63
REMARK    8  A    between atoms: C_17  and  C_19
REMARK    9  A    between atoms: C_24  and  N_25
REMARK   10  A    between atoms: N_25  and  S_26
REMARK   11  A    between atoms: S_26  and  C_29
REMARK                            x       y       z     vdW  Elec       q    Type
REMARK                         _______ _______ _______ _____ _____    ______ ____
ROOT
ATOM      1  C   UNL     1      -4.409  -2.186  -1.219  0.00  0.00    +0.044 C 
ATOM      2  C   UNL     1      -2.982  -1.760  -0.988  0.00  0.00    -0.045 A 
ATOM      3  C   UNL     1      -2.712  -0.445  -0.713  0.00  0.00    +0.032 A 
ATOM      4  C   UNL     1      -1.385  -0.011  -0.491  0.00  0.00    +0.081 A 
ATOM      5  C   UNL     1      -0.382  -1.004  -0.571  0.00  0.00    +0.041 A 
ATOM      6  C   UNL     1      -0.662  -2.319  -0.847  0.00  0.00    +0.021 A 
ATOM      7  C   UNL     1      -1.972  -2.708  -1.058  0.00  0.00    -0.046 A 
ATOM      8  C   UNL     1      -2.299  -4.147  -1.363  0.00  0.00    +0.044 C 
ATOM      9  S   UNL     1       1.097  -0.076  -0.241  0.00  0.00    -0.052 S 
ATOM     10  C   UNL     1       0.318   1.518  -0.025  0.00  0.00    +0.168 A 
ATOM     11  N   UNL     1      -0.951   1.237  -0.211  0.00  0.00    -0.224 NA
ATOM     12  N   UNL     1       0.904   2.738   0.265  0.00  0.00    -0.248 N 
ATOM     13  C   UNL     1       0.138   3.840   0.390  0.00  0.00    +0.254 C 
ATOM     14  O   UNL     1      -1.048   3.789   0.130  0.00  0.00    -0.270 OA
ENDROOT
BRANCH  13  15
ATOM     15  C   UNL     1       0.740   5.108   0.841  0.00  0.00    +0.060 A 
ATOM     16  C   UNL     1       2.043   5.442   0.463  0.00  0.00    +0.015 A 
ATOM     17  C   UNL     1       2.599   6.628   0.888  0.00  0.00    +0.001 A 
ATOM     18  C   UNL     1       1.873   7.495   1.690  0.00  0.00    +0.002 A 
ATOM     19  C   UNL     1       0.585   7.179   2.072  0.00  0.00    +0.025 A 
ATOM     20  C   UNL     1       0.005   5.990   1.649  0.00  0.00    +0.060 A 
BRANCH  20  21
ATOM     21  N   UNL     1      -1.293   5.673   2.028  0.00  0.00    -0.216 N 
ATOM     22  H   UNL     1      -1.534   4.750   2.209  0.00  0.00    +0.174 HD
BRANCH  21  23
ATOM     23  S   UNL     1      -2.430   6.868   2.170  0.00  0.00    +0.072 S 
ATOM     24  O   UNL     1      -3.665   6.224   2.448  0.00  0.00    -0.150 OA
ATOM     25  O   UNL     1      -1.875   7.856   3.029  0.00  0.00    -0.150 OA
BRANCH  23  26
ATOM     26  C   UNL     1      -2.599   7.618   0.584  0.00  0.00    +0.108 A 
ATOM     27  C   UNL     1      -1.809   8.700   0.243  0.00  0.00    +0.029 A 
ATOM     28  C   UNL     1      -1.938   9.284  -1.003  0.00  0.00    +0.002 A 
ATOM     29  C   UNL     1      -2.864   8.793  -1.904  0.00  0.00    +0.000 A 
ATOM     30  C   UNL     1      -3.658   7.715  -1.561  0.00  0.00    +0.002 A 
ATOM     31  C   UNL     1      -3.525   7.127  -0.317  0.00  0.00    +0.029 A 
ENDBRANCH  23  26
ENDBRANCH  21  23
ENDBRANCH  20  21
ENDBRANCH  13  15
BRANCH  12  32
ATOM     32  C   UNL     1       2.356   2.832   0.436  0.00  0.00    +0.097 C 
BRANCH  32  33
ATOM     33  C   UNL     1       3.040   2.679  -0.924  0.00  0.00    -0.060 C 
BRANCH  33  36
ATOM     34  C   UNL     1       5.183   2.359  -2.004  0.00  0.00    -0.097 C 
ATOM     35  C   UNL     1       4.981   3.903  -0.150  0.00  0.00    -0.097 C 
ATOM     36  N   UNL     1       4.503   2.625  -0.719  0.00  0.00    +0.377 N 
ATOM     37  H   UNL     1       4.720   1.866  -0.063  0.00  0.00    -0.083 HD
ENDBRANCH  33  36
ENDBRANCH  32  33
ENDBRANCH  12  32
TORSDOF 7
