REMARK  Name = ZINC61772183
REMARK  9 active torsions:
REMARK  status: ('A' for Active; 'I' for Inactive)
REMARK    1  A    between atoms: C_1  and  C_2
REMARK    2  A    between atoms: C_5  and  C_8
REMARK    3  A    between atoms: C_8  and  C_9
REMARK    4  A    between atoms: C_8  and  N_25
REMARK    5  A    between atoms: C_9  and  N_10
REMARK    6  A    between atoms: N_13  and  C_14
REMARK    7  A    between atoms: C_17  and  N_20
REMARK    8  A    between atoms: C_21  and  O_23
REMARK    9  A    between atoms: O_23  and  C_24
REMARK                            x       y       z     vdW  Elec       q    Type
REMARK                         _______ _______ _______ _____ _____    ______ ____
ROOT
ATOM      1  N   UNL     1      -2.190  -4.396  -0.872  0.00  0.00    -0.300 N 
ATOM      2  C   UNL     1      -3.517  -4.632  -0.861  0.00  0.00    +0.304 C 
ATOM      3  O   UNL     1      -4.011  -5.291   0.034  0.00  0.00    -0.253 OA
ATOM      4  N   UNL     1      -4.298  -4.136  -1.841  0.00  0.00    -0.269 N 
ATOM      5  H   UNL     1      -1.797  -3.870  -1.585  0.00  0.00    +0.150 HD
ATOM      6  H   UNL     1      -3.915  -3.560  -2.522  0.00  0.00    +0.156 HD
ENDROOT
BRANCH   4   7
ATOM      7  C   UNL     1      -5.662  -4.453  -1.879  0.00  0.00    +0.035 A 
ATOM      8  C   UNL     1      -6.302  -4.625  -3.099  0.00  0.00    +0.025 A 
ATOM      9  C   UNL     1      -7.646  -4.937  -3.136  0.00  0.00    +0.025 A 
ATOM     10  C   UNL     1      -8.358  -5.080  -1.953  0.00  0.00    +0.037 A 
ATOM     11  C   UNL     1      -7.719  -4.908  -0.733  0.00  0.00    +0.025 A 
ATOM     12  C   UNL     1      -6.373  -4.601  -0.696  0.00  0.00    +0.025 A 
BRANCH  10  13
ATOM     13  N   UNL     1      -9.723  -5.396  -1.990  0.00  0.00    -0.251 N 
ATOM     14  C   UNL     1     -10.557  -4.893  -1.059  0.00  0.00    +0.404 C 
ATOM     15  O   UNL     1     -10.148  -4.083  -0.251  0.00  0.00    -0.226 OA
ATOM     16  H   UNL     1     -10.067  -5.977  -2.687  0.00  0.00    +0.158 HD
BRANCH  14  17
ATOM     17  O   UNL     1     -11.844  -5.289  -1.024  0.00  0.00    -0.453 OA
ATOM     18  C   UNL     1     -12.672  -4.715  -0.010  0.00  0.00    +0.282 C 
ENDBRANCH  14  17
ENDBRANCH  10  13
ENDBRANCH   4   7
BRANCH   1  19
ATOM     19  C   UNL     1      -1.342  -4.935   0.194  0.00  0.00    +0.095 C 
BRANCH  19  20
ATOM     20  C   UNL     1       0.088  -4.422   0.017  0.00  0.00    -0.020 C 
BRANCH  20  25
ATOM     21  C   UNL     1       0.134   1.339   0.465  0.00  0.00    +0.044 C 
ATOM     22  C   UNL     1       0.122  -0.163   0.348  0.00  0.00    -0.050 A 
ATOM     23  C   UNL     1       0.146  -0.759  -0.898  0.00  0.00    +0.003 A 
ATOM     24  C   UNL     1       0.135  -2.138  -1.006  0.00  0.00    +0.002 A 
ATOM     25  C   UNL     1       0.101  -2.919   0.134  0.00  0.00    -0.059 A 
ATOM     26  C   UNL     1       0.078  -2.323   1.381  0.00  0.00    +0.002 A 
ATOM     27  C   UNL     1       0.093  -0.945   1.488  0.00  0.00    +0.003 A 
ENDBRANCH  20  25
BRANCH  20  28
ATOM     28  N   UNL     1       0.949  -5.001   1.056  0.00  0.00    +0.385 N 
ATOM     29  C   UNL     1       1.104  -6.462   0.837  0.00  0.00    -0.078 C 
ATOM     30  C   UNL     1       2.411  -6.798   1.599  0.00  0.00    -0.020 C 
ATOM     31  C   UNL     1       3.296  -5.559   1.329  0.00  0.00    -0.020 C 
ATOM     32  C   UNL     1       2.312  -4.433   0.965  0.00  0.00    -0.078 C 
ATOM     33  H   UNL     1       0.559  -4.825   1.970  0.00  0.00    -0.081 HD
ENDBRANCH  20  28
ENDBRANCH  19  20
ENDBRANCH   1  19
TORSDOF 7
