REMARK  Name = ZINC14198597
REMARK  10 active torsions:
REMARK  status: ('A' for Active; 'I' for Inactive)
REMARK    1  A    between atoms: C_1  and  C_2
REMARK    2  A    between atoms: C_2  and  O_3
REMARK    3  A    between atoms: O_3  and  C_4
REMARK    4  A    between atoms: C_7  and  C_10
REMARK    5  A    between atoms: C_15  and  C_16
REMARK    6  A    between atoms: C_15  and  N_56
REMARK    7  A    between atoms: N_18  and  C_19
REMARK    8  A    between atoms: C_19  and  C_20
REMARK    9  A    between atoms: C_23  and  S_26
REMARK   10  A    between atoms: S_26  and  N_29
REMARK                            x       y       z     vdW  Elec       q    Type
REMARK                         _______ _______ _______ _____ _____    ______ ____
ROOT
ATOM      1  C   UNL     1       0.510  -0.507   1.329  0.00  0.00    +0.197 C 
ATOM      2  O   UNL     1       0.825   0.281   2.195  0.00  0.00    -0.278 OA
ATOM      3  N   UNL     1       0.615  -1.832   1.552  0.00  0.00    -0.313 N 
ATOM      4  H   UNL     1       0.364  -2.462   0.859  0.00  0.00    +0.149 HD
ENDROOT
BRANCH   1   5
ATOM      5  C   UNL     1       0.002  -0.004   0.002  0.00  0.00    +0.019 C 
BRANCH   5  10
ATOM      6  C   UNL     1      -0.744   1.991  -1.165  0.00  0.00    -0.037 C 
ATOM      7  C   UNL     1      -0.013   3.309  -1.524  0.00  0.00    -0.013 C 
ATOM      8  C   UNL     1       1.464   2.939  -1.229  0.00  0.00    -0.020 C 
ATOM      9  C   UNL     1       1.351   2.012   0.000  0.00  0.00    -0.077 C 
ATOM     10  N   UNL     1      -0.022   1.482   0.018  0.00  0.00    +0.390 N 
ATOM     11  H   UNL     1      -0.498   1.801   0.870  0.00  0.00    -0.080 HD
BRANCH   6  15
ATOM     12  C   UNL     1      -4.824   2.777  -0.165  0.00  0.00    +0.121 A 
ATOM     13  C   UNL     1      -4.505   2.216  -1.393  0.00  0.00    +0.046 A 
ATOM     14  C   UNL     1      -3.185   1.963  -1.714  0.00  0.00    +0.005 A 
ATOM     15  C   UNL     1      -2.183   2.268  -0.812  0.00  0.00    -0.061 A 
ATOM     16  C   UNL     1      -2.498   2.822   0.415  0.00  0.00    +0.005 A 
ATOM     17  C   UNL     1      -3.815   3.082   0.738  0.00  0.00    +0.046 A 
BRANCH  12  18
ATOM     18  O   UNL     1      -6.121   3.027   0.153  0.00  0.00    -0.492 OA
BRANCH  18  20
ATOM     19  C   UNL     1      -7.880   3.813   1.612  0.00  0.00    +0.048 C 
ATOM     20  C   UNL     1      -6.375   3.606   1.435  0.00  0.00    +0.225 C 
ENDBRANCH  18  20
ENDBRANCH  12  18
ENDBRANCH   6  15
ENDBRANCH   5  10
ENDBRANCH   1   5
BRANCH   3  21
ATOM     21  C   UNL     1       1.109  -2.321   2.841  0.00  0.00    +0.139 C 
BRANCH  21  22
ATOM     22  C   UNL     1       1.130  -3.828   2.833  0.00  0.00    -0.030 A 
ATOM     23  C   UNL     1       0.021  -4.536   3.257  0.00  0.00    +0.007 A 
ATOM     24  C   UNL     1       0.038  -5.918   3.245  0.00  0.00    +0.029 A 
ATOM     25  C   UNL     1       1.168  -6.592   2.818  0.00  0.00    +0.105 A 
ATOM     26  C   UNL     1       2.278  -5.883   2.400  0.00  0.00    +0.029 A 
ATOM     27  C   UNL     1       2.259  -4.501   2.407  0.00  0.00    +0.007 A 
BRANCH  25  28
ATOM     28  S   UNL     1       1.192  -8.354   2.808  0.00  0.00    +0.056 S 
ATOM     29  O   UNL     1      -0.163  -8.778   2.730  0.00  0.00    -0.153 OA
ATOM     30  O   UNL     1       2.168  -8.741   1.851  0.00  0.00    -0.153 OA
BRANCH  28  31
ATOM     31  N   UNL     1       1.756  -8.844   4.286  0.00  0.00    -0.204 NA
ATOM     32  H   UNL     1       1.462  -9.688   4.662  0.00  0.00    +0.144 HD
ATOM     33  H   UNL     1       2.381  -8.287   4.775  0.00  0.00    +0.144 HD
ENDBRANCH  28  31
ENDBRANCH  25  28
ENDBRANCH  21  22
ENDBRANCH   3  21
TORSDOF 9
