REMARK  Name = ZINC02855902
REMARK  9 active torsions:
REMARK  status: ('A' for Active; 'I' for Inactive)
REMARK    1  A    between atoms: C_1  and  C_2
REMARK    2  A    between atoms: C_11  and  N_13
REMARK    3  A    between atoms: N_13  and  C_14
REMARK    4  A    between atoms: C_14  and  N_16
REMARK    5  A    between atoms: N_16  and  N_17
REMARK    6  A    between atoms: C_18  and  C_20
REMARK    7  A    between atoms: C_20  and  C_21
REMARK    8  A    between atoms: C_20  and  C_27
REMARK    9  A    between atoms: C_20  and  O_33
REMARK                            x       y       z     vdW  Elec       q    Type
REMARK                         _______ _______ _______ _____ _____    ______ ____
ROOT
ATOM      1  N   UNL     1       1.370   6.415  -1.932  0.00  0.00    -0.232 N 
ATOM      2  C   UNL     1       2.140   6.863  -0.921  0.00  0.00    +0.270 C 
ATOM      3  O   UNL     1       2.753   7.902  -1.040  0.00  0.00    -0.270 OA
ATOM      4  H   UNL     1       0.880   5.583  -1.837  0.00  0.00    +0.173 HD
ENDROOT
BRANCH   1   5
ATOM      5  N   UNL     1       1.278   7.149  -3.122  0.00  0.00    -0.246 N 
ATOM      6  H   UNL     1       1.769   7.981  -3.217  0.00  0.00    +0.172 HD
BRANCH   5   7
ATOM      7  C   UNL     1       0.509   6.701  -4.133  0.00  0.00    +0.151 C 
ATOM      8  S   UNL     1       0.397   7.599  -5.587  0.00  0.00    -0.017 S 
BRANCH   7   9
ATOM      9  N   UNL     1      -0.177   5.548  -3.998  0.00  0.00    -0.296 N 
ATOM     10  H   UNL     1      -0.059   5.004  -3.205  0.00  0.00    +0.154 HD
BRANCH   9  21
ATOM     11  C   UNL     1      -4.687   4.874  -8.686  0.00  0.00    +0.045 C 
ATOM     12  C   UNL     1      -3.730   3.907  -8.038  0.00  0.00    -0.033 A 
ATOM     13  C   UNL     1      -3.697   2.601  -8.414  0.00  0.00    +0.096 A 
ATOM     14  C   UNL     1      -2.793   1.715  -7.793  0.00  0.00    +0.337 A 
ATOM     15  O   UNL     1      -2.773   0.548  -8.140  0.00  0.00    -0.245 OA
ATOM     16  O   UNL     1      -1.952   2.126  -6.831  0.00  0.00    -0.422 OA
ATOM     17  C   UNL     1      -1.934   3.409  -6.411  0.00  0.00    +0.141 A 
ATOM     18  C   UNL     1      -2.811   4.347  -6.988  0.00  0.00    +0.021 A 
ATOM     19  C   UNL     1      -2.795   5.679  -6.557  0.00  0.00    +0.013 A 
ATOM     20  C   UNL     1      -1.932   6.063  -5.572  0.00  0.00    +0.024 A 
ATOM     21  C   UNL     1      -1.057   5.140  -5.000  0.00  0.00    +0.036 A 
ATOM     22  C   UNL     1      -1.059   3.816  -5.416  0.00  0.00    +0.070 A 
ENDBRANCH   9  21
ENDBRANCH   7   9
ENDBRANCH   5   7
ENDBRANCH   1   5
BRANCH   2  23
ATOM     23  C   UNL     1       2.238   6.073   0.358  0.00  0.00    +0.194 C 
BRANCH  23  24
ATOM     24  C   UNL     1       3.540   6.392   1.047  0.00  0.00    -0.003 A 
ATOM     25  C   UNL     1       4.640   5.577   0.857  0.00  0.00    +0.007 A 
ATOM     26  C   UNL     1       5.836   5.872   1.485  0.00  0.00    +0.000 A 
ATOM     27  C   UNL     1       5.929   6.977   2.310  0.00  0.00    +0.000 A 
ATOM     28  C   UNL     1       4.827   7.789   2.505  0.00  0.00    +0.000 A 
ATOM     29  C   UNL     1       3.633   7.497   1.873  0.00  0.00    +0.007 A 
ENDBRANCH  23  24
BRANCH  23  30
ATOM     30  C   UNL     1       1.089   6.436   1.263  0.00  0.00    -0.003 A 
ATOM     31  C   UNL     1       0.412   7.627   1.076  0.00  0.00    +0.007 A 
ATOM     32  C   UNL     1      -0.645   7.958   1.903  0.00  0.00    +0.000 A 
ATOM     33  C   UNL     1      -1.018   7.104   2.924  0.00  0.00    +0.000 A 
ATOM     34  C   UNL     1      -0.337   5.916   3.115  0.00  0.00    +0.000 A 
ATOM     35  C   UNL     1       0.716   5.582   2.284  0.00  0.00    +0.007 A 
ENDBRANCH  23  30
BRANCH  23  36
ATOM     36  O   UNL     1       2.187   4.676   0.061  0.00  0.00    -0.371 OA
ATOM     37  H   UNL     1       2.898   4.371  -0.518  0.00  0.00    +0.212 HD
ENDBRANCH  23  36
ENDBRANCH   2  23
TORSDOF 8
