REMARK  Name = ZINC59088686
REMARK  10 active torsions:
REMARK  status: ('A' for Active; 'I' for Inactive)
REMARK    1  A    between atoms: C_1  and  C_2
REMARK    2  A    between atoms: C_2  and  C_30
REMARK    3  A    between atoms: C_4  and  N_10
REMARK    4  A    between atoms: C_6  and  C_8
REMARK    5  A    between atoms: C_6  and  C_9
REMARK    6  A    between atoms: N_10  and  C_11
REMARK    7  A    between atoms: N_10  and  C_19
REMARK    8  A    between atoms: C_11  and  C_12
REMARK    9  A    between atoms: C_19  and  N_21
REMARK   10  A    between atoms: N_21  and  C_22
REMARK                            x       y       z     vdW  Elec       q    Type
REMARK                         _______ _______ _______ _____ _____    ______ ____
ROOT
ATOM      1  N   UNL     1      -2.861  -2.430   0.175  0.00  0.00    -0.305 N 
ENDROOT
BRANCH   1   5
ATOM      2  C   UNL     1       1.817  -3.919   0.223  0.00  0.00    -0.010 C 
ATOM      3  C   UNL     1       0.927  -2.654   0.214  0.00  0.00    -0.072 C 
ATOM      4  C   UNL     1      -0.521  -3.116   0.340  0.00  0.00    +0.009 C 
ATOM      5  C   UNL     1      -1.476  -1.951   0.079  0.00  0.00    +0.073 C 
ATOM      6  C   UNL     1      -1.219  -1.432  -1.336  0.00  0.00    +0.009 C 
ATOM      7  C   UNL     1       0.223  -0.957  -1.474  0.00  0.00    -0.072 C 
ATOM      8  N   UNL     1       1.196  -1.934  -1.018  0.00  0.00    +0.386 N 
ATOM      9  C   UNL     1       0.399   0.383  -0.752  0.00  0.00    -0.010 C 
ATOM     10  C   UNL     1       0.483  -0.700  -2.976  0.00  0.00    -0.010 C 
ATOM     11  C   UNL     1       1.315  -1.823   1.441  0.00  0.00    -0.010 C 
ATOM     12  H   UNL     1       2.103  -1.465  -0.924  0.00  0.00    -0.084 HD
ATOM     13  H   UNL     1       1.335  -2.620  -1.766  0.00  0.00    -0.084 HD
ENDBRANCH   1   5
BRANCH   1  14
ATOM     14  C   UNL     1      -3.657  -1.993   1.170  0.00  0.00    +0.138 C 
ATOM     15  S   UNL     1      -5.240  -2.623   1.339  0.00  0.00    -0.018 S 
BRANCH  14  16
ATOM     16  N   UNL     1      -3.208  -1.059   2.032  0.00  0.00    -0.296 N 
ATOM     17  H   UNL     1      -2.894  -1.322   2.912  0.00  0.00    +0.154 HD
BRANCH  16  18
ATOM     18  C   UNL     1      -3.193   0.290   1.659  0.00  0.00    +0.051 A 
ATOM     19  C   UNL     1      -3.746   0.682   0.447  0.00  0.00    +0.026 A 
ATOM     20  C   UNL     1      -3.731   2.014   0.081  0.00  0.00    +0.022 A 
ATOM     21  C   UNL     1      -3.165   2.957   0.920  0.00  0.00    +0.042 A 
ATOM     22  C   UNL     1      -2.613   2.570   2.128  0.00  0.00    +0.041 A 
ATOM     23  C   UNL     1      -2.631   1.240   2.502  0.00  0.00    +0.063 A 
ATOM     24 CL   UNL     1      -1.944   0.755   4.021  0.00  0.00    -0.082 Cl
ATOM     25 CL   UNL     1      -3.148   4.630   0.456  0.00  0.00    -0.083 Cl
ENDBRANCH  16  18
ENDBRANCH  14  16
ENDBRANCH   1  14
BRANCH   1  26
ATOM     26  C   UNL     1      -3.376  -3.383  -0.811  0.00  0.00    +0.142 C 
BRANCH  26  27
ATOM     27  C   UNL     1      -3.180  -4.788  -0.302  0.00  0.00    -0.030 A 
ATOM     28  C   UNL     1      -2.082  -5.522  -0.708  0.00  0.00    +0.008 A 
ATOM     29  C   UNL     1      -1.901  -6.811  -0.242  0.00  0.00    +0.038 A 
ATOM     30  C   UNL     1      -2.820  -7.365   0.633  0.00  0.00    +0.123 A 
ATOM     31  C   UNL     1      -3.920  -6.629   1.039  0.00  0.00    +0.038 A 
ATOM     32  C   UNL     1      -4.096  -5.339   0.575  0.00  0.00    +0.008 A 
ATOM     33  F   UNL     1      -2.644  -8.625   1.089  0.00  0.00    -0.205 F 
ENDBRANCH  26  27
ENDBRANCH   1  26
TORSDOF 6
