REMARK  Name = ZINC67407488
REMARK  9 active torsions:
REMARK  status: ('A' for Active; 'I' for Inactive)
REMARK    1  A    between atoms: C_1  and  C_2
REMARK    2  A    between atoms: C_7  and  C_11
REMARK    3  A    between atoms: C_11  and  N_12
REMARK    4  A    between atoms: N_15  and  C_16
REMARK    5  A    between atoms: C_16  and  C_17
REMARK    6  A    between atoms: C_21  and  C_23
REMARK    7  A    between atoms: N_25  and  C_26
REMARK    8  A    between atoms: C_26  and  C_27
REMARK    9  A    between atoms: C_26  and  C_28
REMARK                            x       y       z     vdW  Elec       q    Type
REMARK                         _______ _______ _______ _____ _____    ______ ____
ROOT
ATOM      1  N   UNL     1       1.469  -5.880   2.655  0.00  0.00    -0.294 N 
ATOM      2  C   UNL     1       1.732  -7.014   3.335  0.00  0.00    +0.300 C 
ATOM      3  O   UNL     1       0.822  -7.750   3.664  0.00  0.00    -0.253 OA
ATOM      4  N   UNL     1       3.003  -7.331   3.651  0.00  0.00    -0.295 N 
ATOM      5  H   UNL     1       2.195  -5.293   2.393  0.00  0.00    +0.151 HD
ATOM      6  H   UNL     1       3.729  -6.743   3.388  0.00  0.00    +0.151 HD
ENDROOT
BRANCH   1   7
ATOM      7  C   UNL     1       0.087  -5.536   2.312  0.00  0.00    +0.160 C 
BRANCH   7  14
ATOM      8  C   UNL     1      -0.018   1.503   0.010  0.00  0.00    +0.044 C 
ATOM      9  C   UNL     1       0.002  -0.004   0.002  0.00  0.00    -0.046 A 
ATOM     10  C   UNL     1       0.006  -0.703  -1.216  0.00  0.00    +0.021 A 
ATOM     11  C   UNL     1       0.025  -2.052  -1.227  0.00  0.00    +0.093 A 
ATOM     12  N   UNL     1       0.040  -2.757  -0.058  0.00  0.00    -0.308 N 
ATOM     13  C   UNL     1       0.059  -4.097   0.214  0.00  0.00    +0.115 A 
ATOM     14  C   UNL     1       0.067  -4.231   1.559  0.00  0.00    +0.051 A 
ATOM     15  N   UNL     1       0.053  -3.014   2.108  0.00  0.00    -0.342 N 
ATOM     16  C   UNL     1       0.036  -2.103   1.146  0.00  0.00    +0.116 A 
ATOM     17  C   UNL     1       0.023  -0.694   1.174  0.00  0.00    +0.048 A 
ATOM     18  H   UNL     1       0.055  -2.827   3.060  0.00  0.00    +0.167 HD
ENDBRANCH   7  14
ENDBRANCH   1   7
BRANCH   4  19
ATOM     19  C   UNL     1       3.289  -8.563   4.390  0.00  0.00    +0.141 C 
BRANCH  19  20
ATOM     20  C   UNL     1       4.775  -8.681   4.613  0.00  0.00    -0.030 A 
ATOM     21  C   UNL     1       5.565  -9.327   3.678  0.00  0.00    +0.005 A 
ATOM     22  C   UNL     1       6.929  -9.439   3.875  0.00  0.00    +0.001 A 
ATOM     23  C   UNL     1       7.512  -8.909   5.008  0.00  0.00    +0.013 A 
ATOM     24  C   UNL     1       6.721  -8.256   5.955  0.00  0.00    +0.037 A 
ATOM     25  C   UNL     1       5.346  -8.141   5.747  0.00  0.00    +0.018 A 
BRANCH  24  26
ATOM     26  C   UNL     1       7.339  -7.686   7.171  0.00  0.00    +0.244 C 
ATOM     27  O   UNL     1       6.648  -7.118   7.994  0.00  0.00    -0.270 OA
ATOM     28  N   UNL     1       8.668  -7.794   7.366  0.00  0.00    -0.309 N 
ATOM     29  H   UNL     1       9.219  -8.247   6.709  0.00  0.00    +0.149 HD
BRANCH  28  30
ATOM     30  C   UNL     1       9.280  -7.229   8.571  0.00  0.00    +0.067 C 
ATOM     31  C   UNL     1       9.177  -8.238   9.717  0.00  0.00    +0.027 C 
ATOM     32  C   UNL     1      10.752  -6.917   8.297  0.00  0.00    +0.027 C 
ENDBRANCH  28  30
ENDBRANCH  24  26
ENDBRANCH  19  20
ENDBRANCH   4  19
TORSDOF 6
