REMARK  Name = ZINC49415152
REMARK  7 active torsions:
REMARK  status: ('A' for Active; 'I' for Inactive)
REMARK    1  A    between atoms: C_1  and  C_2
REMARK    2  A    between atoms: C_2  and  C_3
REMARK    3  A    between atoms: C_2  and  N_4
REMARK    4  A    between atoms: C_7  and  C_10
REMARK    5  A    between atoms: C_10  and  N_11
REMARK    6  A    between atoms: N_14  and  C_15
REMARK    7  A    between atoms: C_15  and  C_16
REMARK                            x       y       z     vdW  Elec       q    Type
REMARK                         _______ _______ _______ _____ _____    ______ ____
ROOT
ATOM      1  N   UNL     1       0.706  -4.013   4.433  0.00  0.00    -0.299 N 
ATOM      2  C   UNL     1       0.333  -5.201   4.950  0.00  0.00    +0.300 C 
ATOM      3  O   UNL     1      -0.204  -6.030   4.241  0.00  0.00    -0.253 OA
ATOM      4  N   UNL     1       0.554  -5.469   6.252  0.00  0.00    -0.295 N 
ATOM      5  H   UNL     1       1.135  -3.352   4.999  0.00  0.00    +0.150 HD
ATOM      6  H   UNL     1       0.983  -4.808   6.817  0.00  0.00    +0.151 HD
ENDROOT
BRANCH   1   7
ATOM      7  C   UNL     1       0.465  -3.721   3.018  0.00  0.00    +0.107 C 
BRANCH   7  11
ATOM      8  N   UNL     1       0.713  -0.491   1.192  0.00  0.00    +0.381 N 
ATOM      9  C   UNL     1      -0.015  -0.096   2.418  0.00  0.00    -0.078 C 
ATOM     10  C   UNL     1       0.148  -1.245   3.430  0.00  0.00    -0.015 C 
ATOM     11  C   UNL     1       0.980  -2.318   2.692  0.00  0.00    -0.012 C 
ATOM     12  C   UNL     1       0.742  -1.976   1.200  0.00  0.00    -0.074 C 
ATOM     13  H   UNL     1       1.652  -0.124   1.211  0.00  0.00    -0.081 HD
BRANCH   8  15
ATOM     14  C   UNL     1      -0.019   1.526   0.010  0.00  0.00    -0.014 C 
ATOM     15  C   UNL     1       0.002  -0.004   0.002  0.00  0.00    -0.075 C 
ATOM     16  C   UNL     1       0.718  -0.497  -1.257  0.00  0.00    -0.014 C 
ENDBRANCH   8  15
ENDBRANCH   7  11
ENDBRANCH   1   7
BRANCH   4  17
ATOM     17  C   UNL     1       0.148  -6.760   6.813  0.00  0.00    +0.148 C 
BRANCH  17  18
ATOM     18  C   UNL     1       0.506  -6.807   8.276  0.00  0.00    +0.008 A 
ATOM     19  C   UNL     1      -0.235  -6.436   9.348  0.00  0.00    +0.014 A 
ATOM     20  C   UNL     1       0.304  -6.569  10.614  0.00  0.00    +0.023 A 
ATOM     21  C   UNL     1       1.559  -7.066  10.746  0.00  0.00    +0.055 A 
ATOM     22  S   UNL     1       2.014  -7.372   9.047  0.00  0.00    -0.085 S 
ATOM     23 BR   UNL     1       2.563  -7.365  12.320  0.00  0.00    -0.043 Br
ENDBRANCH  17  18
ENDBRANCH   4  17
TORSDOF 5
