REMARK  Name = ZINC41353821
REMARK  5 active torsions:
REMARK  status: ('A' for Active; 'I' for Inactive)
REMARK    1  A    between atoms: C_1  and  O_2
REMARK    2  A    between atoms: O_2  and  C_3
REMARK    3  A    between atoms: C_8  and  C_9
REMARK    4  A    between atoms: C_11  and  O_12
REMARK    5  A    between atoms: C_21  and  C_23
REMARK                            x       y       z     vdW  Elec       q    Type
REMARK                         _______ _______ _______ _____ _____    ______ ____
ROOT
ATOM      1  C   UNL     1      -0.418  -3.063  -0.677  0.00  0.00    +0.143 A 
ATOM      2  C   UNL     1       0.735  -2.374  -1.001  0.00  0.00    +0.093 A 
ATOM      3  C   UNL     1       1.959  -3.041  -1.018  0.00  0.00    +0.131 A 
ATOM      4  C   UNL     1       1.978  -4.422  -0.698  0.00  0.00    +0.059 A 
ATOM      5  C   UNL     1       3.183  -5.143  -0.699  0.00  0.00    +0.017 A 
ATOM      6  C   UNL     1       3.182  -6.467  -0.389  0.00  0.00    +0.024 A 
ATOM      7  C   UNL     1       1.979  -7.120  -0.067  0.00  0.00    +0.037 A 
ATOM      8  C   UNL     1       0.773  -6.415  -0.062  0.00  0.00    +0.070 A 
ATOM      9  C   UNL     1       0.765  -5.068  -0.376  0.00  0.00    +0.141 A 
ATOM     10  O   UNL     1      -0.390  -4.370  -0.370  0.00  0.00    -0.454 OA
ATOM     11  N   UNL     1       1.990  -8.443   0.241  0.00  0.00    -0.279 N 
ATOM     12  C   UNL     1       0.932  -8.999   0.822  0.00  0.00    +0.284 C 
ATOM     13  O   UNL     1       0.001  -8.300   1.191  0.00  0.00    -0.266 OA
ATOM     14  H   UNL     1       2.770  -8.982   0.036  0.00  0.00    +0.155 HD
ENDROOT
BRANCH  12  15
ATOM     15  C   UNL     1       0.883 -10.460   1.020  0.00  0.00    +0.191 A 
ATOM     16  C   UNL     1      -0.144 -11.134   1.595  0.00  0.00    +0.063 A 
ATOM     17  C   UNL     1       0.239 -12.546   1.579  0.00  0.00    +0.022 A 
ATOM     18  C   UNL     1      -0.371 -13.725   2.013  0.00  0.00    +0.027 A 
ATOM     19  C   UNL     1       0.271 -14.921   1.847  0.00  0.00    +0.019 A 
ATOM     20  C   UNL     1       1.524 -14.969   1.252  0.00  0.00    +0.019 A 
ATOM     21  C   UNL     1       2.143 -13.816   0.817  0.00  0.00    +0.048 A 
ATOM     22  C   UNL     1       1.508 -12.590   0.975  0.00  0.00    +0.136 A 
ATOM     23  O   UNL     1       1.849 -11.326   0.654  0.00  0.00    -0.450 OA
ATOM     24 BR   UNL     1      -0.553 -16.519   2.434  0.00  0.00    -0.050 Br
ENDBRANCH  12  15
BRANCH   1  30
ATOM     25  C   UNL     1      -2.902  -3.053  -0.469  0.00  0.00    +0.131 A 
ATOM     26  C   UNL     1      -4.107  -2.368  -0.452  0.00  0.00    +0.046 A 
ATOM     27  C   UNL     1      -4.128  -0.998  -0.630  0.00  0.00    +0.004 A 
ATOM     28  C   UNL     1      -2.948  -0.298  -0.827  0.00  0.00    +0.001 A 
ATOM     29  C   UNL     1      -1.741  -0.962  -0.847  0.00  0.00    +0.015 A 
ATOM     30  C   UNL     1      -1.705  -2.348  -0.663  0.00  0.00    +0.059 A 
BRANCH  25  32
ATOM     31  C   UNL     1      -4.139  -5.048  -0.103  0.00  0.00    +0.277 C 
ATOM     32  O   UNL     1      -2.881  -4.398  -0.294  0.00  0.00    -0.494 OA
ENDBRANCH  25  32
ENDBRANCH   1  30
BRANCH   3  33
ATOM     33  O   UNL     1       3.099  -2.388  -1.331  0.00  0.00    -0.506 OA
ATOM     34  H   UNL     1       2.973  -1.450  -1.532  0.00  0.00    +0.292 HD
ENDBRANCH   3  33
TORSDOF 4
