REMARK  Name = ZINC24339754
REMARK  13 active torsions:
REMARK  status: ('A' for Active; 'I' for Inactive)
REMARK    1  A    between atoms: C_1  and  C_2
REMARK    2  A    between atoms: C_4  and  C_29
REMARK    3  A    between atoms: C_6  and  O_8
REMARK    4  A    between atoms: O_8  and  C_9
REMARK    5  A    between atoms: C_9  and  C_10
REMARK    6  A    between atoms: C_10  and  N_11
REMARK    7  A    between atoms: N_11  and  C_12
REMARK    8  A    between atoms: N_11  and  C_13
REMARK    9  A    between atoms: C_13  and  C_14
REMARK   10  A    between atoms: N_16  and  C_17
REMARK   11  A    between atoms: C_17  and  C_18
REMARK   12  A    between atoms: N_20  and  C_21
REMARK   13  A    between atoms: C_26  and  C_27
REMARK                            x       y       z     vdW  Elec       q    Type
REMARK                         _______ _______ _______ _____ _____    ______ ____
ROOT
ATOM      1  C   UNL     1       7.016   4.370  -3.062  0.00  0.00    +0.197 C 
ATOM      2  O   UNL     1       6.346   3.684  -3.805  0.00  0.00    -0.278 OA
ATOM      3  N   UNL     1       8.195   4.867  -3.485  0.00  0.00    -0.308 N 
ATOM      4  H   UNL     1       8.803   5.490  -2.811  0.00  0.00    +0.149 HD
ENDROOT
BRANCH   1   5
ATOM      5  C   UNL     1       6.530   4.666  -1.667  0.00  0.00    +0.018 C 
BRANCH   5   6
ATOM      6  N   UNL     1       5.230   4.015  -1.453  0.00  0.00    +0.386 N 
ATOM      7  C   UNL     1       5.365   2.553  -1.473  0.00  0.00    -0.095 C 
ATOM      8  H   UNL     1       4.567   4.305  -2.281  0.00  0.00    -0.081 HD
BRANCH   6   9
ATOM      9  C   UNL     1       4.614   4.471  -0.200  0.00  0.00    -0.037 C 
BRANCH   9  10
ATOM     10  C   UNL     1       4.030   5.871  -0.398  0.00  0.00    +0.210 C 
BRANCH  10  11
ATOM     11  O   UNL     1       2.983   5.817  -1.369  0.00  0.00    -0.494 OA
BRANCH  11  17
ATOM     12  C   UNL     1       2.517  10.623  -0.650  0.00  0.00    +0.044 C 
ATOM     13  C   UNL     1       2.097   9.346  -1.332  0.00  0.00    -0.047 A 
ATOM     14  C   UNL     1       1.075   9.364  -2.264  0.00  0.00    +0.007 A 
ATOM     15  C   UNL     1       0.691   8.196  -2.895  0.00  0.00    -0.047 A 
ATOM     16  C   UNL     1       1.328   7.007  -2.597  0.00  0.00    +0.049 A 
ATOM     17  C   UNL     1       2.354   6.986  -1.663  0.00  0.00    +0.121 A 
ATOM     18  C   UNL     1       2.737   8.159  -1.031  0.00  0.00    +0.049 A 
ATOM     19  C   UNL     1      -0.423   8.219  -3.909  0.00  0.00    +0.044 C 
ENDBRANCH  11  17
ENDBRANCH  10  11
ENDBRANCH   9  10
ENDBRANCH   6   9
ENDBRANCH   5   6
ENDBRANCH   1   5
BRANCH   3  20
ATOM     20  C   UNL     1       8.668   4.579  -4.841  0.00  0.00    +0.200 C 
BRANCH  20  21
ATOM     21  C   UNL     1      10.002   5.247  -5.061  0.00  0.00    +0.234 C 
ATOM     22  O   UNL     1      10.507   5.899  -4.172  0.00  0.00    -0.274 OA
ATOM     23  N   UNL     1      10.632   5.119  -6.245  0.00  0.00    -0.284 N 
ATOM     24  H   UNL     1      10.219   4.457  -7.020  0.00  0.00    +0.155 HD
BRANCH  23  25
ATOM     25  C   UNL     1      11.813   5.829  -6.489  0.00  0.00    +0.038 A 
ATOM     26  C   UNL     1      12.116   6.956  -5.735  0.00  0.00    +0.023 A 
ATOM     27  C   UNL     1      13.282   7.654  -5.978  0.00  0.00    +0.003 A 
ATOM     28  C   UNL     1      14.149   7.233  -6.969  0.00  0.00    +0.020 A 
ATOM     29  C   UNL     1      13.851   6.111  -7.722  0.00  0.00    +0.046 A 
ATOM     30  C   UNL     1      12.687   5.405  -7.480  0.00  0.00    -0.011 A 
ATOM     31  C   UNL     1      12.365   4.179  -8.296  0.00  0.00    +0.047 C 
ATOM     32 CL   UNL     1      14.942   5.586  -8.966  0.00  0.00    -0.083 Cl
ENDBRANCH  23  25
ENDBRANCH  20  21
ENDBRANCH   3  20
TORSDOF 9
