REMARK  Name = ZINC36599121
REMARK  14 active torsions:
REMARK  status: ('A' for Active; 'I' for Inactive)
REMARK    1  A    between atoms: C_1  and  C_2
REMARK    2  A    between atoms: C_2  and  C_3
REMARK    3  A    between atoms: C_3  and  C_4
REMARK    4  A    between atoms: C_4  and  N_5
REMARK    5  A    between atoms: C_6  and  C_8
REMARK    6  A    between atoms: C_8  and  C_10
REMARK    7  A    between atoms: C_8  and  N_19
REMARK    8  A    between atoms: C_11  and  O_18
REMARK    9  A    between atoms: C_13  and  O_17
REMARK   10  A    between atoms: C_15  and  O_16
REMARK   11  A    between atoms: N_19  and  C_20
REMARK   12  A    between atoms: C_20  and  C_21
REMARK   13  A    between atoms: C_24  and  C_26
REMARK   14  A    between atoms: C_27  and  C_29
REMARK                            x       y       z     vdW  Elec       q    Type
REMARK                         _______ _______ _______ _____ _____    ______ ____
ROOT
ATOM      1  C   UNL     1      -4.333  -5.136   2.023  0.00  0.00    +0.200 C 
ENDROOT
BRANCH   1   2
ATOM      2  C   UNL     1      -4.306  -5.706   3.418  0.00  0.00    +0.065 A 
ATOM      3  C   UNL     1      -3.463  -6.764   3.719  0.00  0.00    +0.129 A 
ATOM      4  C   UNL     1      -3.438  -7.288   5.003  0.00  0.00    +0.091 A 
ATOM      5  C   UNL     1      -4.257  -6.753   5.986  0.00  0.00    +0.124 A 
ATOM      6  C   UNL     1      -5.099  -5.693   5.685  0.00  0.00    +0.091 A 
ATOM      7  C   UNL     1      -5.121  -5.167   4.403  0.00  0.00    +0.129 A 
BRANCH   7   8
ATOM      8  O   UNL     1      -5.943  -4.125   4.109  0.00  0.00    -0.506 OA
ATOM      9  H   UNL     1      -6.850  -4.388   3.897  0.00  0.00    +0.292 HD
ENDBRANCH   7   8
BRANCH   5  10
ATOM     10  O   UNL     1      -4.233  -7.266   7.244  0.00  0.00    -0.507 OA
ATOM     11  H   UNL     1      -3.588  -6.845   7.829  0.00  0.00    +0.292 HD
ENDBRANCH   5  10
BRANCH   3  12
ATOM     12  O   UNL     1      -2.661  -7.289   2.756  0.00  0.00    -0.506 OA
ATOM     13  H   UNL     1      -1.787  -6.880   2.705  0.00  0.00    +0.292 HD
ENDBRANCH   3  12
ENDBRANCH   1   2
BRANCH   1  15
ATOM     14  N   UNL     1      -5.650  -3.084   1.607  0.00  0.00    -0.313 N 
ATOM     15  C   UNL     1      -4.524  -3.643   2.093  0.00  0.00    +0.238 C 
ATOM     16  O   UNL     1      -3.665  -2.945   2.587  0.00  0.00    -0.273 OA
ATOM     17  H   UNL     1      -6.337  -3.643   1.212  0.00  0.00    +0.149 HD
BRANCH  14  18
ATOM     18  C   UNL     1      -5.835  -1.633   1.675  0.00  0.00    +0.104 C 
BRANCH  18  19
ATOM     19  C   UNL     1      -7.186  -1.262   1.059  0.00  0.00    +0.018 C 
BRANCH  19  21
ATOM     20  C   UNL     1      -8.730   0.625   0.514  0.00  0.00    +0.004 C 
ATOM     21  C   UNL     1      -7.380   0.254   1.130  0.00  0.00    -0.002 C 
ENDBRANCH  19  21
ENDBRANCH  18  19
ENDBRANCH  14  18
ENDBRANCH   1  15
BRANCH   1  22
ATOM     22  N   UNL     1      -3.067  -5.436   1.349  0.00  0.00    -0.274 N 
ATOM     23  C   UNL     1      -2.849  -6.665   0.841  0.00  0.00    +0.248 C 
ATOM     24  O   UNL     1      -1.766  -6.940   0.361  0.00  0.00    -0.270 OA
BRANCH  23  25
ATOM     25  C   UNL     1      -3.925  -7.678   0.868  0.00  0.00    +0.037 A 
ATOM     26  C   UNL     1      -5.192  -7.368   0.370  0.00  0.00    +0.013 A 
ATOM     27  C   UNL     1      -6.191  -8.319   0.398  0.00  0.00    +0.001 A 
ATOM     28  C   UNL     1      -5.941  -9.576   0.917  0.00  0.00    +0.000 A 
ATOM     29  C   UNL     1      -4.688  -9.890   1.412  0.00  0.00    +0.001 A 
ATOM     30  C   UNL     1      -3.677  -8.951   1.385  0.00  0.00    +0.013 A 
ENDBRANCH  23  25
BRANCH  22  31
ATOM     31  C   UNL     1      -2.039  -4.399   1.227  0.00  0.00    +0.183 C 
BRANCH  31  32
ATOM     32  C   UNL     1      -1.006  -4.588   2.308  0.00  0.00    +0.122 A 
ATOM     33  C   UNL     1      -0.012  -5.495   2.297  0.00  0.00    +0.046 A 
ATOM     34  C   UNL     1       0.714  -5.321   3.497  0.00  0.00    +0.045 A 
ATOM     35  C   UNL     1       0.121  -4.319   4.170  0.00  0.00    +0.102 A 
ATOM     36  O   UNL     1      -0.917  -3.875   3.442  0.00  0.00    -0.463 OA
ATOM     37  C   UNL     1       0.551  -3.782   5.511  0.00  0.00    +0.086 C 
ENDBRANCH  31  32
ENDBRANCH  22  31
ENDBRANCH   1  22
TORSDOF 12
