REMARK  Name = ZINC15946740
REMARK  14 active torsions:
REMARK  status: ('A' for Active; 'I' for Inactive)
REMARK    1  A    between atoms: C_1  and  C_2
REMARK    2  A    between atoms: C_6  and  N_8
REMARK    3  A    between atoms: C_9  and  C_11
REMARK    4  A    between atoms: C_15  and  N_16
REMARK    5  A    between atoms: C_17  and  C_19
REMARK    6  A    between atoms: C_19  and  N_68
REMARK    7  A    between atoms: C_20  and  C_21
REMARK    8  A    between atoms: C_20  and  N_68
REMARK    9  A    between atoms: C_21  and  C_22
REMARK   10  A    between atoms: C_21  and  C_23
REMARK   11  A    between atoms: C_25  and  C_29
REMARK   12  A    between atoms: C_29  and  C_30
REMARK   13  A    between atoms: C_29  and  C_31
REMARK   14  A    between atoms: C_29  and  C_32
REMARK                            x       y       z     vdW  Elec       q    Type
REMARK                         _______ _______ _______ _____ _____    ______ ____
ROOT
ATOM      1  C   UNL     1      -1.255   7.362  -0.162  0.00  0.00    +0.069 A 
ATOM      2  C   UNL     1      -1.306   8.200   1.024  0.00  0.00    -0.023 A 
ATOM      3  C   UNL     1      -1.313   9.530   0.787  0.00  0.00    -0.004 A 
ATOM      4  S   UNL     1      -1.254   9.677  -0.976  0.00  0.00    -0.077 S 
ATOM      5  C   UNL     1      -1.215   7.996  -1.395  0.00  0.00    +0.084 A 
ATOM      6  C   UNL     1      -1.359  10.628   1.805  0.00  0.00    +0.046 C 
ATOM      7  C   UNL     1      -1.021  10.030   3.178  0.00  0.00    -0.000 C 
ATOM      8  C   UNL     1      -1.851   8.759   3.380  0.00  0.00    +0.009 C 
ATOM      9  C   UNL     1      -1.349   7.656   2.446  0.00  0.00    +0.037 C 
ENDROOT
BRANCH   1  11
ATOM     10  N   UNL     1      -0.069   5.241   0.029  0.00  0.00    -0.281 N 
ATOM     11  C   UNL     1      -1.242   5.899  -0.058  0.00  0.00    +0.251 C 
ATOM     12  O   UNL     1      -2.289   5.280  -0.051  0.00  0.00    -0.270 OA
ATOM     13  H   UNL     1       0.761   5.737   0.101  0.00  0.00    +0.155 HD
BRANCH  10  19
ATOM     14  C   UNL     1       1.964   1.024   1.528  0.00  0.00    +0.044 C 
ATOM     15  C   UNL     1       0.925   1.772   0.734  0.00  0.00    -0.049 A 
ATOM     16  C   UNL     1      -0.011   1.076  -0.009  0.00  0.00    +0.003 A 
ATOM     17  C   UNL     1      -0.962   1.759  -0.743  0.00  0.00    +0.002 A 
ATOM     18  C   UNL     1      -0.988   3.140  -0.729  0.00  0.00    +0.023 A 
ATOM     19  C   UNL     1      -0.050   3.842   0.017  0.00  0.00    +0.034 A 
ATOM     20  C   UNL     1       0.908   3.153   0.749  0.00  0.00    +0.026 A 
ENDBRANCH  10  19
ENDBRANCH   1  11
BRANCH   5  21
ATOM     21  N   UNL     1      -1.159   7.424  -2.657  0.00  0.00    -0.281 N 
ATOM     22  C   UNL     1      -1.125   8.209  -3.752  0.00  0.00    +0.201 C 
ATOM     23  O   UNL     1      -1.144   9.416  -3.634  0.00  0.00    -0.278 OA
ATOM     24  H   UNL     1      -1.143   6.459  -2.752  0.00  0.00    +0.155 HD
BRANCH  22  25
ATOM     25  C   UNL     1      -1.064   7.588  -5.124  0.00  0.00    +0.015 C 
BRANCH  25  26
ATOM     26  N   UNL     1      -1.037   8.658  -6.139  0.00  0.00    +0.385 N 
ATOM     27  H   UNL     1      -0.211   9.248  -5.987  0.00  0.00    -0.085 HD
ATOM     28  H   UNL     1      -1.887   9.228  -6.052  0.00  0.00    -0.085 HD
BRANCH  26  29
ATOM     29  C   UNL     1      -0.978   8.077  -7.493  0.00  0.00    -0.079 C 
BRANCH  29  30
ATOM     30  C   UNL     1      -0.951   9.208  -8.523  0.00  0.00    -0.034 C 
ATOM     31  C   UNL     1       0.342  10.011  -8.365  0.00  0.00    +0.005 C 
ATOM     32  C   UNL     1      -1.014   8.617  -9.933  0.00  0.00    +0.005 C 
ENDBRANCH  29  30
ENDBRANCH  26  29
ENDBRANCH  25  26
ENDBRANCH  22  25
ENDBRANCH   5  21
BRANCH   7  33
ATOM     33  C   UNL     1      -1.358  11.042   4.275  0.00  0.00    -0.035 C 
ATOM     34  C   UNL     1      -1.036  10.436   5.643  0.00  0.00    +0.011 C 
ATOM     35  C   UNL     1      -0.527  12.310   4.071  0.00  0.00    +0.011 C 
ATOM     36  C   UNL     1      -2.846  11.390   4.209  0.00  0.00    +0.011 C 
ENDBRANCH   7  33
TORSDOF 8
