REMARK  Name = ZINC64044675
REMARK  10 active torsions:
REMARK  status: ('A' for Active; 'I' for Inactive)
REMARK    1  A    between atoms: C_1  and  S_2
REMARK    2  A    between atoms: S_2  and  C_3
REMARK    3  A    between atoms: C_7  and  N_9
REMARK    4  A    between atoms: C_10  and  C_12
REMARK    5  A    between atoms: C_12  and  C_14
REMARK    6  A    between atoms: C_12  and  N_24
REMARK    7  A    between atoms: C_14  and  C_15
REMARK    8  A    between atoms: C_25  and  O_27
REMARK    9  A    between atoms: O_27  and  C_28
REMARK   10  A    between atoms: C_28  and  C_29
REMARK                            x       y       z     vdW  Elec       q    Type
REMARK                         _______ _______ _______ _____ _____    ______ ____
ROOT
ATOM      1  C   UNL     1       3.143  -5.292   4.727  0.00  0.00    +0.166 C 
ENDROOT
BRANCH   1   3
ATOM      2  N   UNL     1       2.066  -3.320   3.692  0.00  0.00    -0.284 N 
ATOM      3  C   UNL     1       2.882  -3.809   4.646  0.00  0.00    +0.238 C 
ATOM      4  O   UNL     1       3.406  -3.057   5.440  0.00  0.00    -0.273 OA
ATOM      5  H   UNL     1       1.592  -3.926   3.102  0.00  0.00    +0.155 HD
BRANCH   2  10
ATOM      6  C   UNL     1       1.573  -0.010   2.158  0.00  0.00    +0.009 A 
ATOM      7  C   UNL     1       1.581   0.803   3.286  0.00  0.00    +0.015 A 
ATOM      8  C   UNL     1       1.750   0.246   4.538  0.00  0.00    +0.003 A 
ATOM      9  C   UNL     1       1.911  -1.119   4.675  0.00  0.00    +0.023 A 
ATOM     10  C   UNL     1       1.903  -1.937   3.552  0.00  0.00    +0.034 A 
ATOM     11  C   UNL     1       1.728  -1.383   2.292  0.00  0.00    +0.038 A 
BRANCH   6  13
ATOM     12  C   UNL     1       1.200   2.478   0.888  0.00  0.00    +0.090 C 
ATOM     13  S   UNL     1       1.357   0.701   0.560  0.00  0.00    -0.129 S 
ENDBRANCH   6  13
ENDBRANCH   2  10
ENDBRANCH   1   3
BRANCH   1  14
ATOM     14  N   UNL     1       4.056  -5.567   5.840  0.00  0.00    -0.269 N 
ATOM     15  C   UNL     1       3.990  -6.746   6.489  0.00  0.00    +0.401 C 
ATOM     16  O   UNL     1       3.174  -7.580   6.152  0.00  0.00    -0.226 OA
ATOM     17  H   UNL     1       4.707  -4.900   6.109  0.00  0.00    +0.153 HD
BRANCH  15  18
ATOM     18  O   UNL     1       4.828  -6.999   7.512  0.00  0.00    -0.446 OA
BRANCH  18  19
ATOM     19  C   UNL     1       4.702  -8.269   8.155  0.00  0.00    +0.269 C 
BRANCH  19  20
ATOM     20  C   UNL     1       5.715  -8.371   9.266  0.00  0.00    -0.010 A 
ATOM     21  C   UNL     1       6.974  -8.879   9.009  0.00  0.00    +0.007 A 
ATOM     22  C   UNL     1       7.903  -8.973  10.029  0.00  0.00    +0.000 A 
ATOM     23  C   UNL     1       7.572  -8.559  11.306  0.00  0.00    +0.000 A 
ATOM     24  C   UNL     1       6.313  -8.050  11.562  0.00  0.00    +0.000 A 
ATOM     25  C   UNL     1       5.386  -7.952  10.542  0.00  0.00    +0.007 A 
ENDBRANCH  19  20
ENDBRANCH  18  19
ENDBRANCH  15  18
ENDBRANCH   1  14
BRANCH   1  26
ATOM     26  C   UNL     1       3.776  -5.770   3.418  0.00  0.00    +0.065 C 
BRANCH  26  27
ATOM     27  C   UNL     1       5.115  -5.103   3.235  0.00  0.00    -0.039 C 
ATOM     28  C   UNL     1       6.324  -5.596   3.588  0.00  0.00    -0.001 A 
ATOM     29  C   UNL     1       6.739  -6.852   4.225  0.00  0.00    +0.010 A 
ATOM     30  C   UNL     1       8.053  -7.067   4.458  0.00  0.00    +0.001 A 
ATOM     31  C   UNL     1       9.028  -6.123   4.107  0.00  0.00    +0.002 A 
ATOM     32  C   UNL     1       8.725  -4.946   3.518  0.00  0.00    +0.026 A 
ATOM     33  C   UNL     1       7.373  -4.616   3.226  0.00  0.00    +0.043 A 
ATOM     34  N   UNL     1       6.833  -3.558   2.671  0.00  0.00    -0.380 N 
ATOM     35  C   UNL     1       5.380  -3.751   2.612  0.00  0.00    +0.144 C 
ATOM     36  H   UNL     1       7.314  -2.780   2.349  0.00  0.00    +0.160 HD
ENDBRANCH  26  27
ENDBRANCH   1  26
TORSDOF 9
