REMARK  Name = ZINC16975601
REMARK  9 active torsions:
REMARK  status: ('A' for Active; 'I' for Inactive)
REMARK    1  A    between atoms: C_1  and  C_2
REMARK    2  A    between atoms: C_2  and  O_3
REMARK    3  A    between atoms: O_3  and  C_4
REMARK    4  A    between atoms: C_4  and  C_6
REMARK    5  A    between atoms: C_6  and  O_7
REMARK    6  A    between atoms: O_7  and  C_8
REMARK    7  A    between atoms: C_11  and  N_14
REMARK    8  A    between atoms: C_19  and  C_20
REMARK    9  A    between atoms: C_19  and  C_21
REMARK                            x       y       z     vdW  Elec       q    Type
REMARK                         _______ _______ _______ _____ _____    ______ ____
ROOT
ATOM      1  N   UNL     1      -2.347   0.981  -0.141  0.00  0.00    -0.250 N 
ATOM      2  C   UNL     1      -1.760   1.070   1.099  0.00  0.00    +0.189 C 
ATOM      3  N   UNL     1      -1.258   2.231   1.478  0.00  0.00    -0.187 NA
ATOM      4  C   UNL     1      -1.330   3.308   0.679  0.00  0.00    +0.191 C 
ATOM      5  N   UNL     1      -2.107   3.340  -0.371  0.00  0.00    -0.337 N 
ATOM      6  C   UNL     1      -2.970   2.196  -0.690  0.00  0.00    +0.109 C 
ATOM      7  C   UNL     1      -3.110   2.063  -2.207  0.00  0.00    +0.056 C 
ATOM      8  C   UNL     1      -4.349   2.397  -0.060  0.00  0.00    +0.056 C 
ATOM      9  N   UNL     1      -0.566   4.418   0.979  0.00  0.00    -0.329 N 
ATOM     10  N   UNL     1      -1.702  -0.019   1.925  0.00  0.00    -0.331 N 
ATOM     11  H   UNL     1      -0.613   5.309   0.335  0.00  0.00    +0.145 HD
ATOM     12  H   UNL     1       0.091   4.411   1.861  0.00  0.00    +0.145 HD
ATOM     13  H   UNL     1      -1.230   0.065   2.914  0.00  0.00    +0.145 HD
ATOM     14  H   UNL     1      -2.129  -0.979   1.599  0.00  0.00    +0.145 HD
ATOM     15  H   UNL     1      -2.118   4.226  -1.021  0.00  0.00    +0.164 HD
ENDROOT
BRANCH   1  19
ATOM     16  C   UNL     1      -2.363  -2.603  -2.272  0.00  0.00    +0.121 A 
ATOM     17  C   UNL     1      -1.171  -1.922  -2.070  0.00  0.00    +0.047 A 
ATOM     18  C   UNL     1      -1.165  -0.735  -1.364  0.00  0.00    +0.027 A 
ATOM     19  C   UNL     1      -2.352  -0.223  -0.857  0.00  0.00    +0.039 A 
ATOM     20  C   UNL     1      -3.543  -0.909  -1.054  0.00  0.00    +0.027 A 
ATOM     21  C   UNL     1      -3.549  -2.093  -1.765  0.00  0.00    +0.047 A 
BRANCH  16  22
ATOM     22  O   UNL     1      -2.368  -3.772  -2.966  0.00  0.00    -0.481 OA
BRANCH  22  23
ATOM     23  C   UNL     1      -3.630  -4.420  -3.137  0.00  0.00    +0.349 C 
BRANCH  23  24
ATOM     24  C   UNL     1      -3.440  -5.691  -3.925  0.00  0.00    +0.345 C 
ATOM     25  O   UNL     1      -2.337  -6.008  -4.302  0.00  0.00    -0.247 OA
BRANCH  24  26
ATOM     26  O   UNL     1      -4.497  -6.469  -4.208  0.00  0.00    -0.463 OA
BRANCH  26  28
ATOM     27  C   UNL     1      -5.554  -8.429  -5.194  0.00  0.00    +0.048 C 
ATOM     28  C   UNL     1      -4.240  -7.677  -4.971  0.00  0.00    +0.229 C 
ENDBRANCH  26  28
ENDBRANCH  24  26
ENDBRANCH  23  24
ENDBRANCH  22  23
ENDBRANCH  16  22
ENDBRANCH   1  19
TORSDOF 6
