REMARK  Name = ZINC63367315
REMARK  7 active torsions:
REMARK  status: ('A' for Active; 'I' for Inactive)
REMARK    1  A    between atoms: C_1  and  C_2
REMARK    2  A    between atoms: C_3  and  S_10
REMARK    3  A    between atoms: S_10  and  N_13
REMARK    4  A    between atoms: C_17  and  C_20
REMARK    5  A    between atoms: N_22  and  C_23
REMARK    6  A    between atoms: C_23  and  C_24
REMARK    7  A    between atoms: C_24  and  C_25
REMARK                            x       y       z     vdW  Elec       q    Type
REMARK                         _______ _______ _______ _____ _____    ______ ____
ROOT
ATOM      1  N   UNL     1      -3.637   2.635   0.863  0.00  0.00    -0.176 NA
ATOM      2  C   UNL     1      -2.919   3.494   1.814  0.00  0.00    +0.109 C 
ATOM      3  C   UNL     1      -3.803   3.714   3.046  0.00  0.00    +0.018 C 
ATOM      4  C   UNL     1      -5.160   4.264   2.603  0.00  0.00    +0.015 C 
ATOM      5  C   UNL     1      -5.850   3.250   1.688  0.00  0.00    +0.091 C 
ATOM      6  C   UNL     1      -4.987   3.029   0.436  0.00  0.00    +0.122 C 
ENDROOT
BRANCH   5   7
ATOM      7  C   UNL     1      -7.201   3.779   1.279  0.00  0.00    +0.217 C 
ATOM      8  O   UNL     1      -7.453   3.956   0.106  0.00  0.00    -0.275 OA
ATOM      9  N   UNL     1      -8.129   4.055   2.216  0.00  0.00    -0.315 N 
ATOM     10  H   UNL     1      -7.927   3.913   3.155  0.00  0.00    +0.149 HD
BRANCH   9  11
ATOM     11  C   UNL     1      -9.442   4.569   1.819  0.00  0.00    +0.108 C 
BRANCH  11  12
ATOM     12  C   UNL     1     -10.299   4.796   3.065  0.00  0.00    +0.052 C 
BRANCH  12  13
ATOM     13  C   UNL     1     -11.650   5.325   2.656  0.00  0.00    -0.040 C 
ATOM     14  C   UNL     1     -12.779   4.606   2.459  0.00  0.00    -0.001 A 
ATOM     15  C   UNL     1     -13.075   3.172   2.561  0.00  0.00    +0.010 A 
ATOM     16  C   UNL     1     -14.329   2.741   2.295  0.00  0.00    +0.001 A 
ATOM     17  C   UNL     1     -15.350   3.627   1.926  0.00  0.00    +0.002 A 
ATOM     18  C   UNL     1     -15.155   4.958   1.811  0.00  0.00    +0.026 A 
ATOM     19  C   UNL     1     -13.874   5.521   2.067  0.00  0.00    +0.043 A 
ATOM     20  N   UNL     1     -13.440   6.757   2.024  0.00  0.00    -0.380 N 
ATOM     21  C   UNL     1     -12.019   6.767   2.390  0.00  0.00    +0.144 C 
ATOM     22  H   UNL     1     -13.970   7.536   1.793  0.00  0.00    +0.160 HD
ENDBRANCH  12  13
ENDBRANCH  11  12
ENDBRANCH   9  11
ENDBRANCH   5   7
BRANCH   1  23
ATOM     23  S   UNL     1      -2.937   1.253   0.279  0.00  0.00    +0.068 S 
ATOM     24  O   UNL     1      -3.998   0.400  -0.128  0.00  0.00    -0.153 OA
ATOM     25  O   UNL     1      -1.963   0.856   1.234  0.00  0.00    -0.153 OA
BRANCH  23  28
ATOM     26  C   UNL     1      -0.023   1.998   0.199  0.00  0.00    +0.065 C 
ATOM     27  C   UNL     1      -0.746   2.014  -1.123  0.00  0.00    +0.049 A 
ATOM     28  C   UNL     1      -2.057   1.694  -1.183  0.00  0.00    +0.188 A 
ATOM     29  C   UNL     1      -2.714   1.716  -2.437  0.00  0.00    +0.281 A 
ATOM     30  N   UNL     1      -2.021   2.056  -3.542  0.00  0.00    -0.273 N 
ATOM     31  C   UNL     1      -0.715   2.370  -3.453  0.00  0.00    +0.327 A 
ATOM     32  N   UNL     1      -0.080   2.358  -2.267  0.00  0.00    -0.310 N 
ATOM     33  O   UNL     1      -0.102   2.674  -4.458  0.00  0.00    -0.247 OA
ATOM     34  O   UNL     1      -3.896   1.431  -2.516  0.00  0.00    -0.266 OA
ATOM     35  H   UNL     1      -2.464   2.074  -4.404  0.00  0.00    +0.173 HD
ATOM     36  H   UNL     1       0.861   2.591  -2.223  0.00  0.00    +0.170 HD
ENDBRANCH  23  28
ENDBRANCH   1  23
TORSDOF 6
