REMARK  Name = ZINC06661914
REMARK  5 active torsions:
REMARK  status: ('A' for Active; 'I' for Inactive)
REMARK    1  A    between atoms: C_9  and  C_14
REMARK    2  A    between atoms: C_10  and  O_13
REMARK    3  A    between atoms: C_14  and  N_46
REMARK    4  A    between atoms: C_15  and  C_16
REMARK    5  A    between atoms: C_15  and  N_46
REMARK                            x       y       z     vdW  Elec       q    Type
REMARK                         _______ _______ _______ _____ _____    ______ ____
ROOT
ATOM      1  C   UNL     1      -0.013   1.076   0.008  0.00  0.00    +0.035 A 
ATOM      2  C   UNL     1       1.188   1.795   0.000  0.00  0.00    +0.023 A 
ATOM      3  C   UNL     1       2.481   1.097  -0.014  0.00  0.00    -0.027 A 
ATOM      4  C   UNL     1       3.609   1.838  -0.026  0.00  0.00    +0.041 A 
ATOM      5  C   UNL     1       3.512   3.252  -0.013  0.00  0.00    +0.341 A 
ATOM      6  O   UNL     1       4.535   3.913  -0.016  0.00  0.00    -0.245 OA
ATOM      7  O   UNL     1       2.331   3.885   0.002  0.00  0.00    -0.422 OA
ATOM      8  C   UNL     1       1.168   3.200   0.008  0.00  0.00    +0.144 A 
ATOM      9  C   UNL     1      -0.049   3.866   0.022  0.00  0.00    +0.021 A 
ATOM     10  C   UNL     1      -1.229   3.140   0.029  0.00  0.00    +0.140 A 
ATOM     11  C   UNL     1      -1.203   1.745   0.017  0.00  0.00    +0.083 A 
ATOM     12 CL   UNL     1      -2.693   0.855   0.020  0.00  0.00    -0.080 Cl
ATOM     13  C   UNL     1       4.984   1.225  -0.062  0.00  0.00    +0.042 C 
ATOM     14  C   UNL     1       4.931  -0.240   0.366  0.00  0.00    +0.005 C 
ATOM     15  C   UNL     1       3.843  -0.944  -0.453  0.00  0.00    +0.005 C 
ATOM     16  C   UNL     1       2.484  -0.407  -0.007  0.00  0.00    +0.036 C 
ENDROOT
BRANCH  10  17
ATOM     17  O   UNL     1      -2.420   3.791   0.044  0.00  0.00    -0.505 OA
ATOM     18  H   UNL     1      -2.773   3.984  -0.836  0.00  0.00    +0.292 HD
ENDBRANCH  10  17
BRANCH   9  19
ATOM     19  C   UNL     1      -0.088   5.372   0.030  0.00  0.00    -0.039 C 
BRANCH  19  20
ATOM     20  N   UNL     1      -0.113   5.862  -1.361  0.00  0.00    +0.384 N 
ATOM     21  H   UNL     1      -0.946   5.495  -1.835  0.00  0.00    -0.085 HD
ATOM     22  H   UNL     1       0.730   5.538  -1.850  0.00  0.00    -0.085 HD
BRANCH  20  23
ATOM     23  C   UNL     1      -0.151   7.337  -1.384  0.00  0.00    -0.050 C 
BRANCH  23  24
ATOM     24  C   UNL     1      -0.176   7.815  -2.837  0.00  0.00    +0.101 C 
ATOM     25  C   UNL     1      -0.216   9.355  -2.881  0.00  0.00    +0.032 C 
ATOM     26  C   UNL     1       1.048   9.745  -3.686  0.00  0.00    +0.030 C 
ATOM     27  C   UNL     1       1.358   8.437  -4.457  0.00  0.00    +0.160 C 
ATOM     28  O   UNL     1       1.025   7.400  -3.509  0.00  0.00    -0.378 OA
ENDBRANCH  23  24
ENDBRANCH  20  23
ENDBRANCH  19  20
ENDBRANCH   9  19
TORSDOF 5
