REMARK  Name = ZINC09130470
REMARK  9 active torsions:
REMARK  status: ('A' for Active; 'I' for Inactive)
REMARK    1  A    between atoms: C_4  and  C_7
REMARK    2  A    between atoms: C_8  and  C_18
REMARK    3  A    between atoms: N_10  and  C_12
REMARK    4  A    between atoms: C_21  and  C_30
REMARK    5  A    between atoms: C_24  and  C_26
REMARK    6  A    between atoms: C_26  and  N_58
REMARK    7  A    between atoms: C_27  and  C_28
REMARK    8  A    between atoms: C_27  and  N_58
REMARK    9  A    between atoms: C_28  and  O_29
REMARK                            x       y       z     vdW  Elec       q    Type
REMARK                         _______ _______ _______ _____ _____    ______ ____
ROOT
ATOM      1  C   UNL     1      -0.018   1.503   0.010  0.00  0.00    +0.140 C 
ATOM      2  C   UNL     1       1.417   2.065  -0.000  0.00  0.00    +0.087 C 
ATOM      3  C   UNL     1       1.489   2.857  -1.286  0.00  0.00    +0.075 C 
ATOM      4  N   UNL     1       0.356   2.784  -1.901  0.00  0.00    -0.180 NA
ATOM      5  N   UNL     1      -0.602   2.019  -1.238  0.00  0.00    -0.187 N 
ATOM      6  C   UNL     1      -1.858   1.790  -1.670  0.00  0.00    +0.218 C 
ATOM      7  O   UNL     1      -2.611   1.105  -1.009  0.00  0.00    -0.276 OA
ENDROOT
BRANCH   1   9
ATOM      8  C   UNL     1       0.123  -0.838   1.131  0.00  0.00    +0.098 A 
ATOM      9  C   UNL     1       0.002  -0.004   0.002  0.00  0.00    +0.021 A 
ATOM     10  C   UNL     1      -0.099  -0.794  -1.089  0.00  0.00    +0.120 A 
ATOM     11  N   UNL     1      -0.034  -2.087  -0.674  0.00  0.00    -0.239 N 
ATOM     12  N   UNL     1       0.101  -2.088   0.720  0.00  0.00    -0.166 NA
BRANCH   8  16
ATOM     13  C   UNL     1       0.497   0.459   5.164  0.00  0.00    +0.000 A 
ATOM     14  C   UNL     1      -0.206  -0.697   4.874  0.00  0.00    +0.001 A 
ATOM     15  C   UNL     1      -0.330  -1.122   3.567  0.00  0.00    +0.010 A 
ATOM     16  C   UNL     1       0.254  -0.386   2.538  0.00  0.00    +0.002 A 
ATOM     17  C   UNL     1       0.966   0.774   2.837  0.00  0.00    +0.010 A 
ATOM     18  C   UNL     1       1.079   1.194   4.147  0.00  0.00    +0.001 A 
ENDBRANCH   8  16
BRANCH  11  19
ATOM     19  C   UNL     1      -0.098  -3.219  -1.497  0.00  0.00    +0.065 A 
ATOM     20  C   UNL     1      -0.238  -3.075  -2.870  0.00  0.00    +0.028 A 
ATOM     21  C   UNL     1      -0.296  -4.193  -3.679  0.00  0.00    +0.002 A 
ATOM     22  C   UNL     1      -0.224  -5.456  -3.120  0.00  0.00    +0.000 A 
ATOM     23  C   UNL     1      -0.089  -5.604  -1.752  0.00  0.00    +0.002 A 
ATOM     24  C   UNL     1      -0.026  -4.489  -0.939  0.00  0.00    +0.028 A 
ENDBRANCH  11  19
ENDBRANCH   1   9
BRANCH   3  25
ATOM     25  C   UNL     1       2.664   3.595  -1.761  0.00  0.00    +0.035 A 
ATOM     26  C   UNL     1       2.817   4.341  -2.917  0.00  0.00    +0.017 A 
ATOM     27  C   UNL     1       4.030   4.948  -3.147  0.00  0.00    +0.008 A 
ATOM     28  C   UNL     1       5.031   4.798  -2.241  0.00  0.00    +0.046 A 
ATOM     29  S   UNL     1       4.268   3.770  -0.997  0.00  0.00    -0.095 S 
ENDBRANCH   3  25
BRANCH   6  30
ATOM     30  C   UNL     1      -2.327   2.384  -2.973  0.00  0.00    +0.017 C 
BRANCH  30  31
ATOM     31  N   UNL     1      -3.726   1.983  -3.211  0.00  0.00    +0.386 N 
ATOM     32  H   UNL     1      -4.312   2.326  -2.441  0.00  0.00    -0.085 HD
ATOM     33  H   UNL     1      -3.783   0.959  -3.254  0.00  0.00    -0.085 HD
BRANCH  31  34
ATOM     34  C   UNL     1      -4.213   2.551  -4.482  0.00  0.00    -0.054 C 
BRANCH  34  35
ATOM     35  C   UNL     1      -5.664   2.119  -4.702  0.00  0.00    +0.137 C 
BRANCH  35  36
ATOM     36  O   UNL     1      -6.490   2.692  -3.687  0.00  0.00    -0.397 OA
ATOM     37  H   UNL     1      -7.426   2.461  -3.763  0.00  0.00    +0.209 HD
ENDBRANCH  35  36
ENDBRANCH  34  35
ENDBRANCH  31  34
ENDBRANCH  30  31
ENDBRANCH   6  30
TORSDOF 9
