REMARK  Name = ZINC00090466
REMARK  3 active torsions:
REMARK  status: ('A' for Active; 'I' for Inactive)
REMARK    1  A    between atoms: C_1  and  O_2
REMARK    2  A    between atoms: O_2  and  C_3
REMARK    3  A    between atoms: C_12  and  C_14
REMARK                            x       y       z     vdW  Elec       q    Type
REMARK                         _______ _______ _______ _____ _____    ______ ____
ROOT
ATOM      1  C   UNL     1       0.489  -0.958   0.947  0.00  0.00    +0.124 A 
ATOM      2  C   UNL     1       1.007  -0.104   1.910  0.00  0.00    +0.046 A 
ATOM      3  C   UNL     1       1.685  -0.619   2.998  0.00  0.00    +0.011 A 
ATOM      4  C   UNL     1       1.850  -1.986   3.131  0.00  0.00    +0.004 A 
ATOM      5  C   UNL     1       1.334  -2.844   2.171  0.00  0.00    +0.135 A 
ATOM      6  C   UNL     1       0.648  -2.328   1.079  0.00  0.00    +0.092 A 
ATOM      7  O   UNL     1       1.489  -4.182   2.296  0.00  0.00    -0.459 OA
ATOM      8  C   UNL     1       2.463  -4.686   3.075  0.00  0.00    +0.113 C 
ATOM      9  C   UNL     1       3.024  -3.959   4.059  0.00  0.00    +0.042 C 
ATOM     10  C   UNL     1       2.587  -2.538   4.318  0.00  0.00    +0.077 C 
ATOM     11  C   UNL     1       4.032  -4.498   4.881  0.00  0.00    +0.163 C 
ATOM     12  O   UNL     1       4.531  -3.804   5.744  0.00  0.00    -0.292 OA
ATOM     13  C   UNL     1       4.502  -5.917   4.713  0.00  0.00    +0.080 C 
ATOM     14  C   UNL     1       3.360  -6.753   4.124  0.00  0.00    +0.016 C 
ATOM     15  C   UNL     1       2.914  -6.104   2.812  0.00  0.00    +0.075 C 
ENDROOT
BRANCH  10  16
ATOM     16  C   UNL     1       1.668  -2.509   5.541  0.00  0.00    +0.133 C 
ATOM     17  C   UNL     1       1.410  -1.075   5.957  0.00  0.00    +0.144 C 
ATOM     18  C   UNL     1       0.282  -0.807   6.928  0.00  0.00    +0.075 C 
ATOM     19  C   UNL     1      -1.011  -1.408   6.371  0.00  0.00    +0.015 C 
ATOM     20  C   UNL     1      -0.824  -2.911   6.147  0.00  0.00    +0.075 C 
ATOM     21  C   UNL     1       0.331  -3.130   5.195  0.00  0.00    +0.144 C 
ATOM     22  O   UNL     1       0.190  -3.781   4.187  0.00  0.00    -0.297 OA
ATOM     23  O   UNL     1       2.085  -0.172   5.525  0.00  0.00    -0.297 OA
ENDBRANCH  10  16
BRANCH   1  25
ATOM     24  C   UNL     1      -0.305   0.970  -0.196  0.00  0.00    +0.277 C 
ATOM     25  O   UNL     1      -0.179  -0.451  -0.123  0.00  0.00    -0.495 OA
ENDBRANCH   1  25
TORSDOF 2
