REMARK  Name = ZINC01515438
REMARK  7 active torsions:
REMARK  status: ('A' for Active; 'I' for Inactive)
REMARK    1  A    between atoms: C_4  and  C_7
REMARK    2  A    between atoms: C_7  and  N_8
REMARK    3  A    between atoms: N_8  and  C_9
REMARK    4  A    between atoms: C_9  and  N_22
REMARK    5  A    between atoms: C_14  and  C_16
REMARK    6  A    between atoms: N_22  and  C_23
REMARK    7  A    between atoms: C_23  and  C_24
REMARK                            x       y       z     vdW  Elec       q    Type
REMARK                         _______ _______ _______ _____ _____    ______ ____
ROOT
ATOM      1  C   UNL     1       5.373  -1.517   1.569  0.00  0.00    +0.116 C 
ATOM      2  C   UNL     1       5.799  -1.748   2.880  0.00  0.00    +0.163 C 
ATOM      3  C   UNL     1       7.033  -2.311   3.275  0.00  0.00    +0.271 C 
ATOM      4  O   UNL     1       7.931  -2.690   2.541  0.00  0.00    -0.268 OA
ATOM      5  N   UNL     1       7.022  -2.347   4.624  0.00  0.00    -0.265 N 
ATOM      6  C   UNL     1       5.822  -1.824   5.052  0.00  0.00    +0.133 C 
ATOM      7  N   UNL     1       5.106  -1.467   4.019  0.00  0.00    -0.223 NA
ATOM      8  H   UNL     1       7.734  -2.682   5.192  0.00  0.00    +0.157 HD
ENDROOT
BRANCH   6   9
ATOM      9  C   UNL     1       5.410  -1.683   6.465  0.00  0.00    +0.015 A 
ATOM     10  C   UNL     1       6.266  -2.090   7.489  0.00  0.00    +0.011 A 
ATOM     11  C   UNL     1       5.875  -1.954   8.805  0.00  0.00    +0.001 A 
ATOM     12  C   UNL     1       4.637  -1.416   9.111  0.00  0.00    +0.000 A 
ATOM     13  C   UNL     1       3.784  -1.011   8.100  0.00  0.00    +0.001 A 
ATOM     14  C   UNL     1       4.165  -1.136   6.780  0.00  0.00    +0.011 A 
ENDBRANCH   6   9
BRANCH   1  15
ATOM     15  N   UNL     1       4.150  -0.957   1.338  0.00  0.00    -0.327 N 
ATOM     16  H   UNL     1       3.819  -0.871   0.430  0.00  0.00    +0.148 HD
BRANCH  15  17
ATOM     17  C   UNL     1       3.336  -0.486   2.461  0.00  0.00    +0.138 C 
BRANCH  17  21
ATOM     18  C   UNL     1      -0.172   1.442   0.971  0.00  0.00    +0.000 A 
ATOM     19  C   UNL     1      -0.187   0.084   1.227  0.00  0.00    +0.000 A 
ATOM     20  C   UNL     1       0.949  -0.540   1.709  0.00  0.00    +0.005 A 
ATOM     21  C   UNL     1       2.098   0.194   1.935  0.00  0.00    -0.030 A 
ATOM     22  C   UNL     1       2.113   1.552   1.677  0.00  0.00    +0.005 A 
ATOM     23  C   UNL     1       0.977   2.176   1.196  0.00  0.00    +0.000 A 
ENDBRANCH  17  21
ENDBRANCH  15  17
ENDBRANCH   1  15
BRANCH   1  24
ATOM     24  N   UNL     1       6.179  -1.851   0.520  0.00  0.00    -0.327 N 
ATOM     25  H   UNL     1       7.014  -2.318   0.680  0.00  0.00    +0.148 HD
BRANCH  24  26
ATOM     26  C   UNL     1       5.784  -1.505  -0.848  0.00  0.00    +0.138 C 
BRANCH  26  27
ATOM     27  C   UNL     1       6.893  -1.871  -1.799  0.00  0.00    -0.030 A 
ATOM     28  C   UNL     1       7.883  -0.952  -2.094  0.00  0.00    +0.005 A 
ATOM     29  C   UNL     1       8.901  -1.288  -2.967  0.00  0.00    +0.000 A 
ATOM     30  C   UNL     1       8.929  -2.543  -3.545  0.00  0.00    +0.000 A 
ATOM     31  C   UNL     1       7.940  -3.463  -3.250  0.00  0.00    +0.000 A 
ATOM     32  C   UNL     1       6.925  -3.128  -2.373  0.00  0.00    +0.005 A 
ENDBRANCH  26  27
ENDBRANCH  24  26
ENDBRANCH   1  24
TORSDOF 7
