REMARK  Name = ZINC43227084
REMARK  20 active torsions:
REMARK  status: ('A' for Active; 'I' for Inactive)
REMARK    1  A    between atoms: C_1  and  C_2
REMARK    2  A    between atoms: C_2  and  C_3
REMARK    3  A    between atoms: C_3  and  C_4
REMARK    4  A    between atoms: C_3  and  C_5
REMARK    5  A    between atoms: C_3  and  C_6
REMARK    6  A    between atoms: C_9  and  O_17
REMARK    7  A    between atoms: C_10  and  C_12
REMARK    8  A    between atoms: C_12  and  C_13
REMARK    9  A    between atoms: C_12  and  C_14
REMARK   10  A    between atoms: C_12  and  C_15
REMARK   11  A    between atoms: C_15  and  C_16
REMARK   12  A    between atoms: O_17  and  C_18
REMARK   13  A    between atoms: C_18  and  C_19
REMARK   14  A    between atoms: C_19  and  C_20
REMARK   15  A    between atoms: C_20  and  C_21
REMARK   16  A    between atoms: C_21  and  N_22
REMARK   17  A    between atoms: C_23  and  C_25
REMARK   18  A    between atoms: C_28  and  C_30
REMARK   19  A    between atoms: C_30  and  C_32
REMARK   20  A    between atoms: C_30  and  N_33
REMARK                            x       y       z     vdW  Elec       q    Type
REMARK                         _______ _______ _______ _____ _____    ______ ____
ROOT
ATOM      1  C   UNL     1      -0.075  -6.797  -0.030  0.00  0.00    +0.229 C 
ENDROOT
BRANCH   1   2
ATOM      2  O   UNL     1      -1.357  -6.165  -0.019  0.00  0.00    -0.492 OA
BRANCH   2   6
ATOM      3  C   UNL     1      -1.413  -2.041   0.005  0.00  0.00    -0.041 A 
ATOM      4  C   UNL     1      -0.205  -2.714  -0.005  0.00  0.00    +0.008 A 
ATOM      5  C   UNL     1      -0.184  -4.095  -0.013  0.00  0.00    +0.046 A 
ATOM      6  C   UNL     1      -1.375  -4.807  -0.011  0.00  0.00    +0.124 A 
ATOM      7  C   UNL     1      -2.585  -4.128  -0.001  0.00  0.00    +0.000 A 
ATOM      8  C   UNL     1      -2.601  -2.747   0.012  0.00  0.00    +0.012 A 
BRANCH   3   9
ATOM      9  C   UNL     1      -1.433  -0.534   0.013  0.00  0.00    -0.010 C 
ATOM     10  C   UNL     1      -2.149  -0.040   1.272  0.00  0.00    +0.016 C 
ATOM     11  C   UNL     1      -2.173  -0.027  -1.227  0.00  0.00    +0.016 C 
BRANCH   9  13
ATOM     12  C   UNL     1      -0.019   1.526   0.010  0.00  0.00    +0.005 C 
ATOM     13  C   UNL     1       0.002  -0.004   0.002  0.00  0.00    +0.007 C 
ENDBRANCH   9  13
ENDBRANCH   3   9
BRANCH   7  14
ATOM     14  C   UNL     1      -3.881  -4.898   0.001  0.00  0.00    -0.007 C 
ATOM     15  C   UNL     1      -5.056  -3.917   0.012  0.00  0.00    +0.016 C 
ATOM     16  C   UNL     1      -3.958  -5.771  -1.253  0.00  0.00    +0.016 C 
BRANCH  14  17
ATOM     17  C   UNL     1      -3.945  -5.785   1.245  0.00  0.00    +0.008 C 
ATOM     18  C   UNL     1      -5.261  -6.566   1.247  0.00  0.00    +0.005 C 
ENDBRANCH  14  17
ENDBRANCH   7  14
ENDBRANCH   2   6
ENDBRANCH   1   2
BRANCH   1  19
ATOM     19  C   UNL     1      -0.255  -8.316  -0.038  0.00  0.00    +0.042 C 
BRANCH  19  20
ATOM     20  C   UNL     1       1.118  -8.992  -0.050  0.00  0.00    +0.022 C 
BRANCH  20  21
ATOM     21  C   UNL     1       0.938 -10.512  -0.058  0.00  0.00    +0.104 C 
BRANCH  21  22
ATOM     22  N   UNL     1       2.252 -11.159  -0.069  0.00  0.00    -0.310 N 
ATOM     23  C   UNL     1       2.341 -12.504  -0.077  0.00  0.00    +0.263 C 
ATOM     24  O   UNL     1       1.330 -13.180  -0.076  0.00  0.00    -0.269 OA
ATOM     25  H   UNL     1       3.058 -10.620  -0.070  0.00  0.00    +0.149 HD
BRANCH  23  26
ATOM     26  C   UNL     1       3.662 -13.154  -0.088  0.00  0.00    +0.133 A 
ATOM     27  C   UNL     1       3.799 -14.517  -0.103  0.00  0.00    +0.079 A 
ATOM     28  S   UNL     1       5.467 -14.712  -0.110  0.00  0.00    -0.081 S 
ATOM     29  C   UNL     1       5.930 -13.099  -0.094  0.00  0.00    +0.064 A 
ATOM     30  N   UNL     1       4.798 -12.450  -0.090  0.00  0.00    -0.241 NA
BRANCH  29  31
ATOM     31  C   UNL     1       7.326 -12.532  -0.092  0.00  0.00    -0.021 C 
ATOM     32  C   UNL     1       7.935 -12.671  -1.489  0.00  0.00    -0.007 C 
BRANCH  31  33
ATOM     33  N   UNL     1       8.151 -13.266   0.877  0.00  0.00    +0.384 N 
ATOM     34  H   UNL     1       8.184 -14.241   0.620  0.00  0.00    -0.089 HD
ATOM     35  H   UNL     1       9.086 -12.887   0.878  0.00  0.00    -0.089 HD
ATOM     36  H   UNL     1       7.750 -13.175   1.798  0.00  0.00    -0.089 HD
ENDBRANCH  31  33
ENDBRANCH  29  31
ENDBRANCH  23  26
ENDBRANCH  21  22
ENDBRANCH  20  21
ENDBRANCH  19  20
ENDBRANCH   1  19
TORSDOF 13
