REMARK  Name = ZINC08453420
REMARK  4 active torsions:
REMARK  status: ('A' for Active; 'I' for Inactive)
REMARK    1  A    between atoms: C_1  and  C_2
REMARK    2  A    between atoms: C_8  and  C_31
REMARK    3  A    between atoms: C_14  and  C_20
REMARK    4  A    between atoms: N_22  and  C_23
REMARK                            x       y       z     vdW  Elec       q    Type
REMARK                         _______ _______ _______ _____ _____    ______ ____
ROOT
ATOM      1  C   UNL     1       8.399   6.729  -0.911  0.00  0.00    +0.044 C 
ATOM      2  C   UNL     1       7.097   5.979  -0.803  0.00  0.00    -0.050 A 
ATOM      3  C   UNL     1       7.055   4.625  -1.129  0.00  0.00    +0.005 A 
ATOM      4  C   UNL     1       5.895   3.916  -1.044  0.00  0.00    +0.029 A 
ATOM      5  C   UNL     1       4.721   4.557  -0.621  0.00  0.00    +0.076 A 
ATOM      6  C   UNL     1       4.764   5.936  -0.290  0.00  0.00    +0.022 A 
ATOM      7  C   UNL     1       5.976   6.635  -0.389  0.00  0.00    +0.015 A 
ATOM      8  C   UNL     1       3.576   6.559   0.132  0.00  0.00    +0.051 A 
ATOM      9  N   UNL     1       2.478   5.836   0.201  0.00  0.00    -0.219 NA
ATOM     10  C   UNL     1       2.474   4.544  -0.118  0.00  0.00    +0.222 A 
ATOM     11  N   UNL     1       3.557   3.905  -0.515  0.00  0.00    -0.214 NA
ATOM     12  N   UNL     1       1.283   3.839  -0.024  0.00  0.00    -0.258 N 
ATOM     13  C   UNL     1       1.268   2.478  -0.243  0.00  0.00    +0.167 C 
ATOM     14  C   UNL     1       2.390   0.448  -0.887  0.00  0.00    +0.176 C 
ATOM     15  C   UNL     1       1.468  -0.274   0.099  0.00  0.00    +0.130 C 
ATOM     16  C   UNL     1       0.138   0.438   0.138  0.00  0.00    +0.222 C 
ATOM     17  O   UNL     1      -0.885  -0.185   0.327  0.00  0.00    -0.275 OA
ATOM     18  N   UNL     1       0.100   1.775  -0.039  0.00  0.00    -0.260 N 
ATOM     19  C   UNL     1       3.559   8.021   0.497  0.00  0.00    +0.066 C 
ATOM     20  H   UNL     1       0.460   4.303   0.196  0.00  0.00    +0.158 HD
ATOM     21  H   UNL     1      -0.751   2.241  -0.028  0.00  0.00    +0.157 HD
ATOM     22  N   UNL     1       2.419   1.933  -0.646  0.00  0.00    -0.349 N 
ATOM     23  H   UNL     1       3.270   2.492  -0.782  0.00  0.00    +0.163 HD
ENDROOT
BRANCH  14  24
ATOM     24  C   UNL     1       3.800  -0.056  -0.713  0.00  0.00    +0.240 C 
ATOM     25  O   UNL     1       4.600   0.591  -0.071  0.00  0.00    -0.273 OA
ATOM     26  N   UNL     1       4.172  -1.224  -1.272  0.00  0.00    -0.284 N 
ATOM     27  H   UNL     1       3.556  -1.705  -1.846  0.00  0.00    +0.155 HD
BRANCH  26  28
ATOM     28  C   UNL     1       5.447  -1.745  -1.022  0.00  0.00    +0.035 A 
ATOM     29  C   UNL     1       6.056  -1.534   0.208  0.00  0.00    +0.025 A 
ATOM     30  C   UNL     1       7.314  -2.049   0.453  0.00  0.00    +0.023 A 
ATOM     31  C   UNL     1       7.969  -2.774  -0.527  0.00  0.00    +0.059 A 
ATOM     32  C   UNL     1       7.364  -2.987  -1.754  0.00  0.00    +0.061 A 
ATOM     33  C   UNL     1       6.103  -2.478  -2.002  0.00  0.00    +0.044 A 
ATOM     34 CL   UNL     1       8.188  -3.898  -2.981  0.00  0.00    -0.082 Cl
ATOM     35 CL   UNL     1       9.550  -3.420  -0.216  0.00  0.00    -0.082 Cl
ENDBRANCH  26  28
ENDBRANCH  14  24
TORSDOF 2
