REMARK  Name = ZINC10039399
REMARK  12 active torsions:
REMARK  status: ('A' for Active; 'I' for Inactive)
REMARK    1  A    between atoms: C_1  and  C_2
REMARK    2  A    between atoms: C_9  and  N_14
REMARK    3  A    between atoms: C_10  and  C_11
REMARK    4  A    between atoms: N_14  and  C_15
REMARK    5  A    between atoms: C_15  and  N_17
REMARK    6  A    between atoms: C_18  and  C_20
REMARK    7  A    between atoms: C_22  and  O_30
REMARK    8  A    between atoms: C_23  and  O_28
REMARK    9  A    between atoms: C_24  and  O_26
REMARK   10  A    between atoms: O_26  and  C_27
REMARK   11  A    between atoms: O_28  and  C_29
REMARK   12  A    between atoms: O_30  and  C_31
REMARK                            x       y       z     vdW  Elec       q    Type
REMARK                         _______ _______ _______ _____ _____    ______ ____
ROOT
ATOM      1  C   UNL     1       1.328   6.379  -2.461  0.00  0.00    +0.141 C 
ATOM      2  S   UNL     1       1.194   8.074  -2.254  0.00  0.00    -0.018 S 
ENDROOT
BRANCH   1   3
ATOM      3  N   UNL     1       0.814   5.545  -1.536  0.00  0.00    -0.264 N 
ATOM      4  C   UNL     1       0.194   6.043  -0.448  0.00  0.00    +0.250 C 
ATOM      5  O   UNL     1       0.099   7.246  -0.301  0.00  0.00    -0.270 OA
ATOM      6  H   UNL     1       0.890   4.585  -1.654  0.00  0.00    +0.157 HD
BRANCH   4   7
ATOM      7  C   UNL     1      -0.368   5.130   0.564  0.00  0.00    +0.044 A 
ATOM      8  C   UNL     1      -1.011   5.646   1.692  0.00  0.00    +0.062 A 
ATOM      9  C   UNL     1      -1.538   4.787   2.639  0.00  0.00    +0.166 A 
ATOM     10  C   UNL     1      -1.427   3.409   2.470  0.00  0.00    +0.204 A 
ATOM     11  C   UNL     1      -0.787   2.893   1.346  0.00  0.00    +0.166 A 
ATOM     12  C   UNL     1      -0.255   3.747   0.399  0.00  0.00    +0.062 A 
BRANCH  11  13
ATOM     13  O   UNL     1      -0.682   1.547   1.184  0.00  0.00    -0.491 OA
ATOM     14  C   UNL     1      -0.013   1.086   0.008  0.00  0.00    +0.277 C 
ENDBRANCH  11  13
BRANCH  10  15
ATOM     15  O   UNL     1      -1.946   2.568   3.402  0.00  0.00    -0.488 OA
ATOM     16  C   UNL     1      -1.085   2.177   4.474  0.00  0.00    +0.277 C 
ENDBRANCH  10  15
BRANCH   9  17
ATOM     17  O   UNL     1      -2.163   5.289   3.738  0.00  0.00    -0.491 OA
ATOM     18  C   UNL     1      -2.240   6.711   3.848  0.00  0.00    +0.277 C 
ENDBRANCH   9  17
ENDBRANCH   4   7
ENDBRANCH   1   3
BRANCH   1  19
ATOM     19  N   UNL     1       1.948   5.881  -3.549  0.00  0.00    -0.291 N 
ATOM     20  H   UNL     1       2.024   4.921  -3.666  0.00  0.00    +0.154 HD
BRANCH  19  28
ATOM     21  C   UNL     1       4.875  11.059  -8.627  0.00  0.00    +0.008 C 
ATOM     22  C   UNL     1       4.723   9.809  -7.759  0.00  0.00    -0.009 C 
ATOM     23  C   UNL     1       4.262   8.633  -8.624  0.00  0.00    +0.008 C 
ATOM     24  C   UNL     1       4.346   7.332  -7.823  0.00  0.00    +0.037 C 
ATOM     25  C   UNL     1       3.602   7.519  -6.506  0.00  0.00    -0.023 A 
ATOM     26  C   UNL     1       3.323   8.753  -6.034  0.00  0.00    -0.004 A 
ATOM     27  S   UNL     1       2.459   8.471  -4.515  0.00  0.00    -0.077 S 
ATOM     28  C   UNL     1       2.476   6.739  -4.500  0.00  0.00    +0.084 A 
ATOM     29  C   UNL     1       3.143   6.419  -5.674  0.00  0.00    +0.068 A 
ATOM     30  C   UNL     1       3.670  10.064  -6.670  0.00  0.00    +0.046 C 
BRANCH  29  31
ATOM     31  C   UNL     1       3.375   5.025  -6.062  0.00  0.00    +0.244 C 
ATOM     32  O   UNL     1       2.554   4.437  -6.741  0.00  0.00    -0.270 OA
ATOM     33  N   UNL     1       4.498   4.394  -5.666  0.00  0.00    -0.325 N 
ATOM     34  H   UNL     1       5.153   4.862  -5.125  0.00  0.00    +0.145 HD
ATOM     35  H   UNL     1       4.652   3.471  -5.922  0.00  0.00    +0.145 HD
ENDBRANCH  29  31
ENDBRANCH  19  28
ENDBRANCH   1  19
TORSDOF 8
