REMARK  Name = ZINC65886864
REMARK  9 active torsions:
REMARK  status: ('A' for Active; 'I' for Inactive)
REMARK    1  A    between atoms: C_1  and  C_2
REMARK    2  A    between atoms: C_5  and  N_18
REMARK    3  A    between atoms: C_7  and  N_8
REMARK    4  A    between atoms: C_9  and  C_11
REMARK    5  A    between atoms: C_11  and  N_12
REMARK    6  A    between atoms: N_18  and  C_19
REMARK    7  A    between atoms: C_19  and  C_20
REMARK    8  A    between atoms: C_19  and  C_21
REMARK    9  A    between atoms: N_26  and  C_27
REMARK                            x       y       z     vdW  Elec       q    Type
REMARK                         _______ _______ _______ _____ _____    ______ ____
ROOT
ATOM      1  C   UNL     1      -0.009   1.492   0.004  0.00  0.00    +0.045 C 
ATOM      2  C   UNL     1       0.016  -0.014   0.002  0.00  0.00    -0.029 A 
ATOM      3  C   UNL     1       0.028  -0.703  -1.196  0.00  0.00    +0.007 A 
ATOM      4  C   UNL     1       0.050  -2.084  -1.202  0.00  0.00    +0.023 A 
ATOM      5  C   UNL     1       0.061  -2.785  -0.002  0.00  0.00    +0.029 A 
ATOM      6  C   UNL     1       0.049  -2.097   1.202  0.00  0.00    +0.046 A 
ATOM      7  C   UNL     1       0.032  -0.709   1.204  0.00  0.00    +0.038 A 
ENDROOT
BRANCH   7   8
ATOM      8  N   UNL     1       0.025  -0.011   2.417  0.00  0.00    -0.287 N 
ATOM      9  C   UNL     1      -0.632  -0.514   3.481  0.00  0.00    +0.201 C 
ATOM     10  O   UNL     1      -1.148  -1.610   3.412  0.00  0.00    -0.278 OA
ATOM     11  H   UNL     1       0.493   0.835   2.492  0.00  0.00    +0.155 HD
BRANCH   9  12
ATOM     12  C   UNL     1      -0.725   0.284   4.756  0.00  0.00    +0.019 C 
BRANCH  12  13
ATOM     13  N   UNL     1      -1.485  -0.477   5.756  0.00  0.00    +0.385 N 
ATOM     14  C   UNL     1      -2.868  -0.647   5.292  0.00  0.00    -0.078 C 
ATOM     15  C   UNL     1      -3.643  -1.508   6.292  0.00  0.00    -0.019 C 
ATOM     16  C   UNL     1      -3.642  -0.819   7.659  0.00  0.00    -0.004 C 
ATOM     17  C   UNL     1      -2.195  -0.580   8.099  0.00  0.00    -0.019 C 
ATOM     18  C   UNL     1      -1.474   0.247   7.032  0.00  0.00    -0.078 C 
ATOM     19  H   UNL     1      -1.061  -1.384   5.881  0.00  0.00    -0.081 HD
ENDBRANCH  12  13
ENDBRANCH   9  12
ENDBRANCH   7   8
BRANCH   5  20
ATOM     20  N   UNL     1       0.083  -4.182  -0.009  0.00  0.00    -0.333 N 
ATOM     21  H   UNL     1       0.090  -4.671   0.829  0.00  0.00    +0.147 HD
BRANCH  20  22
ATOM     22  C   UNL     1       0.095  -4.908  -1.282  0.00  0.00    +0.154 C 
ATOM     23  C   UNL     1      -1.340  -5.074  -1.787  0.00  0.00    +0.038 C 
BRANCH  22  24
ATOM     24  C   UNL     1       0.716  -6.266  -1.079  0.00  0.00    +0.240 C 
ATOM     25  O   UNL     1       1.110  -6.595   0.019  0.00  0.00    -0.273 OA
ATOM     26  N   UNL     1       0.834  -7.115  -2.119  0.00  0.00    -0.239 N 
ATOM     27  C   UNL     1       1.390  -8.329  -1.938  0.00  0.00    +0.306 C 
ATOM     28  O   UNL     1       1.785  -8.659  -0.837  0.00  0.00    -0.252 OA
ATOM     29  N   UNL     1       1.508  -9.178  -2.978  0.00  0.00    -0.302 N 
ATOM     30  C   UNL     1       2.112 -10.498  -2.781  0.00  0.00    +0.129 C 
ATOM     31  H   UNL     1       0.519  -6.852  -2.998  0.00  0.00    +0.159 HD
ATOM     32  H   UNL     1       1.193  -8.915  -3.857  0.00  0.00    +0.150 HD
ENDBRANCH  22  24
ENDBRANCH  20  22
ENDBRANCH   5  20
TORSDOF 6
