REMARK  Name = ZINC44170833
REMARK  8 active torsions:
REMARK  status: ('A' for Active; 'I' for Inactive)
REMARK    1  A    between atoms: C_1  and  C_2
REMARK    2  A    between atoms: C_2  and  C_38
REMARK    3  A    between atoms: C_5  and  C_36
REMARK    4  A    between atoms: C_5  and  C_37
REMARK    5  A    between atoms: C_10  and  C_12
REMARK    6  A    between atoms: C_18  and  C_21
REMARK    7  A    between atoms: C_26  and  C_29
REMARK    8  A    between atoms: C_29  and  C_30
REMARK                            x       y       z     vdW  Elec       q    Type
REMARK                         _______ _______ _______ _____ _____    ______ ____
ROOT
ATOM      1  C   UNL     1       3.043  -1.658   4.912  0.00  0.00    -0.027 C 
ATOM      2  C   UNL     1       3.614  -0.578   5.838  0.00  0.00    +0.092 C 
ATOM      3  S   UNL     1       4.559  -1.401   7.159  0.00  0.00    +0.020 S 
ATOM      4  O   UNL     1       3.672  -2.148   7.980  0.00  0.00    -0.257 OA
ATOM      5  C   UNL     1       5.631  -2.541   6.230  0.00  0.00    +0.097 C 
ATOM      6  C   UNL     1       4.758  -3.327   5.245  0.00  0.00    +0.029 C 
ATOM      7  N   UNL     1       4.136  -2.407   4.290  0.00  0.00    +0.392 N 
ATOM      8  H   UNL     1       3.774  -2.936   3.511  0.00  0.00    -0.084 HD
ATOM      9  H   UNL     1       4.832  -1.759   3.953  0.00  0.00    -0.084 HD
ENDROOT
BRANCH   1  19
ATOM     10  C   UNL     1      -0.018   2.380   0.939  0.00  0.00    +0.016 C 
ATOM     11  C   UNL     1      -0.116   0.862   0.773  0.00  0.00    -0.010 C 
ATOM     12  C   UNL     1      -1.584   0.444   0.822  0.00  0.00    +0.012 C 
ATOM     13  C   UNL     1      -2.098   0.651   2.252  0.00  0.00    +0.012 C 
ATOM     14  C   UNL     1      -1.438  -0.389   3.156  0.00  0.00    -0.010 C 
ATOM     15  C   UNL     1       0.056  -0.380   2.970  0.00  0.00    -0.038 A 
ATOM     16  C   UNL     1       0.663   0.191   1.873  0.00  0.00    -0.038 A 
ATOM     17  C   UNL     1       2.047   0.159   1.759  0.00  0.00    +0.004 A 
ATOM     18  C   UNL     1       2.818  -0.437   2.736  0.00  0.00    +0.002 A 
ATOM     19  C   UNL     1       2.208  -1.007   3.839  0.00  0.00    -0.060 A 
ATOM     20  C   UNL     1       0.834  -0.978   3.953  0.00  0.00    +0.006 A 
ATOM     21  C   UNL     1      -1.982  -1.776   2.809  0.00  0.00    +0.016 C 
ATOM     22  C   UNL     1      -1.767  -0.069   4.616  0.00  0.00    +0.016 C 
ATOM     23  C   UNL     1       0.476   0.463  -0.580  0.00  0.00    +0.016 C 
ENDBRANCH   1  19
BRANCH   6  24
ATOM     24  C   UNL     1       3.683  -4.062   6.005  0.00  0.00    +0.202 C 
ATOM     25  O   UNL     1       2.848  -3.441   6.626  0.00  0.00    -0.277 OA
ATOM     26  N   UNL     1       3.651  -5.409   5.993  0.00  0.00    -0.303 N 
ATOM     27  C   UNL     1       4.725  -6.178   5.350  0.00  0.00    +0.108 C 
ATOM     28  C   UNL     1       4.102  -7.147   4.340  0.00  0.00    +0.023 C 
ATOM     29  C   UNL     1       3.050  -8.005   5.045  0.00  0.00    -0.004 C 
ATOM     30  C   UNL     1       1.942  -7.106   5.598  0.00  0.00    +0.023 C 
ATOM     31  C   UNL     1       2.543  -6.137   6.627  0.00  0.00    +0.108 C 
BRANCH  29  32
ATOM     32  C   UNL     1       2.450  -8.998   4.047  0.00  0.00    +0.038 C 
BRANCH  32  33
ATOM     33  C   UNL     1       1.504  -9.924   4.766  0.00  0.00    -0.047 A 
ATOM     34  C   UNL     1       1.973 -11.104   5.312  0.00  0.00    +0.003 A 
ATOM     35  C   UNL     1       1.105 -11.954   5.973  0.00  0.00    +0.000 A 
ATOM     36  C   UNL     1      -0.232 -11.623   6.087  0.00  0.00    +0.000 A 
ATOM     37  C   UNL     1      -0.702 -10.443   5.542  0.00  0.00    +0.000 A 
ATOM     38  C   UNL     1       0.167  -9.591   4.886  0.00  0.00    +0.003 A 
ENDBRANCH  32  33
ENDBRANCH  29  32
ENDBRANCH   6  24
TORSDOF 4
