REMARK  Name = ZINC42744550
REMARK  13 active torsions:
REMARK  status: ('A' for Active; 'I' for Inactive)
REMARK    1  A    between atoms: C_1  and  C_2
REMARK    2  A    between atoms: C_2  and  C_3
REMARK    3  A    between atoms: C_2  and  C_4
REMARK    4  A    between atoms: C_4  and  N_5
REMARK    5  A    between atoms: N_5  and  C_6
REMARK    6  A    between atoms: N_5  and  C_11
REMARK    7  A    between atoms: C_6  and  C_7
REMARK    8  A    between atoms: C_7  and  N_8
REMARK    9  A    between atoms: N_8  and  C_9
REMARK   10  A    between atoms: N_8  and  C_10
REMARK   11  A    between atoms: C_11  and  C_13
REMARK   12  A    between atoms: C_11  and  C_15
REMARK   13  A    between atoms: C_13  and  N_14
REMARK                            x       y       z     vdW  Elec       q    Type
REMARK                         _______ _______ _______ _____ _____    ______ ____
ROOT
ATOM      1  C   UNL     1      -2.230   1.115  -1.506  0.00  0.00    +0.069 C 
ENDROOT
BRANCH   1   2
ATOM      2  C   UNL     1      -2.228   1.270  -3.005  0.00  0.00    -0.031 A 
ATOM      3  C   UNL     1      -3.067   0.493  -3.782  0.00  0.00    +0.008 A 
ATOM      4  C   UNL     1      -3.066   0.634  -5.156  0.00  0.00    +0.040 A 
ATOM      5  C   UNL     1      -2.224   1.556  -5.756  0.00  0.00    +0.137 A 
ATOM      6  C   UNL     1      -1.383   2.334  -4.978  0.00  0.00    +0.053 A 
ATOM      7  C   UNL     1      -1.390   2.194  -3.602  0.00  0.00    +0.023 A 
ATOM      8 BR   UNL     1      -0.233   3.593  -5.795  0.00  0.00    -0.047 Br
ATOM      9  F   UNL     1      -2.222   1.694  -7.100  0.00  0.00    -0.204 F 
ENDBRANCH   1   2
BRANCH   1  10
ATOM     10  N   UNL     1      -2.308  -0.311  -1.162  0.00  0.00    -0.299 NA
BRANCH  10  11
ATOM     11  C   UNL     1      -1.585  -0.592   0.085  0.00  0.00    +0.087 C 
BRANCH  11  13
ATOM     12  C   UNL     1       0.524   0.455  -0.753  0.00  0.00    +0.008 C 
ATOM     13  C   UNL     1      -0.107  -0.836  -0.227  0.00  0.00    -0.003 C 
ATOM     14  C   UNL     1       0.618  -1.276   1.047  0.00  0.00    +0.008 C 
ENDBRANCH  11  13
ENDBRANCH  10  11
BRANCH  10  15
ATOM     15  C   UNL     1      -3.706  -0.754  -1.071  0.00  0.00    +0.066 C 
BRANCH  15  16
ATOM     16  C   UNL     1      -3.772  -2.272  -1.254  0.00  0.00    -0.064 C 
BRANCH  16  17
ATOM     17  N   UNL     1      -5.170  -2.716  -1.163  0.00  0.00    +0.377 N 
ATOM     18  C   UNL     1      -5.247  -4.153  -1.458  0.00  0.00    -0.097 C 
ATOM     19  C   UNL     1      -5.675  -2.466   0.194  0.00  0.00    -0.097 C 
ATOM     20  H   UNL     1      -5.729  -2.205  -1.830  0.00  0.00    -0.083 HD
ENDBRANCH  16  17
ENDBRANCH  15  16
ENDBRANCH  10  15
ENDBRANCH   1  10
BRANCH   1  21
ATOM     21  C   UNL     1      -3.438   1.848  -0.920  0.00  0.00    -0.063 C 
BRANCH  21  22
ATOM     22  N   UNL     1      -3.391   1.775   0.547  0.00  0.00    +0.379 N 
ATOM     23  H   UNL     1      -3.330   0.810   0.834  0.00  0.00    -0.090 HD
ATOM     24  H   UNL     1      -2.583   2.278   0.883  0.00  0.00    -0.090 HD
ATOM     25  H   UNL     1      -4.228   2.188   0.931  0.00  0.00    -0.090 HD
ENDBRANCH  21  22
ENDBRANCH   1  21
TORSDOF 9
