REMARK  Name = ZINC24898889
REMARK  10 active torsions:
REMARK  status: ('A' for Active; 'I' for Inactive)
REMARK    1  A    between atoms: C_1  and  C_2
REMARK    2  A    between atoms: C_2  and  C_3
REMARK    3  A    between atoms: C_2  and  C_4
REMARK    4  A    between atoms: C_4  and  N_5
REMARK    5  A    between atoms: C_6  and  C_8
REMARK    6  A    between atoms: C_8  and  N_9
REMARK    7  A    between atoms: N_12  and  C_15
REMARK    8  A    between atoms: C_15  and  C_16
REMARK    9  A    between atoms: C_16  and  C_17
REMARK   10  A    between atoms: N_19  and  C_20
REMARK                            x       y       z     vdW  Elec       q    Type
REMARK                         _______ _______ _______ _____ _____    ______ ____
ROOT
ATOM      1  N   UNL     1       6.314   2.441  -0.929  0.00  0.00    +0.387 N 
ATOM      2  C   UNL     1       6.147   1.686   0.320  0.00  0.00    -0.063 C 
ATOM      3  C   UNL     1       4.863   0.857   0.243  0.00  0.00    +0.066 C 
ATOM      4  N   UNL     1       3.719   1.751   0.015  0.00  0.00    -0.305 NA
ATOM      5  C   UNL     1       3.886   2.506  -1.235  0.00  0.00    +0.066 C 
ATOM      6  C   UNL     1       5.171   3.335  -1.159  0.00  0.00    -0.063 C 
ATOM      7  H   UNL     1       6.354   1.721  -1.760  0.00  0.00    -0.081 HD
ENDROOT
BRANCH   1   8
ATOM      8  C   UNL     1       7.577   3.192  -0.925  0.00  0.00    +0.019 C 
BRANCH   8  10
ATOM      9  N   UNL     1       8.941   4.482  -2.536  0.00  0.00    -0.317 N 
ATOM     10  C   UNL     1       7.833   3.752  -2.301  0.00  0.00    +0.196 C 
ATOM     11  O   UNL     1       7.042   3.545  -3.197  0.00  0.00    -0.278 OA
ATOM     12  H   UNL     1       9.659   4.669  -1.724  0.00  0.00    +0.149 HD
BRANCH   9  13
ATOM     13  C   UNL     1       9.190   5.026  -3.873  0.00  0.00    +0.107 C 
BRANCH  13  15
ATOM     14  C   UNL     1      11.668   4.850  -3.599  0.00  0.00    +0.009 C 
ATOM     15  C   UNL     1      10.505   5.808  -3.869  0.00  0.00    -0.000 C 
ATOM     16  C   UNL     1      10.704   6.479  -5.229  0.00  0.00    +0.009 C 
ENDBRANCH  13  15
ENDBRANCH   9  13
ENDBRANCH   8  10
ENDBRANCH   1   8
BRANCH   4  17
ATOM     17  C   UNL     1       2.456   1.000   0.010  0.00  0.00    +0.093 C 
BRANCH  17  18
ATOM     18  C   UNL     1       1.280   1.979   0.020  0.00  0.00    +0.111 C 
BRANCH  18  19
ATOM     19  C   UNL     1      -0.015   1.208   0.016  0.00  0.00    +0.218 C 
ATOM     20  O   UNL     1       0.001  -0.005   0.006  0.00  0.00    -0.275 OA
ATOM     21  N   UNL     1      -1.191   1.867   0.018  0.00  0.00    -0.283 N 
ATOM     22  H   UNL     1      -1.207   2.963   0.101  0.00  0.00    +0.155 HD
BRANCH  21  23
ATOM     23  C   UNL     1      -2.392   1.155  -0.086  0.00  0.00    +0.069 A 
ATOM     24  C   UNL     1      -2.511  -0.099   0.499  0.00  0.00    +0.027 A 
ATOM     25  C   UNL     1      -3.697  -0.799   0.395  0.00  0.00    +0.017 A 
ATOM     26  C   UNL     1      -4.768  -0.253  -0.290  0.00  0.00    +0.021 A 
ATOM     27  C   UNL     1      -4.654   0.996  -0.874  0.00  0.00    +0.055 A 
ATOM     28  C   UNL     1      -3.471   1.704  -0.770  0.00  0.00    +0.146 A 
ATOM     29  F   UNL     1      -3.361   2.926  -1.336  0.00  0.00    -0.204 F 
ATOM     30 BR   UNL     1      -6.389  -1.216  -0.428  0.00  0.00    -0.050 Br
ENDBRANCH  21  23
ENDBRANCH  18  19
ENDBRANCH  17  18
ENDBRANCH   4  17
TORSDOF 8
