REMARK  Name = ZINC13648203
REMARK  6 active torsions:
REMARK  status: ('A' for Active; 'I' for Inactive)
REMARK    1  A    between atoms: C_4  and  C_7
REMARK    2  A    between atoms: C_7  and  O_9
REMARK    3  A    between atoms: O_9  and  C_10
REMARK    4  A    between atoms: C_15  and  C_16
REMARK    5  A    between atoms: N_17  and  N_18
REMARK    6  A    between atoms: C_19  and  C_20
REMARK                            x       y       z     vdW  Elec       q    Type
REMARK                         _______ _______ _______ _____ _____    ______ ____
ROOT
ATOM      1  C   UNL     1       4.003  -2.545  -2.752  0.00  0.00    +0.141 A 
ATOM      2  C   UNL     1       4.974  -1.812  -3.413  0.00  0.00    +0.048 A 
ATOM      3  C   UNL     1       5.706  -2.392  -4.433  0.00  0.00    +0.019 A 
ATOM      4  C   UNL     1       5.475  -3.708  -4.802  0.00  0.00    +0.019 A 
ATOM      5  C   UNL     1       4.512  -4.453  -4.154  0.00  0.00    +0.028 A 
ATOM      6  C   UNL     1       3.769  -3.880  -3.117  0.00  0.00    +0.038 A 
ATOM      7 BR   UNL     1       6.485  -4.484  -6.199  0.00  0.00    -0.050 Br
ENDROOT
BRANCH   6   8
ATOM      8  C   UNL     1       2.745  -4.669  -2.418  0.00  0.00    +0.144 C 
ATOM      9  N   UNL     1       1.974  -4.099  -1.529  0.00  0.00    -0.180 NA
BRANCH   9  10
ATOM     10  N   UNL     1       1.152  -4.812  -0.836  0.00  0.00    -0.263 N 
ATOM     11  C   UNL     1       0.304  -4.229  -0.018  0.00  0.00    +0.143 C 
ATOM     12  N   UNL     1       0.208  -2.853   0.010  0.00  0.00    -0.342 N 
ATOM     13  H   UNL     1       0.451  -2.334  -0.773  0.00  0.00    +0.144 HD
ATOM     14  H   UNL     1      -0.103  -2.405   0.812  0.00  0.00    +0.144 HD
ATOM     15  H   UNL     1       1.160  -5.779  -0.918  0.00  0.00    +0.190 HD
BRANCH  11  16
ATOM     16  C   UNL     1      -0.546  -5.046   0.871  0.00  0.00    +0.187 A 
ATOM     17  C   UNL     1      -1.649  -4.549   1.704  0.00  0.00    +0.191 A 
ATOM     18  N   UNL     1      -2.163  -5.561   2.348  0.00  0.00    -0.033 NA
ATOM     19  O   UNL     1      -1.446  -6.725   1.979  0.00  0.00    -0.240 OA
ATOM     20  N   UNL     1      -0.451  -6.340   1.047  0.00  0.00    -0.044 NA
ATOM     21  N   UNL     1      -2.071  -3.230   1.792  0.00  0.00    -0.339 N 
ATOM     22  H   UNL     1      -1.686  -2.558   1.208  0.00  0.00    +0.144 HD
ATOM     23  H   UNL     1      -2.750  -2.980   2.438  0.00  0.00    +0.144 HD
ENDBRANCH  11  16
ENDBRANCH   9  10
ENDBRANCH   6   8
BRANCH   1  24
ATOM     24  O   UNL     1       3.284  -1.976  -1.750  0.00  0.00    -0.422 OA
BRANCH  24  25
ATOM     25  C   UNL     1       3.712  -2.153  -0.485  0.00  0.00    +0.344 C 
ATOM     26  O   UNL     1       4.670  -2.865  -0.262  0.00  0.00    -0.245 OA
BRANCH  25  30
ATOM     27  C   UNL     1       1.710  -0.221   2.724  0.00  0.00    +0.000 A 
ATOM     28  C   UNL     1       2.710  -1.140   2.989  0.00  0.00    +0.001 A 
ATOM     29  C   UNL     1       3.364  -1.771   1.952  0.00  0.00    +0.015 A 
ATOM     30  C   UNL     1       3.015  -1.482   0.631  0.00  0.00    +0.059 A 
ATOM     31  C   UNL     1       2.005  -0.553   0.370  0.00  0.00    +0.015 A 
ATOM     32  C   UNL     1       1.359   0.071   1.417  0.00  0.00    +0.001 A 
ENDBRANCH  25  30
ENDBRANCH  24  25
ENDBRANCH   1  24
TORSDOF 6
