REMARK  Name = ZINC30499464
REMARK  10 active torsions:
REMARK  status: ('A' for Active; 'I' for Inactive)
REMARK    1  A    between atoms: C_1  and  C_2
REMARK    2  A    between atoms: C_2  and  C_3
REMARK    3  A    between atoms: N_5  and  C_6
REMARK    4  A    between atoms: C_9  and  C_12
REMARK    5  A    between atoms: C_12  and  C_14
REMARK    6  A    between atoms: C_12  and  N_15
REMARK    7  A    between atoms: N_15  and  C_16
REMARK    8  A    between atoms: C_16  and  C_18
REMARK    9  A    between atoms: C_16  and  C_19
REMARK   10  A    between atoms: N_21  and  C_22
REMARK                            x       y       z     vdW  Elec       q    Type
REMARK                         _______ _______ _______ _____ _____    ______ ____
ROOT
ATOM      1  N   UNL     1      -1.823   3.250  -0.973  0.00  0.00    +0.391 N 
ATOM      2  H   UNL     1      -1.144   4.032  -0.602  0.00  0.00    -0.084 HD
ATOM      3  H   UNL     1      -1.446   2.861  -1.930  0.00  0.00    -0.084 HD
ENDROOT
BRANCH   1   4
ATOM      4  C   UNL     1      -1.893   2.158   0.007  0.00  0.00    -0.043 C 
ATOM      5  C   UNL     1      -1.800   2.735   1.421  0.00  0.00    -0.009 C 
BRANCH   4   9
ATOM      6  C   UNL     1       1.345  -0.551  -0.655  0.00  0.00    +0.033 A 
ATOM      7  C   UNL     1       0.086  -1.038  -0.330  0.00  0.00    +0.023 A 
ATOM      8  C   UNL     1      -0.958  -0.160  -0.114  0.00  0.00    +0.004 A 
ATOM      9  C   UNL     1      -0.750   1.203  -0.223  0.00  0.00    -0.062 A 
ATOM     10  C   UNL     1       0.502   1.691  -0.547  0.00  0.00    +0.004 A 
ATOM     11  C   UNL     1       1.550   0.819  -0.764  0.00  0.00    +0.023 A 
BRANCH   6  14
ATOM     12  C   UNL     1       2.171  -2.643  -1.431  0.00  0.00    +0.217 C 
ATOM     13  O   UNL     1       1.060  -2.922  -1.829  0.00  0.00    -0.275 OA
ATOM     14  N   UNL     1       2.405  -1.438  -0.875  0.00  0.00    -0.286 N 
ATOM     15  H   UNL     1       3.429  -1.151  -0.594  0.00  0.00    +0.155 HD
BRANCH  12  17
ATOM     16  C   UNL     1       2.761  -4.920  -2.217  0.00  0.00    +0.013 C 
ATOM     17  C   UNL     1       3.290  -3.645  -1.558  0.00  0.00    +0.093 C 
ENDBRANCH  12  17
ENDBRANCH   6  14
ENDBRANCH   4   9
ENDBRANCH   1   4
BRANCH   1  18
ATOM     18  C   UNL     1      -3.148   3.844  -1.195  0.00  0.00    +0.014 C 
ATOM     19  C   UNL     1      -3.900   3.032  -2.252  0.00  0.00    -0.004 C 
BRANCH  18  20
ATOM     20  C   UNL     1      -2.989   5.264  -1.672  0.00  0.00    +0.203 C 
ATOM     21  O   UNL     1      -1.880   5.736  -1.814  0.00  0.00    -0.277 OA
ATOM     22  N   UNL     1      -4.078   6.011  -1.942  0.00  0.00    -0.285 N 
ATOM     23  H   UNL     1      -5.082   5.615  -1.731  0.00  0.00    +0.155 HD
BRANCH  22  24
ATOM     24  C   UNL     1      -3.931   7.291  -2.492  0.00  0.00    +0.069 A 
ATOM     25  C   UNL     1      -2.754   7.638  -3.141  0.00  0.00    +0.027 A 
ATOM     26  C   UNL     1      -2.612   8.901  -3.683  0.00  0.00    +0.022 A 
ATOM     27  C   UNL     1      -3.640   9.821  -3.580  0.00  0.00    +0.044 A 
ATOM     28  C   UNL     1      -4.815   9.479  -2.934  0.00  0.00    +0.060 A 
ATOM     29  C   UNL     1      -4.966   8.214  -2.394  0.00  0.00    +0.146 A 
ATOM     30  F   UNL     1      -6.115   7.878  -1.768  0.00  0.00    -0.203 F 
ATOM     31 CL   UNL     1      -3.457  11.406  -4.262  0.00  0.00    -0.083 Cl
ENDBRANCH  22  24
ENDBRANCH  18  20
ENDBRANCH   1  18
TORSDOF 7
