REMARK  Name = ZINC20911839
REMARK  9 active torsions:
REMARK  status: ('A' for Active; 'I' for Inactive)
REMARK    1  A    between atoms: C_1  and  N_2
REMARK    2  A    between atoms: C_6  and  C_9
REMARK    3  A    between atoms: C_9  and  O_10
REMARK    4  A    between atoms: O_10  and  C_11
REMARK    5  A    between atoms: C_17  and  C_18
REMARK    6  A    between atoms: C_18  and  O_20
REMARK    7  A    between atoms: O_20  and  C_21
REMARK    8  A    between atoms: N_24  and  C_27
REMARK    9  A    between atoms: C_27  and  C_28
REMARK                            x       y       z     vdW  Elec       q    Type
REMARK                         _______ _______ _______ _____ _____    ______ ____
ROOT
ATOM      1  C   UNL     1       1.181   3.288   0.017  0.00  0.00    +0.141 A 
ATOM      2  C   UNL     1       1.198   1.908   0.028  0.00  0.00    +0.116 A 
ATOM      3  C   UNL     1      -0.014   1.216   0.008  0.00  0.00    +0.255 A 
ATOM      4  O   UNL     1       0.003  -0.004  -0.000  0.00  0.00    -0.268 OA
ATOM      5  N   UNL     1      -1.208   1.853  -0.009  0.00  0.00    -0.310 N 
ATOM      6  C   UNL     1      -1.280   3.189  -0.054  0.00  0.00    +0.041 A 
ATOM      7  C   UNL     1      -0.121   3.954  -0.037  0.00  0.00    +0.120 A 
ATOM      8  C   UNL     1      -2.586   3.941  -0.140  0.00  0.00    +0.070 C 
ATOM      9  C   UNL     1      -3.716   3.173   0.543  0.00  0.00    +0.091 C 
ATOM     10  N   UNL     1      -4.365   2.318  -0.461  0.00  0.00    -0.296 NA
ATOM     11  C   UNL     1      -3.403   1.366  -1.029  0.00  0.00    +0.106 C 
ATOM     12  C   UNL     1      -2.400   1.002   0.067  0.00  0.00    +0.140 C 
ENDROOT
BRANCH   7  13
ATOM     13  C   UNL     1      -0.202   5.423  -0.072  0.00  0.00    +0.344 C 
ATOM     14  O   UNL     1      -0.061   6.064   0.951  0.00  0.00    -0.245 OA
BRANCH  13  15
ATOM     15  O   UNL     1      -0.433   6.057  -1.238  0.00  0.00    -0.464 OA
ATOM     16  C   UNL     1      -0.500   7.507  -1.198  0.00  0.00    +0.280 C 
ENDBRANCH  13  15
ENDBRANCH   7  13
BRANCH   1  17
ATOM     17  O   UNL     1       2.330   4.002   0.053  0.00  0.00    -0.491 OA
BRANCH  17  18
ATOM     18  C   UNL     1       3.552   3.262   0.104  0.00  0.00    +0.230 C 
BRANCH  18  24
ATOM     19  C   UNL     1       5.949   6.796  -2.336  0.00  0.00    -0.096 C 
ATOM     20  N   UNL     1       5.941   5.931  -1.149  0.00  0.00    +0.378 N 
ATOM     21  C   UNL     1       7.205   5.195  -1.025  0.00  0.00    -0.079 C 
ATOM     22  C   UNL     1       7.218   4.418   0.294  0.00  0.00    -0.018 C 
ATOM     23  C   UNL     1       6.036   3.446   0.319  0.00  0.00    +0.003 C 
ATOM     24  C   UNL     1       4.734   4.232   0.139  0.00  0.00    +0.010 C 
ATOM     25  C   UNL     1       4.793   5.014  -1.175  0.00  0.00    -0.072 C 
ATOM     26  H   UNL     1       5.838   6.572  -0.262  0.00  0.00    -0.082 HD
ENDBRANCH  18  24
ENDBRANCH  17  18
ENDBRANCH   1  17
BRANCH  10  27
ATOM     27  C   UNL     1      -5.522   1.617   0.114  0.00  0.00    +0.127 C 
BRANCH  27  28
ATOM     28  C   UNL     1      -6.303   0.949  -0.989  0.00  0.00    +0.005 A 
ATOM     29  C   UNL     1      -6.149  -0.288  -1.482  0.00  0.00    +0.021 A 
ATOM     30  C   UNL     1      -7.020  -0.740  -2.557  0.00  0.00    -0.011 A 
ATOM     31  C   UNL     1      -7.035  -1.991  -3.219  0.00  0.00    +0.009 A 
ATOM     32  C   UNL     1      -7.929  -2.241  -4.212  0.00  0.00    +0.001 A 
ATOM     33  C   UNL     1      -8.855  -1.287  -4.612  0.00  0.00    +0.001 A 
ATOM     34  C   UNL     1      -8.873  -0.054  -3.992  0.00  0.00    +0.015 A 
ATOM     35  C   UNL     1      -7.971   0.212  -2.983  0.00  0.00    +0.020 A 
ATOM     36  S   UNL     1      -7.655   1.613  -1.942  0.00  0.00    -0.092 S 
ENDBRANCH  27  28
ENDBRANCH  10  27
TORSDOF 7
