REMARK  Name = ZINC40901382
REMARK  8 active torsions:
REMARK  status: ('A' for Active; 'I' for Inactive)
REMARK    1  A    between atoms: C_1  and  N_2
REMARK    2  A    between atoms: N_2  and  C_3
REMARK    3  A    between atoms: C_4  and  C_6
REMARK    4  A    between atoms: C_9  and  C_14
REMARK    5  A    between atoms: C_10  and  O_12
REMARK    6  A    between atoms: O_12  and  C_13
REMARK    7  A    between atoms: N_16  and  C_17
REMARK    8  A    between atoms: C_22  and  C_23
REMARK                            x       y       z     vdW  Elec       q    Type
REMARK                         _______ _______ _______ _____ _____    ______ ____
ROOT
ATOM      1  C   UNL     1      -6.233   2.004   0.135  0.00  0.00    +0.252 C 
ATOM      2  O   UNL     1      -7.255   1.437  -0.200  0.00  0.00    -0.270 OA
ATOM      3  N   UNL     1      -6.273   3.294   0.521  0.00  0.00    -0.281 N 
ATOM      4  H   UNL     1      -5.473   3.724   0.861  0.00  0.00    +0.155 HD
ENDROOT
BRANCH   3   5
ATOM      5  C   UNL     1      -7.464   4.011   0.433  0.00  0.00    +0.046 A 
ATOM      6  C   UNL     1      -8.432   3.643  -0.492  0.00  0.00    +0.025 A 
ATOM      7  C   UNL     1      -9.612   4.354  -0.579  0.00  0.00    +0.022 A 
ATOM      8  C   UNL     1      -9.840   5.439   0.255  0.00  0.00    +0.042 A 
ATOM      9  C   UNL     1      -8.890   5.818   1.179  0.00  0.00    +0.035 A 
ATOM     10  C   UNL     1      -7.694   5.104   1.282  0.00  0.00    +0.060 A 
ATOM     11 CL   UNL     1     -11.329   6.323   0.134  0.00  0.00    -0.084 Cl
BRANCH  10  12
ATOM     12  C   UNL     1      -6.676   5.500   2.273  0.00  0.00    +0.251 C 
ATOM     13  O   UNL     1      -5.599   4.936   2.297  0.00  0.00    -0.270 OA
ATOM     14  N   UNL     1      -6.940   6.487   3.152  0.00  0.00    -0.266 N 
ATOM     15  C   UNL     1      -5.943   6.934   4.018  0.00  0.00    +0.125 A 
ATOM     16  C   UNL     1      -6.250   7.874   4.995  0.00  0.00    +0.045 A 
ATOM     17  C   UNL     1      -5.252   8.310   5.847  0.00  0.00    +0.025 A 
ATOM     18  C   UNL     1      -3.974   7.787   5.693  0.00  0.00    +0.059 A 
ATOM     19  C   UNL     1      -3.740   6.855   4.700  0.00  0.00    +0.132 A 
ATOM     20  N   UNL     1      -4.714   6.455   3.905  0.00  0.00    -0.239 NA
ATOM     21 CL   UNL     1      -2.684   8.300   6.736  0.00  0.00    -0.082 Cl
ATOM     22  H   UNL     1      -7.823   6.885   3.183  0.00  0.00    +0.157 HD
ENDBRANCH  10  12
ENDBRANCH   3   5
BRANCH   1  26
ATOM     23  C   UNL     1      -2.528  -0.085   0.087  0.00  0.00    +0.016 A 
ATOM     24  C   UNL     1      -2.574   1.252   0.487  0.00  0.00    +0.012 A 
ATOM     25  C   UNL     1      -3.772   1.929   0.502  0.00  0.00    +0.017 A 
ATOM     26  C   UNL     1      -4.948   1.279   0.118  0.00  0.00    +0.079 A 
ATOM     27  C   UNL     1      -4.904  -0.063  -0.284  0.00  0.00    +0.133 A 
ATOM     28  C   UNL     1      -3.694  -0.738  -0.303  0.00  0.00    +0.057 A 
BRANCH  23  32
ATOM     29  C   UNL     1      -0.715   0.150   2.280  0.00  0.00    +0.130 C 
ATOM     30  N   UNL     1      -0.337  -0.636   1.102  0.00  0.00    -0.323 N 
ATOM     31  C   UNL     1       0.997  -1.237   1.020  0.00  0.00    +0.130 C 
ATOM     32  C   UNL     1      -1.235  -0.809   0.072  0.00  0.00    +0.099 C 
ATOM     33  N   UNL     1      -0.948  -1.608  -0.915  0.00  0.00    -0.386 N 
ATOM     34  H   UNL     1      -1.580  -1.729  -1.640  0.00  0.00    +0.157 HD
ATOM     35  H   UNL     1      -0.101  -2.081  -0.925  0.00  0.00    +0.157 HD
ENDBRANCH  23  32
BRANCH  27  36
ATOM     36  O   UNL     1      -6.043  -0.699  -0.658  0.00  0.00    -0.494 OA
ATOM     37  C   UNL     1      -5.923  -2.066  -1.055  0.00  0.00    +0.277 C 
ENDBRANCH  27  36
ENDBRANCH   1  26
TORSDOF 5
