REMARK  Name = ZINC02662264
REMARK  7 active torsions:
REMARK  status: ('A' for Active; 'I' for Inactive)
REMARK    1  A    between atoms: C_4  and  O_7
REMARK    2  A    between atoms: O_7  and  C_8
REMARK    3  A    between atoms: C_13  and  N_14
REMARK    4  A    between atoms: C_15  and  C_17
REMARK    5  A    between atoms: C_17  and  N_54
REMARK    6  A    between atoms: N_20  and  S_23
REMARK    7  A    between atoms: S_23  and  C_26
REMARK                            x       y       z     vdW  Elec       q    Type
REMARK                         _______ _______ _______ _____ _____    ______ ____
ROOT
ATOM      1  N   UNL     1      -0.887   3.881  -7.867  0.00  0.00    -0.284 N 
ATOM      2  C   UNL     1      -1.714   3.926  -6.803  0.00  0.00    +0.201 C 
ATOM      3  O   UNL     1      -2.215   4.978  -6.468  0.00  0.00    -0.278 OA
ATOM      4  H   UNL     1      -0.476   3.042  -8.126  0.00  0.00    +0.155 HD
ENDROOT
BRANCH   1  10
ATOM      5  C   UNL     1      -0.122   4.959  -9.895  0.00  0.00    +0.150 A 
ATOM      6  C   UNL     1       0.134   6.115 -10.615  0.00  0.00    +0.049 A 
ATOM      7  C   UNL     1      -0.097   7.352 -10.042  0.00  0.00    +0.024 A 
ATOM      8  C   UNL     1      -0.589   7.440  -8.752  0.00  0.00    +0.043 A 
ATOM      9  C   UNL     1      -0.852   6.291  -8.029  0.00  0.00    +0.047 A 
ATOM     10  C   UNL     1      -0.622   5.047  -8.597  0.00  0.00    +0.078 A 
ATOM     11 CL   UNL     1      -0.877   8.997  -8.039  0.00  0.00    -0.083 Cl
BRANCH   5  12
ATOM     12  O   UNL     1       0.110   3.742 -10.455  0.00  0.00    -0.454 OA
BRANCH  12  16
ATOM     13  C   UNL     1      -3.087   1.734 -12.117  0.00  0.00    +0.000 A 
ATOM     14  C   UNL     1      -1.811   1.214 -12.231  0.00  0.00    +0.004 A 
ATOM     15  C   UNL     1      -0.739   1.885 -11.676  0.00  0.00    +0.046 A 
ATOM     16  C   UNL     1      -0.943   3.081 -11.002  0.00  0.00    +0.129 A 
ATOM     17  C   UNL     1      -2.226   3.597 -10.884  0.00  0.00    +0.046 A 
ATOM     18  C   UNL     1      -3.294   2.926 -11.447  0.00  0.00    +0.004 A 
ENDBRANCH  12  16
ENDBRANCH   5  12
ENDBRANCH   1  10
BRANCH   2  19
ATOM     19  C   UNL     1      -2.017   2.667  -6.031  0.00  0.00    +0.019 C 
BRANCH  19  25
ATOM     20  C   UNL     1      -3.439   1.751  -4.299  0.00  0.00    -0.061 C 
ATOM     21  C   UNL     1      -4.526   2.111  -3.281  0.00  0.00    +0.091 C 
ATOM     22  N   UNL     1      -3.980   3.108  -2.348  0.00  0.00    -0.180 NA
ATOM     23  C   UNL     1      -3.339   4.308  -2.908  0.00  0.00    +0.091 C 
ATOM     24  C   UNL     1      -2.294   3.858  -3.941  0.00  0.00    -0.061 C 
ATOM     25  N   UNL     1      -2.959   2.994  -4.941  0.00  0.00    +0.387 N 
ATOM     26  H   UNL     1      -3.762   3.498  -5.334  0.00  0.00    -0.081 HD
BRANCH  22  27
ATOM     27  S   UNL     1      -4.089   2.889  -0.710  0.00  0.00    +0.067 S 
ATOM     28  O   UNL     1      -5.188   2.015  -0.489  0.00  0.00    -0.152 OA
ATOM     29  O   UNL     1      -4.012   4.180  -0.121  0.00  0.00    -0.152 OA
BRANCH  27  30
ATOM     30  C   UNL     1      -2.644   2.017  -0.203  0.00  0.00    +0.143 A 
ATOM     31  C   UNL     1      -1.445   2.510   0.193  0.00  0.00    +0.036 A 
ATOM     32  C   UNL     1      -0.440   1.628   0.544  0.00  0.00    +0.010 A 
ATOM     33  C   UNL     1      -0.684   0.296   0.483  0.00  0.00    +0.047 A 
ATOM     34  S   UNL     1      -2.376   0.256  -0.086  0.00  0.00    -0.077 S 
ENDBRANCH  27  30
ENDBRANCH  22  27
ENDBRANCH  19  25
ENDBRANCH   2  19
TORSDOF 7
