REMARK  Name = ZINC09336446
REMARK  4 active torsions:
REMARK  status: ('A' for Active; 'I' for Inactive)
REMARK    1  A    between atoms: C_2  and  C_27
REMARK    2  A    between atoms: C_10  and  C_13
REMARK    3  A    between atoms: N_15  and  C_16
REMARK    4  A    between atoms: C_17  and  C_24
REMARK                            x       y       z     vdW  Elec       q    Type
REMARK                         _______ _______ _______ _____ _____    ______ ____
ROOT
ATOM      1  C   UNL     1       2.087   0.852  -1.032  0.00  0.00    +0.037 A 
ATOM      2  C   UNL     1       2.354  -0.022   0.014  0.00  0.00    +0.072 A 
ATOM      3  C   UNL     1       1.417  -0.185   1.014  0.00  0.00    +0.096 A 
ATOM      4  C   UNL     1      -0.016   1.319   0.009  0.00  0.00    +0.117 A 
ATOM      5  C   UNL     1       0.883   1.533  -1.033  0.00  0.00    +0.079 A 
ATOM      6 CL   UNL     1       0.497   2.638  -2.315  0.00  0.00    -0.080 Cl
ATOM      7  N   UNL     1      -1.233   1.992   0.019  0.00  0.00    -0.315 N 
ATOM      8  C   UNL     1      -1.364   2.826   1.220  0.00  0.00    +0.107 C 
ATOM      9  C   UNL     1      -2.644   3.660   1.127  0.00  0.00    +0.032 C 
ATOM     10  C   UNL     1      -3.849   2.723   0.999  0.00  0.00    +0.078 C 
ATOM     11  C   UNL     1      -3.664   1.833  -0.233  0.00  0.00    +0.032 C 
ATOM     12  C   UNL     1      -2.355   1.052  -0.101  0.00  0.00    +0.107 C 
ATOM     13  N   UNL     1       0.224   0.467   1.046  0.00  0.00    -0.348 N 
ATOM     14  H   UNL     1      -0.455   0.325   1.804  0.00  0.00    +0.167 HD
ENDROOT
BRANCH  10  15
ATOM     15  C   UNL     1      -5.107   3.538   0.847  0.00  0.00    +0.221 C 
ATOM     16  O   UNL     1      -5.791   3.420  -0.148  0.00  0.00    -0.275 OA
ATOM     17  N   UNL     1      -5.474   4.399   1.817  0.00  0.00    -0.279 N 
ATOM     18  H   UNL     1      -4.928   4.494   2.613  0.00  0.00    +0.155 HD
BRANCH  17  19
ATOM     19  C   UNL     1      -6.632   5.149   1.678  0.00  0.00    +0.084 A 
ATOM     20  C   UNL     1      -7.168   6.075   2.556  0.00  0.00    +0.068 A 
ATOM     21  C   UNL     1      -8.414   6.735   2.167  0.00  0.00    -0.023 A 
ATOM     22  C   UNL     1      -8.911   6.359   0.975  0.00  0.00    -0.004 A 
ATOM     23  S   UNL     1      -7.754   5.159   0.360  0.00  0.00    -0.077 S 
ATOM     24  C   UNL     1     -10.192   7.078   0.646  0.00  0.00    +0.043 C 
ATOM     25  C   UNL     1     -10.672   7.655   1.996  0.00  0.00    +0.010 C 
ATOM     26  C   UNL     1      -9.346   7.786   2.771  0.00  0.00    +0.037 C 
BRANCH  20  27
ATOM     27  C   UNL     1      -6.511   6.384   3.830  0.00  0.00    +0.244 C 
ATOM     28  O   UNL     1      -5.686   7.277   3.888  0.00  0.00    -0.270 OA
ATOM     29  N   UNL     1      -6.820   5.679   4.936  0.00  0.00    -0.325 N 
ATOM     30  H   UNL     1      -7.478   4.967   4.889  0.00  0.00    +0.145 HD
ATOM     31  H   UNL     1      -6.385   5.883   5.778  0.00  0.00    +0.145 HD
ENDBRANCH  20  27
ENDBRANCH  17  19
ENDBRANCH  10  15
BRANCH   2  32
ATOM     32  C   UNL     1       3.653  -0.785   0.056  0.00  0.00    +0.419 C 
ATOM     33  F   UNL     1       3.683  -1.592   1.198  0.00  0.00    -0.166 F 
ATOM     34  F   UNL     1       3.760  -1.588  -1.085  0.00  0.00    -0.166 F 
ATOM     35  F   UNL     1       4.722   0.117   0.093  0.00  0.00    -0.166 F 
ENDBRANCH   2  32
TORSDOF 4
