REMARK  Name = ZINC08667193
REMARK  10 active torsions:
REMARK  status: ('A' for Active; 'I' for Inactive)
REMARK    1  A    between atoms: C_1  and  C_2
REMARK    2  A    between atoms: C_3  and  C_30
REMARK    3  A    between atoms: C_5  and  N_9
REMARK    4  A    between atoms: C_6  and  C_7
REMARK    5  A    between atoms: C_10  and  C_12
REMARK    6  A    between atoms: C_13  and  N_29
REMARK    7  A    between atoms: C_18  and  O_27
REMARK    8  A    between atoms: C_19  and  O_25
REMARK    9  A    between atoms: O_25  and  C_26
REMARK   10  A    between atoms: O_27  and  C_28
REMARK                            x       y       z     vdW  Elec       q    Type
REMARK                         _______ _______ _______ _____ _____    ______ ____
ROOT
ATOM      1  C   UNL     1       0.090  -5.404   2.785  0.00  0.00    +0.097 A 
ATOM      2  C   UNL     1       0.114  -6.773   2.652  0.00  0.00    +0.053 A 
ATOM      3  C   UNL     1       0.129  -7.587   3.862  0.00  0.00    +0.028 A 
ATOM      4  C   UNL     1       0.154  -8.993   3.954  0.00  0.00    +0.022 A 
ATOM      5  C   UNL     1       0.166  -9.586   5.218  0.00  0.00    +0.003 A 
ATOM      6  C   UNL     1       0.192 -10.985   5.378  0.00  0.00    +0.059 A 
ATOM      7  C   UNL     1       0.203 -11.517   6.632  0.00  0.00    +0.162 A 
ATOM      8  C   UNL     1       0.190 -10.701   7.773  0.00  0.00    +0.163 A 
ATOM      9  C   UNL     1       0.165  -9.340   7.677  0.00  0.00    +0.075 A 
ATOM     10  C   UNL     1       0.152  -8.735   6.410  0.00  0.00    +0.051 A 
ATOM     11  N   UNL     1       0.129  -7.409   6.265  0.00  0.00    -0.349 N 
ATOM     12  C   UNL     1       0.117  -6.853   5.078  0.00  0.00    +0.088 A 
ATOM     13  S   UNL     1       0.095  -5.155   4.549  0.00  0.00    -0.064 S 
ATOM     14  H   UNL     1       0.119  -6.844   7.054  0.00  0.00    +0.166 HD
ENDROOT
BRANCH   1  16
ATOM     15  N   UNL     1       0.055  -3.116   2.083  0.00  0.00    -0.274 N 
ATOM     16  C   UNL     1       0.072  -4.425   1.762  0.00  0.00    +0.257 C 
ATOM     17  O   UNL     1       0.071  -4.766   0.593  0.00  0.00    -0.269 OA
ATOM     18  H   UNL     1       0.056  -2.845   3.014  0.00  0.00    +0.156 HD
BRANCH  15  23
ATOM     19  C   UNL     1      -0.018   1.503   0.010  0.00  0.00    +0.046 C 
ATOM     20  C   UNL     1       0.002  -0.004   0.002  0.00  0.00    -0.021 A 
ATOM     21  C   UNL     1       0.006  -0.713  -1.143  0.00  0.00    -0.007 A 
ATOM     22  S   UNL     1       0.033  -2.401  -0.579  0.00  0.00    -0.077 S 
ATOM     23  C   UNL     1       0.037  -2.158   1.081  0.00  0.00    +0.090 A 
ATOM     24  C   UNL     1       0.025  -0.778   1.222  0.00  0.00    +0.083 A 
ATOM     25  C   UNL     1      -0.009  -0.201  -2.560  0.00  0.00    +0.052 C 
BRANCH  24  26
ATOM     26  C   UNL     1       0.029  -0.153   2.510  0.00  0.00    +0.102 C 
ATOM     27  N   UNL     1       0.032   0.344   3.532  0.00  0.00    -0.191 NA
ENDBRANCH  24  26
ENDBRANCH  15  23
ENDBRANCH   1  16
BRANCH   2  28
ATOM     28  N   UNL     1       0.122  -7.365   1.398  0.00  0.00    -0.356 N 
ATOM     29  H   UNL     1       0.111  -6.813   0.601  0.00  0.00    +0.142 HD
ATOM     30  H   UNL     1       0.138  -8.332   1.318  0.00  0.00    +0.142 HD
ENDBRANCH   2  28
BRANCH   8  31
ATOM     31  O   UNL     1       0.202 -11.279   9.003  0.00  0.00    -0.491 OA
ATOM     32  C   UNL     1       0.188 -10.403  10.132  0.00  0.00    +0.277 C 
ENDBRANCH   8  31
BRANCH   7  33
ATOM     33  O   UNL     1       0.227 -12.868   6.781  0.00  0.00    -0.491 OA
ATOM     34  C   UNL     1       0.239 -13.653   5.587  0.00  0.00    +0.277 C 
ENDBRANCH   7  33
TORSDOF 6
