REMARK  Name = ZINC43189371
REMARK  12 active torsions:
REMARK  status: ('A' for Active; 'I' for Inactive)
REMARK    1  A    between atoms: C_1  and  C_2
REMARK    2  A    between atoms: C_2  and  C_3
REMARK    3  A    between atoms: C_2  and  C_4
REMARK    4  A    between atoms: C_2  and  N_19
REMARK    5  A    between atoms: C_4  and  N_5
REMARK    6  A    between atoms: N_8  and  C_9
REMARK    7  A    between atoms: C_9  and  C_10
REMARK    8  A    between atoms: C_15  and  N_16
REMARK    9  A    between atoms: N_16  and  C_17
REMARK   10  A    between atoms: N_16  and  C_18
REMARK   11  A    between atoms: N_19  and  C_20
REMARK   12  A    between atoms: N_19  and  C_21
REMARK                            x       y       z     vdW  Elec       q    Type
REMARK                         _______ _______ _______ _____ _____    ______ ____
ROOT
ATOM      1  N   UNL     1      -1.538  -1.444  -0.390  0.00  0.00    -0.301 N 
ATOM      2  C   UNL     1      -2.580  -2.297  -0.426  0.00  0.00    +0.300 C 
ATOM      3  O   UNL     1      -3.714  -1.867  -0.516  0.00  0.00    -0.253 OA
ATOM      4  N   UNL     1      -2.366  -3.626  -0.363  0.00  0.00    -0.295 N 
ATOM      5  H   UNL     1      -0.633  -1.786  -0.319  0.00  0.00    +0.150 HD
ATOM      6  H   UNL     1      -1.462  -3.969  -0.292  0.00  0.00    +0.151 HD
ENDROOT
BRANCH   1   7
ATOM      7  C   UNL     1      -1.770   0.001  -0.459  0.00  0.00    +0.093 C 
BRANCH   7   9
ATOM      8  C   UNL     1       0.300   0.381  -1.805  0.00  0.00    -0.008 C 
ATOM      9  C   UNL     1      -0.427   0.732  -0.505  0.00  0.00    -0.056 C 
ATOM     10  C   UNL     1      -0.666   2.242  -0.447  0.00  0.00    -0.008 C 
BRANCH   9  11
ATOM     11  N   UNL     1       0.394   0.322   0.642  0.00  0.00    +0.380 N 
ATOM     12  C   UNL     1       1.642   1.096   0.652  0.00  0.00    -0.096 C 
ATOM     13  C   UNL     1      -0.346   0.568   1.887  0.00  0.00    -0.096 C 
ATOM     14  H   UNL     1       0.608  -0.661   0.567  0.00  0.00    -0.082 HD
ENDBRANCH   9  11
ENDBRANCH   7   9
ENDBRANCH   1   7
BRANCH   4  15
ATOM     15  C   UNL     1      -3.500  -4.553  -0.402  0.00  0.00    +0.144 C 
BRANCH  15  16
ATOM     16  C   UNL     1      -2.993  -5.970  -0.317  0.00  0.00    +0.008 A 
ATOM     17  C   UNL     1      -2.905  -6.752  -1.454  0.00  0.00    +0.010 A 
ATOM     18  C   UNL     1      -2.433  -8.052  -1.329  0.00  0.00    +0.018 A 
ATOM     19  C   UNL     1      -2.068  -8.522  -0.083  0.00  0.00    +0.084 A 
ATOM     20  N   UNL     1      -2.163  -7.753   0.985  0.00  0.00    -0.349 N 
ATOM     21  C   UNL     1      -2.603  -6.506   0.906  0.00  0.00    +0.103 A 
ATOM     22  H   UNL     1      -1.901  -8.108   1.849  0.00  0.00    +0.167 HD
BRANCH  21  23
ATOM     23  N   UNL     1      -2.681  -5.729   2.055  0.00  0.00    -0.323 N 
ATOM     24  C   UNL     1      -3.913  -5.716   2.848  0.00  0.00    +0.130 C 
ATOM     25  C   UNL     1      -1.532  -4.923   2.475  0.00  0.00    +0.130 C 
ENDBRANCH  21  23
ENDBRANCH  15  16
ENDBRANCH   4  15
TORSDOF 6
