REMARK  Name = ZINC35138044
REMARK  12 active torsions:
REMARK  status: ('A' for Active; 'I' for Inactive)
REMARK    1  A    between atoms: C_1  and  C_2
REMARK    2  A    between atoms: C_2  and  C_3
REMARK    3  A    between atoms: C_3  and  C_4
REMARK    4  A    between atoms: C_4  and  N_5
REMARK    5  A    between atoms: N_5  and  C_6
REMARK    6  A    between atoms: C_6  and  C_7
REMARK    7  A    between atoms: N_9  and  C_10
REMARK    8  A    between atoms: C_12  and  C_23
REMARK    9  A    between atoms: N_14  and  C_15
REMARK   10  A    between atoms: C_18  and  C_22
REMARK   11  A    between atoms: C_20  and  C_21
REMARK   12  A    between atoms: N_31  and  C_32
REMARK                            x       y       z     vdW  Elec       q    Type
REMARK                         _______ _______ _______ _____ _____    ______ ____
ROOT
ATOM      1  C   UNL     1      -2.831  -4.327  -1.980  0.00  0.00    +0.236 C 
ATOM      2  O   UNL     1      -2.231  -5.112  -1.276  0.00  0.00    -0.274 OA
ATOM      3  N   UNL     1      -3.452  -4.761  -3.095  0.00  0.00    -0.269 N 
ATOM      4  H   UNL     1      -3.931  -4.133  -3.658  0.00  0.00    +0.156 HD
ENDROOT
BRANCH   3   5
ATOM      5  C   UNL     1      -3.405  -6.111  -3.439  0.00  0.00    +0.129 A 
ATOM      6  C   UNL     1      -2.677  -7.073  -2.814  0.00  0.00    +0.074 A 
ATOM      7  C   UNL     1      -2.917  -8.293  -3.475  0.00  0.00    +0.095 A 
ATOM      8  N   UNL     1      -3.759  -8.067  -4.462  0.00  0.00    -0.165 NA
ATOM      9  N   UNL     1      -4.086  -6.705  -4.458  0.00  0.00    -0.218 N 
BRANCH   9  10
ATOM     10  C   UNL     1      -4.958  -6.065  -5.349  0.00  0.00    +0.070 A 
ATOM     11  C   UNL     1      -5.942  -5.211  -4.867  0.00  0.00    +0.028 A 
ATOM     12  C   UNL     1      -6.800  -4.582  -5.747  0.00  0.00    +0.005 A 
ATOM     13  C   UNL     1      -6.681  -4.802  -7.107  0.00  0.00    -0.050 A 
ATOM     14  C   UNL     1      -5.703  -5.651  -7.590  0.00  0.00    +0.008 A 
ATOM     15  C   UNL     1      -4.837  -6.279  -6.715  0.00  0.00    -0.025 A 
ATOM     16  C   UNL     1      -3.767  -7.199  -7.243  0.00  0.00    +0.046 C 
ATOM     17  C   UNL     1      -7.620  -4.114  -8.065  0.00  0.00    +0.044 C 
ENDBRANCH   9  10
BRANCH   7  18
ATOM     18  C   UNL     1      -2.322  -9.605  -3.122  0.00  0.00    +0.002 A 
ATOM     19  C   UNL     1      -1.444  -9.708  -2.046  0.00  0.00    +0.010 A 
ATOM     20  C   UNL     1      -0.894 -10.932  -1.722  0.00  0.00    +0.001 A 
ATOM     21  C   UNL     1      -1.213 -12.055  -2.463  0.00  0.00    +0.000 A 
ATOM     22  C   UNL     1      -2.084 -11.958  -3.534  0.00  0.00    +0.001 A 
ATOM     23  C   UNL     1      -2.645 -10.741  -3.863  0.00  0.00    +0.010 A 
ENDBRANCH   7  18
ENDBRANCH   3   5
BRANCH   1  24
ATOM     24  C   UNL     1      -2.881  -2.868  -1.609  0.00  0.00    +0.205 C 
BRANCH  24  25
ATOM     25  N   UNL     1      -2.135  -2.654  -0.366  0.00  0.00    -0.277 N 
ATOM     26  C   UNL     1      -2.765  -2.747   0.822  0.00  0.00    +0.307 C 
ATOM     27  O   UNL     1      -3.952  -3.007   0.862  0.00  0.00    -0.252 OA
ATOM     28  N   UNL     1      -2.079  -2.550   1.966  0.00  0.00    -0.269 N 
ATOM     29  H   UNL     1      -1.120  -2.410   1.938  0.00  0.00    +0.156 HD
BRANCH  28  30
ATOM     30  C   UNL     1      -2.751  -2.549   3.193  0.00  0.00    +0.036 A 
ATOM     31  C   UNL     1      -2.346  -1.692   4.208  0.00  0.00    +0.023 A 
ATOM     32  C   UNL     1      -3.011  -1.692   5.418  0.00  0.00    +0.003 A 
ATOM     33  C   UNL     1      -4.080  -2.546   5.621  0.00  0.00    +0.020 A 
ATOM     34  C   UNL     1      -4.487  -3.402   4.613  0.00  0.00    +0.043 A 
ATOM     35  C   UNL     1      -3.828  -3.401   3.397  0.00  0.00    +0.043 A 
ATOM     36 CL   UNL     1      -5.829  -4.472   4.872  0.00  0.00    -0.083 Cl
ENDBRANCH  28  30
BRANCH  25  37
ATOM     37  C   UNL     1      -0.705  -2.341  -0.414  0.00  0.00    +0.110 C 
BRANCH  37  38
ATOM     38  C   UNL     1      -0.518  -0.824  -0.486  0.00  0.00    +0.019 C 
BRANCH  38  40
ATOM     39  C   UNL     1       1.163   1.020  -0.609  0.00  0.00    +0.004 C 
ATOM     40  C   UNL     1       0.976  -0.497  -0.536  0.00  0.00    -0.002 C 
ENDBRANCH  38  40
ENDBRANCH  37  38
ENDBRANCH  25  37
ENDBRANCH  24  25
ENDBRANCH   1  24
TORSDOF 9
