REMARK  Name = ZINC12506960
REMARK  7 active torsions:
REMARK  status: ('A' for Active; 'I' for Inactive)
REMARK    1  A    between atoms: C_1  and  C_2
REMARK    2  A    between atoms: C_2  and  C_3
REMARK    3  A    between atoms: C_2  and  O_4
REMARK    4  A    between atoms: O_4  and  C_5
REMARK    5  A    between atoms: C_6  and  C_13
REMARK    6  A    between atoms: C_10  and  O_11
REMARK    7  A    between atoms: O_11  and  C_12
REMARK                            x       y       z     vdW  Elec       q    Type
REMARK                         _______ _______ _______ _____ _____    ______ ____
ROOT
ATOM      1  C   UNL     1      -1.931  -0.670  -2.561  0.00  0.00    +0.212 C 
ATOM      2  N   UNL     1      -2.666  -0.815  -3.832  0.00  0.00    -0.294 N 
ATOM      3  C   UNL     1      -2.011  -1.422  -4.894  0.00  0.00    +0.159 C 
ATOM      4  N   UNL     1      -0.755  -0.913  -5.223  0.00  0.00    -0.259 N 
ATOM      5  C   UNL     1       0.000  -0.461  -4.142  0.00  0.00    +0.205 A 
ATOM      6  N   UNL     1      -0.541  -0.334  -2.885  0.00  0.00    -0.288 N 
ATOM      7  C   UNL     1       0.451   0.141  -2.053  0.00  0.00    +0.076 A 
ATOM      8  C   UNL     1       0.507   0.468  -0.704  0.00  0.00    +0.077 A 
ATOM      9  C   UNL     1       1.691   0.925  -0.158  0.00  0.00    +0.164 A 
ATOM     10  C   UNL     1       2.827   1.062  -0.950  0.00  0.00    +0.164 A 
ATOM     11  C   UNL     1       2.786   0.746  -2.292  0.00  0.00    +0.079 A 
ATOM     12  C   UNL     1       1.595   0.281  -2.857  0.00  0.00    +0.095 A 
ATOM     13  N   UNL     1       1.250  -0.102  -4.122  0.00  0.00    -0.214 NA
ATOM     14  O   UNL     1       3.989   1.511  -0.390  0.00  0.00    -0.488 OA
ATOM     15  C   UNL     1       3.993   2.876   0.033  0.00  0.00    +0.232 C 
ATOM     16  C   UNL     1       3.400   3.010   1.427  0.00  0.00    +0.082 C 
ATOM     17  C   UNL     1       1.929   2.630   1.470  0.00  0.00    +0.232 C 
ATOM     18  O   UNL     1       1.753   1.244   1.169  0.00  0.00    -0.488 OA
ATOM     19  N   UNL     1      -2.542  -2.416  -5.549  0.00  0.00    -0.375 N 
ATOM     20  H   UNL     1      -3.578  -0.497  -3.922  0.00  0.00    +0.151 HD
ATOM     21  H   UNL     1      -3.417  -2.750  -5.298  0.00  0.00    +0.158 HD
ATOM     22  H   UNL     1      -0.430  -0.876  -6.137  0.00  0.00    +0.158 HD
ATOM     23  H   UNL     1      -2.061  -2.821  -6.287  0.00  0.00    +0.158 HD
ENDROOT
BRANCH   1  25
ATOM     24  C   UNL     1      -3.123  -2.318  -1.097  0.00  0.00    +0.169 A 
ATOM     25  C   UNL     1      -1.977  -1.966  -1.793  0.00  0.00    +0.039 A 
ATOM     26  C   UNL     1      -0.878  -2.804  -1.784  0.00  0.00    +0.011 A 
ATOM     27  C   UNL     1      -0.917  -3.994  -1.081  0.00  0.00    +0.004 A 
ATOM     28  C   UNL     1      -2.057  -4.351  -0.385  0.00  0.00    +0.049 A 
ATOM     29  C   UNL     1      -3.160  -3.514  -0.385  0.00  0.00    +0.162 A 
BRANCH  29  30
ATOM     30  O   UNL     1      -4.280  -3.861   0.304  0.00  0.00    -0.491 OA
ATOM     31  C   UNL     1      -4.247  -5.102   1.012  0.00  0.00    +0.277 C 
ENDBRANCH  29  30
BRANCH  24  32
ATOM     32  O   UNL     1      -4.205  -1.495  -1.105  0.00  0.00    -0.485 OA
BRANCH  32  34
ATOM     33  C   UNL     1      -5.064   0.727  -0.701  0.00  0.00    +0.051 C 
ATOM     34  C   UNL     1      -4.211  -0.423  -0.161  0.00  0.00    +0.168 C 
ATOM     35  C   UNL     1      -4.797  -0.913   1.165  0.00  0.00    +0.051 C 
ENDBRANCH  32  34
ENDBRANCH  24  32
ENDBRANCH   1  25
TORSDOF 4
