REMARK  Name = ZINC48335982
REMARK  7 active torsions:
REMARK  status: ('A' for Active; 'I' for Inactive)
REMARK    1  A    between atoms: C_1  and  C_2
REMARK    2  A    between atoms: N_4  and  C_5
REMARK    3  A    between atoms: C_8  and  C_11
REMARK    4  A    between atoms: C_12  and  C_13
REMARK    5  A    between atoms: N_15  and  C_16
REMARK    6  A    between atoms: C_16  and  C_17
REMARK    7  A    between atoms: N_26  and  C_29
REMARK                            x       y       z     vdW  Elec       q    Type
REMARK                         _______ _______ _______ _____ _____    ______ ____
ROOT
ATOM      1  C   UNL     1       0.637  -8.327  -2.711  0.00  0.00    +0.237 C 
ATOM      2  O   UNL     1       0.649  -8.975  -1.681  0.00  0.00    -0.271 OA
ATOM      3  N   UNL     1       0.733  -8.951  -3.902  0.00  0.00    -0.308 N 
ATOM      4  H   UNL     1       0.723  -8.434  -4.722  0.00  0.00    +0.149 HD
ENDROOT
BRANCH   1   6
ATOM      5  C   UNL     1       0.420  -6.245  -1.464  0.00  0.00    +0.013 C 
ATOM      6  C   UNL     1       0.517  -6.870  -2.657  0.00  0.00    +0.068 C 
BRANCH   5  10
ATOM      7  C   UNL     1       0.073  -2.020  -1.306  0.00  0.00    +0.033 A 
ATOM      8  C   UNL     1       0.087  -2.760  -0.128  0.00  0.00    +0.024 A 
ATOM      9  C   UNL     1       0.199  -4.131  -0.174  0.00  0.00    +0.010 A 
ATOM     10  C   UNL     1       0.300  -4.781  -1.409  0.00  0.00    -0.025 A 
ATOM     11  C   UNL     1       0.286  -4.033  -2.593  0.00  0.00    +0.010 A 
ATOM     12  C   UNL     1       0.168  -2.663  -2.537  0.00  0.00    +0.024 A 
BRANCH   7  16
ATOM     13  C   UNL     1       0.505   1.563  -0.251  0.00  0.00    +0.109 C 
ATOM     14  C   UNL     1       0.544   0.056  -0.254  0.00  0.00    +0.214 C 
ATOM     15  O   UNL     1       1.102  -0.538   0.645  0.00  0.00    -0.276 OA
ATOM     16  N   UNL     1      -0.041  -0.631  -1.254  0.00  0.00    -0.286 N 
ATOM     17  H   UNL     1      -0.541  -0.160  -1.939  0.00  0.00    +0.155 HD
ENDBRANCH   7  16
ENDBRANCH   5  10
ENDBRANCH   1   6
BRANCH   3  18
ATOM     18  C   UNL     1       0.853 -10.410  -3.956  0.00  0.00    +0.140 C 
BRANCH  18  19
ATOM     19  C   UNL     1       0.945 -10.853  -5.394  0.00  0.00    -0.026 A 
ATOM     20  C   UNL     1      -0.201 -11.152  -6.119  0.00  0.00    +0.023 A 
ATOM     21  C   UNL     1      -0.083 -11.555  -7.434  0.00  0.00    +0.084 A 
ATOM     22  N   UNL     1       1.101 -11.658  -8.006  0.00  0.00    -0.350 N 
ATOM     23  C   UNL     1       2.217 -11.383  -7.349  0.00  0.00    +0.099 A 
ATOM     24  C   UNL     1       2.172 -10.966  -6.022  0.00  0.00    +0.047 A 
ATOM     25  N   UNL     1       3.443 -11.505  -7.991  0.00  0.00    -0.320 N 
ATOM     26  C   UNL     1       4.704 -11.330  -7.254  0.00  0.00    +0.088 C 
ATOM     27  C   UNL     1       5.612 -12.528  -7.550  0.00  0.00    -0.060 C 
ATOM     28  N   UNL     1       5.774 -12.670  -9.003  0.00  0.00    +0.380 N 
ATOM     29  C   UNL     1       4.481 -12.991  -9.621  0.00  0.00    -0.060 C 
ATOM     30  C   UNL     1       3.518 -11.821  -9.426  0.00  0.00    +0.088 C 
ATOM     31  C   UNL     1       6.730 -13.749  -9.284  0.00  0.00    -0.096 C 
ATOM     32  H   UNL     1       1.156 -11.944  -8.932  0.00  0.00    +0.166 HD
ATOM     33  H   UNL     1       6.124 -11.806  -9.387  0.00  0.00    -0.082 HD
ENDBRANCH  18  19
ENDBRANCH   3  18
TORSDOF 5
