REMARK  Name = ZINC63588767
REMARK  8 active torsions:
REMARK  status: ('A' for Active; 'I' for Inactive)
REMARK    1  A    between atoms: C_4  and  N_7
REMARK    2  A    between atoms: N_9  and  C_10
REMARK    3  A    between atoms: C_10  and  C_11
REMARK    4  A    between atoms: C_11  and  C_12
REMARK    5  A    between atoms: N_21  and  C_22
REMARK    6  A    between atoms: C_22  and  C_24
REMARK    7  A    between atoms: C_24  and  C_25
REMARK    8  A    between atoms: C_25  and  C_26
REMARK                            x       y       z     vdW  Elec       q    Type
REMARK                         _______ _______ _______ _____ _____    ______ ____
ROOT
ATOM      1  N   UNL     1       3.244  -1.026  -0.091  0.00  0.00    -0.328 N 
ATOM      2  C   UNL     1       3.610  -2.339  -0.087  0.00  0.00    +0.194 C 
ATOM      3  N   UNL     1       4.922  -2.681  -0.224  0.00  0.00    -0.357 N 
ATOM      4  N   UNL     1       2.689  -3.285   0.050  0.00  0.00    -0.147 NA
ATOM      5  H   UNL     1       5.162  -3.562  -0.552  0.00  0.00    +0.162 HD
ATOM      6  H   UNL     1       2.613  -0.696   0.568  0.00  0.00    +0.169 HD
ENDROOT
BRANCH   1  10
ATOM      7  C   UNL     1       4.834   1.571  -2.934  0.00  0.00    +0.000 A 
ATOM      8  C   UNL     1       4.430   2.058  -1.704  0.00  0.00    +0.002 A 
ATOM      9  C   UNL     1       3.903   1.200  -0.759  0.00  0.00    +0.026 A 
ATOM     10  C   UNL     1       3.777  -0.153  -1.046  0.00  0.00    +0.042 A 
ATOM     11  C   UNL     1       4.184  -0.639  -2.282  0.00  0.00    +0.026 A 
ATOM     12  C   UNL     1       4.711   0.225  -3.222  0.00  0.00    +0.002 A 
ENDBRANCH   1  10
BRANCH   4  13
ATOM     13  C   UNL     1       1.413  -2.950   0.231  0.00  0.00    +0.240 C 
ATOM     14  O   UNL     1       1.078  -1.783   0.179  0.00  0.00    -0.274 OA
BRANCH  13  15
ATOM     15  C   UNL     1       0.385  -4.018   0.500  0.00  0.00    +0.107 C 
BRANCH  15  16
ATOM     16  C   UNL     1      -1.008  -3.386   0.544  0.00  0.00    +0.105 C 
BRANCH  16  17
ATOM     17  C   UNL     1      -2.022  -4.431   0.930  0.00  0.00    +0.216 C 
ATOM     18  O   UNL     1      -1.666  -5.570   1.150  0.00  0.00    -0.276 OA
ATOM     19  N   UNL     1      -3.325  -4.101   1.033  0.00  0.00    -0.301 N 
ATOM     20  C   UNL     1      -3.717  -2.736   0.759  0.00  0.00    +0.108 C 
ATOM     21  C   UNL     1      -3.644  -1.903   2.063  0.00  0.00    +0.019 C 
ATOM     22  C   UNL     1      -4.728  -2.292   2.978  0.00  0.00    +0.002 C 
ATOM     23  C   UNL     1      -4.661  -3.741   3.452  0.00  0.00    +0.002 C 
ATOM     24  C   UNL     1      -5.329  -4.631   2.433  0.00  0.00    +0.019 C 
ATOM     25  C   UNL     1      -4.292  -5.148   1.413  0.00  0.00    +0.108 C 
ENDBRANCH  16  17
ENDBRANCH  15  16
ENDBRANCH  13  15
ENDBRANCH   4  13
BRANCH   3  26
ATOM     26  C   UNL     1       5.970  -1.718   0.125  0.00  0.00    +0.120 C 
BRANCH  26  27
ATOM     27  C   UNL     1       7.339  -2.305  -0.227  0.00  0.00    +0.054 C 
BRANCH  27  28
ATOM     28  C   UNL     1       8.422  -1.368   0.243  0.00  0.00    -0.040 C 
ATOM     29  C   UNL     1       9.060  -1.396   1.435  0.00  0.00    -0.001 A 
ATOM     30  C   UNL     1       8.941  -2.272   2.607  0.00  0.00    +0.010 A 
ATOM     31  C   UNL     1       9.734  -2.046   3.678  0.00  0.00    +0.001 A 
ATOM     32  C   UNL     1      10.665  -0.999   3.698  0.00  0.00    +0.002 A 
ATOM     33  C   UNL     1      10.833  -0.152   2.660  0.00  0.00    +0.026 A 
ATOM     34  C   UNL     1      10.052  -0.298   1.481  0.00  0.00    +0.043 A 
ATOM     35  N   UNL     1      10.027   0.383   0.361  0.00  0.00    -0.380 N 
ATOM     36  C   UNL     1       9.021  -0.211  -0.526  0.00  0.00    +0.144 C 
ATOM     37  H   UNL     1      10.584   1.149   0.151  0.00  0.00    +0.160 HD
ENDBRANCH  27  28
ENDBRANCH  26  27
ENDBRANCH   3  26
TORSDOF 8
