REMARK  Name = ZINC13098662
REMARK  8 active torsions:
REMARK  status: ('A' for Active; 'I' for Inactive)
REMARK    1  A    between atoms: C_1  and  C_2
REMARK    2  A    between atoms: C_2  and  O_3
REMARK    3  A    between atoms: O_3  and  C_4
REMARK    4  A    between atoms: C_4  and  C_6
REMARK    5  A    between atoms: C_7  and  C_19
REMARK    6  A    between atoms: C_12  and  C_14
REMARK    7  A    between atoms: C_19  and  N_20
REMARK    8  A    between atoms: C_25  and  C_27
REMARK                            x       y       z     vdW  Elec       q    Type
REMARK                         _______ _______ _______ _____ _____    ______ ____
ROOT
ATOM      1  C   UNL     1       1.332  -2.231  -2.220  0.00  0.00    +0.080 C 
ATOM      2  C   UNL     1       1.644  -3.539  -2.336  0.00  0.00    +0.038 C 
ATOM      3  N   UNL     1       2.447  -3.986  -3.346  0.00  0.00    -0.271 N 
ATOM      4  C   UNL     1       2.977  -3.188  -4.282  0.00  0.00    +0.304 C 
ATOM      5  O   UNL     1       3.680  -3.678  -5.143  0.00  0.00    -0.252 OA
ATOM      6  N   UNL     1       2.756  -1.858  -4.298  0.00  0.00    -0.288 N 
ATOM      7  C   UNL     1       1.897  -1.277  -3.253  0.00  0.00    +0.150 C 
ATOM      8  H   UNL     1       2.644  -4.935  -3.389  0.00  0.00    +0.156 HD
ATOM      9  H   UNL     1       3.150  -1.298  -4.985  0.00  0.00    +0.151 HD
ENDROOT
BRANCH   7  10
ATOM     10  C   UNL     1       2.702  -0.230  -2.527  0.00  0.00    +0.015 A 
ATOM     11  C   UNL     1       2.348   1.034  -2.187  0.00  0.00    +0.013 A 
ATOM     12  C   UNL     1       3.260   1.827  -1.514  0.00  0.00    +0.008 A 
ATOM     13  C   UNL     1       4.479   1.317  -1.215  0.00  0.00    +0.045 A 
ATOM     14  S   UNL     1       4.364  -0.334  -1.885  0.00  0.00    -0.099 S 
ENDBRANCH   7  10
BRANCH   1  15
ATOM     15  C   UNL     1       0.501  -1.767  -1.174  0.00  0.00    +0.339 C 
ATOM     16  O   UNL     1      -0.658  -1.475  -1.402  0.00  0.00    -0.245 OA
BRANCH  15  17
ATOM     17  O   UNL     1       0.993  -1.649   0.077  0.00  0.00    -0.462 OA
BRANCH  17  19
ATOM     18  C   UNL     1       0.829  -1.107   2.427  0.00  0.00    +0.048 C 
ATOM     19  C   UNL     1       0.097  -1.174   1.085  0.00  0.00    +0.229 C 
ENDBRANCH  17  19
ENDBRANCH  15  17
ENDBRANCH   1  15
BRANCH   2  20
ATOM     20  C   UNL     1       1.099  -4.523  -1.333  0.00  0.00    +0.136 C 
BRANCH  20  21
ATOM     21  N   UNL     1       0.185  -5.455  -2.007  0.00  0.00    -0.286 NA
ATOM     22  C   UNL     1      -0.988  -4.749  -2.539  0.00  0.00    +0.085 C 
ATOM     23  C   UNL     1      -1.841  -5.720  -3.357  0.00  0.00    +0.015 C 
ATOM     24  C   UNL     1      -2.284  -6.881  -2.463  0.00  0.00    +0.003 C 
ATOM     25  C   UNL     1      -1.045  -7.569  -1.883  0.00  0.00    +0.028 C 
ATOM     26  C   UNL     1      -0.214  -6.545  -1.108  0.00  0.00    +0.143 C 
BRANCH  26  27
ATOM     27  C   UNL     1       1.017  -7.213  -0.552  0.00  0.00    +0.228 C 
ATOM     28  O   UNL     1       2.037  -7.247  -1.207  0.00  0.00    -0.274 OA
ATOM     29  N   UNL     1       0.985  -7.773   0.674  0.00  0.00    -0.328 N 
ATOM     30  H   UNL     1       0.169  -7.746   1.198  0.00  0.00    +0.145 HD
ATOM     31  H   UNL     1       1.777  -8.204   1.031  0.00  0.00    +0.145 HD
ENDBRANCH  26  27
ENDBRANCH  20  21
ENDBRANCH   2  20
TORSDOF 7
