REMARK  Name = ZINC35455613
REMARK  8 active torsions:
REMARK  status: ('A' for Active; 'I' for Inactive)
REMARK    1  A    between atoms: C_1  and  C_2
REMARK    2  A    between atoms: C_2  and  C_3
REMARK    3  A    between atoms: C_2  and  C_4
REMARK    4  A    between atoms: C_5  and  C_18
REMARK    5  A    between atoms: N_7  and  C_9
REMARK    6  A    between atoms: N_22  and  C_26
REMARK    7  A    between atoms: C_26  and  C_27
REMARK    8  A    between atoms: C_30  and  C_33
REMARK                            x       y       z     vdW  Elec       q    Type
REMARK                         _______ _______ _______ _____ _____    ______ ____
ROOT
ATOM      1  C   UNL     1      -1.353  -1.851  -2.191  0.00  0.00    +0.043 C 
ATOM      2  C   UNL     1      -1.418  -3.174  -2.500  0.00  0.00    +0.099 C 
ATOM      3  C   UNL     1      -0.844  -3.818  -3.629  0.00  0.00    +0.269 C 
ATOM      4  O   UNL     1      -0.195  -3.288  -4.512  0.00  0.00    -0.268 OA
ATOM      5  N   UNL     1      -1.153  -5.126  -3.538  0.00  0.00    -0.216 N 
ATOM      6  C   UNL     1      -1.880  -5.342  -2.429  0.00  0.00    +0.313 C 
ATOM      7  O   UNL     1      -2.308  -6.424  -2.074  0.00  0.00    -0.252 OA
ATOM      8  N   UNL     1      -2.060  -4.184  -1.766  0.00  0.00    -0.265 N 
ATOM      9  H   UNL     1      -2.545  -4.069  -0.934  0.00  0.00    +0.157 HD
ENDROOT
BRANCH   1  11
ATOM     10  C   UNL     1      -1.412  -0.526   0.013  0.00  0.00    +0.077 A 
ATOM     11  C   UNL     1      -2.000  -1.351  -0.977  0.00  0.00    +0.066 A 
ATOM     12  C   UNL     1      -3.311  -1.595  -0.575  0.00  0.00    +0.281 A 
ATOM     13  N   UNL     1      -3.495  -0.948   0.596  0.00  0.00    -0.196 N 
ATOM     14  N   UNL     1      -2.303  -0.300   0.937  0.00  0.00    -0.167 NA
ATOM     15  O   UNL     1      -4.229  -2.341  -1.234  0.00  0.00    -0.265 OA
BRANCH  13  16
ATOM     16  C   UNL     1      -4.679  -0.932   1.346  0.00  0.00    +0.071 A 
ATOM     17  C   UNL     1      -5.910  -0.943   0.703  0.00  0.00    +0.029 A 
ATOM     18  C   UNL     1      -7.075  -0.928   1.444  0.00  0.00    +0.023 A 
ATOM     19  C   UNL     1      -7.018  -0.902   2.826  0.00  0.00    +0.059 A 
ATOM     20  C   UNL     1      -5.792  -0.891   3.470  0.00  0.00    +0.061 A 
ATOM     21  C   UNL     1      -4.623  -0.912   2.733  0.00  0.00    +0.049 A 
ATOM     22 CL   UNL     1      -5.724  -0.858   5.205  0.00  0.00    -0.082 Cl
ATOM     23 CL   UNL     1      -8.485  -0.883   3.754  0.00  0.00    -0.082 Cl
ENDBRANCH  13  16
BRANCH  10  25
ATOM     24  C   UNL     1      -0.019   1.526   0.010  0.00  0.00    +0.014 C 
ATOM     25  C   UNL     1       0.002  -0.004   0.002  0.00  0.00    +0.034 C 
ATOM     26  C   UNL     1       0.742  -0.511   1.242  0.00  0.00    +0.014 C 
ENDBRANCH  10  25
ENDBRANCH   1  11
BRANCH   5  27
ATOM     27  C   UNL     1      -0.757  -6.156  -4.501  0.00  0.00    +0.153 C 
BRANCH  27  28
ATOM     28  C   UNL     1       0.572  -6.740  -4.094  0.00  0.00    -0.029 A 
ATOM     29  C   UNL     1       1.745  -6.172  -4.559  0.00  0.00    +0.006 A 
ATOM     30  C   UNL     1       2.964  -6.701  -4.191  0.00  0.00    +0.019 A 
ATOM     31  C   UNL     1       3.014  -7.812  -3.346  0.00  0.00    +0.052 A 
ATOM     32  C   UNL     1       1.826  -8.380  -2.880  0.00  0.00    +0.019 A 
ATOM     33  C   UNL     1       0.613  -7.837  -3.252  0.00  0.00    +0.006 A 
BRANCH  31  34
ATOM     34  C   UNL     1       4.276  -8.367  -2.960  0.00  0.00    +0.099 C 
ATOM     35  N   UNL     1       5.277  -8.807  -2.654  0.00  0.00    -0.191 NA
ENDBRANCH  31  34
ENDBRANCH  27  28
ENDBRANCH   5  27
TORSDOF 6
