REMARK  Name = ZINC43222427
REMARK  6 active torsions:
REMARK  status: ('A' for Active; 'I' for Inactive)
REMARK    1  A    between atoms: C_10  and  N_12
REMARK    2  A    between atoms: C_13  and  C_15
REMARK    3  A    between atoms: C_20  and  C_22
REMARK    4  A    between atoms: N_24  and  C_25
REMARK    5  A    between atoms: C_25  and  C_26
REMARK    6  A    between atoms: C_26  and  C_27
REMARK                            x       y       z     vdW  Elec       q    Type
REMARK                         _______ _______ _______ _____ _____    ______ ____
ROOT
ATOM      1  C   UNL     1       6.241   1.831  -1.474  0.00  0.00    +0.068 C 
ATOM      2  C   UNL     1       5.438   2.424  -2.652  0.00  0.00    -0.069 C 
ATOM      3  N   UNL     1       5.160   3.826  -2.246  0.00  0.00    +0.380 N 
ATOM      4  C   UNL     1       6.415   4.271  -1.589  0.00  0.00    -0.069 C 
ATOM      5  C   UNL     1       6.886   3.044  -0.774  0.00  0.00    +0.068 C 
ATOM      6  H   UNL     1       4.965   4.395  -3.056  0.00  0.00    -0.086 HD
ATOM      7  H   UNL     1       4.389   3.859  -1.595  0.00  0.00    -0.086 HD
ENDROOT
BRANCH   1   9
ATOM      8  N   UNL     1       4.631   0.029  -0.946  0.00  0.00    -0.308 N 
ATOM      9  C   UNL     1       5.321   1.107  -0.525  0.00  0.00    +0.215 C 
ATOM     10  O   UNL     1       5.202   1.495   0.618  0.00  0.00    -0.276 OA
ATOM     11  H   UNL     1       4.726  -0.282  -1.860  0.00  0.00    +0.149 HD
BRANCH   8  21
ATOM     12  C   UNL     1      -0.017   1.375   0.010  0.00  0.00    +0.000 A 
ATOM     13  C   UNL     1       1.174   2.078   0.002  0.00  0.00    +0.000 A 
ATOM     14  C   UNL     1       2.372   1.395  -0.010  0.00  0.00    +0.006 A 
ATOM     15  C   UNL     1       2.393   0.006  -0.017  0.00  0.00    -0.024 A 
ATOM     16  C   UNL     1       1.208  -0.694  -0.015  0.00  0.00    -0.042 A 
ATOM     17  C   UNL     1       0.002  -0.004   0.002  0.00  0.00    +0.004 A 
ATOM     18  C   UNL     1       1.155  -2.199  -0.038  0.00  0.00    +0.035 C 
ATOM     19  C   UNL     1       2.501  -2.790   0.375  0.00  0.00    +0.007 C 
ATOM     20  C   UNL     1       3.599  -2.130  -0.467  0.00  0.00    +0.027 C 
ATOM     21  C   UNL     1       3.737  -0.675  -0.023  0.00  0.00    +0.103 C 
ENDBRANCH   8  21
ENDBRANCH   1   9
BRANCH   5  22
ATOM     22  C   UNL     1       8.389   2.933  -0.813  0.00  0.00    +0.215 C 
ATOM     23  O   UNL     1       8.912   1.979  -1.347  0.00  0.00    -0.276 OA
ATOM     24  N   UNL     1       9.150   3.895  -0.255  0.00  0.00    -0.315 N 
ATOM     25  H   UNL     1       8.731   4.658   0.172  0.00  0.00    +0.149 HD
BRANCH  24  26
ATOM     26  C   UNL     1      10.611   3.787  -0.293  0.00  0.00    +0.109 C 
BRANCH  26  27
ATOM     27  C   UNL     1      11.230   4.999   0.406  0.00  0.00    +0.055 C 
BRANCH  27  28
ATOM     28  C   UNL     1      12.732   4.888   0.367  0.00  0.00    -0.028 A 
ATOM     29  C   UNL     1      13.412   4.333   1.435  0.00  0.00    +0.005 A 
ATOM     30  C   UNL     1      14.790   4.231   1.400  0.00  0.00    +0.000 A 
ATOM     31  C   UNL     1      15.489   4.684   0.296  0.00  0.00    +0.001 A 
ATOM     32  C   UNL     1      14.811   5.239  -0.772  0.00  0.00    +0.020 A 
ATOM     33  C   UNL     1      13.431   5.336  -0.740  0.00  0.00    +0.044 A 
ATOM     34 CL   UNL     1      12.577   6.027  -2.084  0.00  0.00    -0.083 Cl
ENDBRANCH  27  28
ENDBRANCH  26  27
ENDBRANCH  24  26
ENDBRANCH   5  22
TORSDOF 6
