REMARK  Name = ZINC09013157
REMARK  11 active torsions:
REMARK  status: ('A' for Active; 'I' for Inactive)
REMARK    1  A    between atoms: C_1  and  C_2
REMARK    2  A    between atoms: C_3  and  N_9
REMARK    3  A    between atoms: C_10  and  C_12
REMARK    4  A    between atoms: C_12  and  S_13
REMARK    5  A    between atoms: S_13  and  C_14
REMARK    6  A    between atoms: C_15  and  C_36
REMARK    7  A    between atoms: C_16  and  C_28
REMARK    8  A    between atoms: C_21  and  C_25
REMARK    9  A    between atoms: C_21  and  C_26
REMARK   10  A    between atoms: C_31  and  O_34
REMARK   11  A    between atoms: O_34  and  C_35
REMARK                            x       y       z     vdW  Elec       q    Type
REMARK                         _______ _______ _______ _____ _____    ______ ____
ROOT
ATOM      1  C   UNL     1       3.889   2.930   0.535  0.00  0.00    +0.111 C 
ATOM      2  C   UNL     1       2.576   2.517   0.692  0.00  0.00    +0.069 C 
ATOM      3  C   UNL     1       1.913   1.844  -0.496  0.00  0.00    +0.078 C 
ATOM      4  C   UNL     1       2.772   1.695  -1.737  0.00  0.00    +0.112 C 
ATOM      5  C   UNL     1       2.269   1.107  -2.835  0.00  0.00    +0.143 C 
ATOM      6  C   UNL     1       3.095   0.944  -4.083  0.00  0.00    +0.081 C 
ATOM      7  C   UNL     1       4.572   0.822  -3.700  0.00  0.00    -0.023 C 
ATOM      8  C   UNL     1       4.981   2.063  -2.901  0.00  0.00    +0.058 C 
ATOM      9  C   UNL     1       4.089   2.187  -1.688  0.00  0.00    +0.032 C 
ATOM     10  N   UNL     1       4.560   2.753  -0.605  0.00  0.00    -0.248 NA
ATOM     11  C   UNL     1       4.779  -0.429  -2.845  0.00  0.00    +0.011 C 
ATOM     12  C   UNL     1       5.424   0.723  -4.968  0.00  0.00    +0.011 C 
ATOM     13  O   UNL     1       1.000   0.653  -2.818  0.00  0.00    -0.297 OA
ENDROOT
BRANCH   3  14
ATOM     14  C   UNL     1       0.688   2.640  -0.865  0.00  0.00    -0.038 A 
ATOM     15  C   UNL     1       0.824   3.905  -1.407  0.00  0.00    +0.008 A 
ATOM     16  C   UNL     1      -0.298   4.639  -1.741  0.00  0.00    +0.046 A 
ATOM     17  C   UNL     1      -1.561   4.102  -1.542  0.00  0.00    +0.120 A 
ATOM     18  C   UNL     1      -1.696   2.833  -0.997  0.00  0.00    +0.046 A 
ATOM     19  C   UNL     1      -0.571   2.106  -0.660  0.00  0.00    +0.008 A 
BRANCH  17  20
ATOM     20  O   UNL     1      -2.666   4.821  -1.874  0.00  0.00    -0.495 OA
ATOM     21  C   UNL     1      -2.452   6.120  -2.430  0.00  0.00    +0.277 C 
ENDBRANCH  17  20
ENDBRANCH   3  14
BRANCH   2  22
ATOM     22  C   UNL     1       1.874   2.717   1.924  0.00  0.00    +0.098 C 
ATOM     23  N   UNL     1       1.317   2.876   2.901  0.00  0.00    -0.191 NA
ENDBRANCH   2  22
BRANCH   1  24
ATOM     24  S   UNL     1       4.700   3.716   1.887  0.00  0.00    -0.096 S 
BRANCH  24  25
ATOM     25  C   UNL     1       6.321   4.025   1.144  0.00  0.00    +0.172 C 
BRANCH  25  27
ATOM     26  N   UNL     1       8.475   5.042   1.813  0.00  0.00    -0.285 N 
ATOM     27  C   UNL     1       7.211   4.712   2.147  0.00  0.00    +0.227 C 
ATOM     28  O   UNL     1       6.791   4.968   3.256  0.00  0.00    -0.275 OA
ATOM     29  H   UNL     1       8.793   4.889   0.910  0.00  0.00    +0.155 HD
BRANCH  26  32
ATOM     30  C   UNL     1      11.274   4.613   1.536  0.00  0.00    +0.047 C 
ATOM     31  C   UNL     1      10.700   5.420   2.672  0.00  0.00    -0.011 A 
ATOM     32  C   UNL     1       9.327   5.604   2.769  0.00  0.00    +0.038 A 
ATOM     33  C   UNL     1       8.801   6.344   3.821  0.00  0.00    +0.023 A 
ATOM     34  C   UNL     1       9.645   6.898   4.764  0.00  0.00    +0.003 A 
ATOM     35  C   UNL     1      11.012   6.718   4.662  0.00  0.00    +0.020 A 
ATOM     36  C   UNL     1      11.540   5.982   3.615  0.00  0.00    +0.046 A 
ATOM     37 CL   UNL     1      13.257   5.759   3.491  0.00  0.00    -0.083 Cl
ENDBRANCH  26  32
ENDBRANCH  25  27
ENDBRANCH  24  25
ENDBRANCH   1  24
TORSDOF 7
