REMARK  Name = ZINC58414536
REMARK  5 active torsions:
REMARK  status: ('A' for Active; 'I' for Inactive)
REMARK    1  A    between atoms: C_3  and  N_12
REMARK    2  A    between atoms: C_4  and  C_8
REMARK    3  A    between atoms: C_13  and  C_15
REMARK    4  A    between atoms: C_15  and  N_16
REMARK    5  A    between atoms: C_26  and  C_28
REMARK                            x       y       z     vdW  Elec       q    Type
REMARK                         _______ _______ _______ _____ _____    ______ ____
ROOT
ATOM      1  C   UNL     1       4.660   4.184  -0.271  0.00  0.00    +0.020 C 
ENDROOT
BRANCH   1   2
ATOM      2  N   UNL     1       4.459   5.638  -0.350  0.00  0.00    +0.395 N 
ATOM      3  C   UNL     1       5.696   6.289  -0.764  0.00  0.00    -0.064 C 
ATOM      4  C   UNL     1       5.905   6.523  -2.245  0.00  0.00    -0.015 C 
ATOM      5  C   UNL     1       7.284   7.183  -2.415  0.00  0.00    -0.002 C 
ATOM      6  C   UNL     1       7.382   8.479  -1.617  0.00  0.00    +0.000 C 
ATOM      7  C   UNL     1       7.046   8.254  -0.134  0.00  0.00    +0.002 C 
ATOM      8  C   UNL     1       5.633   7.685  -0.086  0.00  0.00    -0.026 C 
ATOM      9  C   UNL     1       5.148   7.287   1.316  0.00  0.00    -0.004 C 
ATOM     10  C   UNL     1       4.113   6.175   0.992  0.00  0.00    +0.020 C 
ATOM     11  H   UNL     1       3.721   5.848  -1.005  0.00  0.00    -0.080 HD
BRANCH  10  12
ATOM     12  C   UNL     1       4.199   5.078   2.022  0.00  0.00    +0.197 C 
ATOM     13  O   UNL     1       5.250   4.502   2.208  0.00  0.00    -0.278 OA
ATOM     14  N   UNL     1       3.108   4.737   2.737  0.00  0.00    -0.331 N 
ATOM     15  H   UNL     1       2.268   5.198   2.588  0.00  0.00    +0.145 HD
ATOM     16  H   UNL     1       3.164   4.031   3.400  0.00  0.00    +0.145 HD
ENDBRANCH  10  12
ENDBRANCH   1   2
BRANCH   1  18
ATOM     17  N   UNL     1       3.297   2.174   0.197  0.00  0.00    -0.287 N 
ATOM     18  C   UNL     1       3.354   3.515   0.071  0.00  0.00    +0.201 C 
ATOM     19  O   UNL     1       2.354   4.182   0.234  0.00  0.00    -0.278 OA
ATOM     20  H   UNL     1       4.109   1.647   0.139  0.00  0.00    +0.155 HD
BRANCH  17  23
ATOM     21  C   UNL     1      -0.324   1.533   0.219  0.00  0.00    +0.022 A 
ATOM     22  C   UNL     1       0.889   2.158   0.007  0.00  0.00    +0.025 A 
ATOM     23  C   UNL     1       2.066   1.543   0.412  0.00  0.00    +0.045 A 
ATOM     24  C   UNL     1       2.020   0.300   1.029  0.00  0.00    +0.077 A 
ATOM     25  C   UNL     1       0.805  -0.321   1.239  0.00  0.00    +0.034 A 
ATOM     26  C   UNL     1      -0.367   0.294   0.835  0.00  0.00    +0.042 A 
ATOM     27 CL   UNL     1      -1.893  -0.489   1.100  0.00  0.00    -0.084 Cl
BRANCH  24  28
ATOM     28  C   UNL     1       3.296  -0.371   1.470  0.00  0.00    +0.419 C 
ATOM     29  F   UNL     1       2.995  -1.603   2.061  0.00  0.00    -0.166 F 
ATOM     30  F   UNL     1       4.122  -0.576   0.360  0.00  0.00    -0.166 F 
ATOM     31  F   UNL     1       3.954   0.443   2.398  0.00  0.00    -0.166 F 
ENDBRANCH  24  28
ENDBRANCH  17  23
ENDBRANCH   1  18
TORSDOF 5
