REMARK  Name = ZINC20682020
REMARK  10 active torsions:
REMARK  status: ('A' for Active; 'I' for Inactive)
REMARK    1  A    between atoms: C_2  and  C_3
REMARK    2  A    between atoms: C_3  and  N_4
REMARK    3  A    between atoms: N_4  and  C_5
REMARK    4  A    between atoms: N_4  and  C_12
REMARK    5  A    between atoms: C_5  and  C_6
REMARK    6  A    between atoms: C_12  and  C_13
REMARK    7  A    between atoms: N_15  and  C_16
REMARK    8  A    between atoms: C_16  and  C_17
REMARK    9  A    between atoms: C_20  and  S_23
REMARK   10  A    between atoms: S_23  and  N_26
REMARK                            x       y       z     vdW  Elec       q    Type
REMARK                         _______ _______ _______ _____ _____    ______ ____
ROOT
ATOM      1  C   UNL     1       6.143  -0.817  -3.047  0.00  0.00    +0.197 C 
ATOM      2  O   UNL     1       5.306  -0.516  -3.871  0.00  0.00    -0.278 OA
ATOM      3  N   UNL     1       7.422  -1.010  -3.426  0.00  0.00    -0.313 N 
ATOM      4  H   UNL     1       8.182  -1.284  -2.679  0.00  0.00    +0.149 HD
ENDROOT
BRANCH   1   5
ATOM      5  C   UNL     1       5.754  -0.975  -1.600  0.00  0.00    +0.019 C 
BRANCH   5   6
ATOM      6  N   UNL     1       4.349  -0.583  -1.425  0.00  0.00    +0.391 N 
ATOM      7  H   UNL     1       3.767  -1.040  -2.239  0.00  0.00    -0.080 HD
BRANCH   6   8
ATOM      8  C   UNL     1       4.194   0.875  -1.522  0.00  0.00    -0.051 C 
BRANCH   8  10
ATOM      9  C   UNL     1       5.842   2.442  -0.633  0.00  0.00    +0.002 C 
ATOM     10  C   UNL     1       4.930   1.535  -0.385  0.00  0.00    -0.053 C 
ENDBRANCH   8  10
ENDBRANCH   6   8
BRANCH   6  11
ATOM     11  C   UNL     1       3.817  -1.086  -0.152  0.00  0.00    -0.034 C 
BRANCH  11  12
ATOM     12  C   UNL     1       2.325  -0.881  -0.115  0.00  0.00    -0.025 A 
ATOM     13  C   UNL     1       1.339  -1.715  -0.528  0.00  0.00    +0.011 A 
ATOM     14  C   UNL     1       0.022  -1.313  -0.397  0.00  0.00    +0.028 A 
ATOM     15  C   UNL     1      -0.243  -0.097   0.141  0.00  0.00    +0.078 A 
ATOM     16  S   UNL     1       1.397   0.522   0.482  0.00  0.00    -0.084 S 
ATOM     17 CL   UNL     1      -1.778   0.664   0.419  0.00  0.00    -0.076 Cl
ENDBRANCH  11  12
ENDBRANCH   6  11
ENDBRANCH   5   6
ENDBRANCH   1   5
BRANCH   3  18
ATOM     18  C   UNL     1       7.801  -0.856  -4.833  0.00  0.00    +0.139 C 
BRANCH  18  19
ATOM     19  C   UNL     1       9.275  -1.125  -4.989  0.00  0.00    -0.030 A 
ATOM     20  C   UNL     1      10.182  -0.088  -4.877  0.00  0.00    +0.007 A 
ATOM     21  C   UNL     1      11.536  -0.335  -5.016  0.00  0.00    +0.029 A 
ATOM     22  C   UNL     1      11.981  -1.618  -5.275  0.00  0.00    +0.105 A 
ATOM     23  C   UNL     1      11.073  -2.654  -5.393  0.00  0.00    +0.029 A 
ATOM     24  C   UNL     1       9.720  -2.408  -5.250  0.00  0.00    +0.007 A 
BRANCH  22  25
ATOM     25  S   UNL     1      13.705  -1.932  -5.456  0.00  0.00    +0.056 S 
ATOM     26  O   UNL     1      14.382  -0.894  -4.761  0.00  0.00    -0.153 OA
ATOM     27  O   UNL     1      13.901  -3.307  -5.153  0.00  0.00    -0.153 OA
BRANCH  25  28
ATOM     28  N   UNL     1      14.071  -1.745  -7.061  0.00  0.00    -0.204 NA
ATOM     29  H   UNL     1      15.143  -1.934  -7.216  0.00  0.00    +0.144 HD
ATOM     30  H   UNL     1      13.830  -0.719  -7.374  0.00  0.00    +0.144 HD
ENDBRANCH  25  28
ENDBRANCH  22  25
ENDBRANCH  18  19
ENDBRANCH   3  18
TORSDOF 10
