REMARK  Name = ZINC04598688
REMARK  5 active torsions:
REMARK  status: ('A' for Active; 'I' for Inactive)
REMARK    1  A    between atoms: C_3  and  S_17
REMARK    2  A    between atoms: C_6  and  N_7
REMARK    3  A    between atoms: C_8  and  C_9
REMARK    4  A    between atoms: C_14  and  O_15
REMARK    5  A    between atoms: S_17  and  N_20
REMARK                            x       y       z     vdW  Elec       q    Type
REMARK                         _______ _______ _______ _____ _____    ______ ____
ROOT
ATOM      1  C   UNL     1      -2.211   2.172   3.701  0.00  0.00    +0.029 A 
ATOM      2  C   UNL     1      -1.408   1.653   2.707  0.00  0.00    +0.031 A 
ATOM      3  C   UNL     1      -0.629   2.494   1.933  0.00  0.00    +0.111 A 
ATOM      4  C   UNL     1      -0.644   3.860   2.153  0.00  0.00    +0.031 A 
ATOM      5  C   UNL     1      -1.447   4.394   3.140  0.00  0.00    +0.029 A 
ATOM      6  C   UNL     1      -2.236   3.551   3.925  0.00  0.00    +0.064 A 
ENDROOT
BRANCH   3   7
ATOM      7  S   UNL     1       0.394   1.822   0.665  0.00  0.00    +0.080 S 
ATOM      8  O   UNL     1       0.649   0.470   1.023  0.00  0.00    -0.148 OA
ATOM      9  O   UNL     1       1.437   2.761   0.444  0.00  0.00    -0.148 OA
BRANCH   7  10
ATOM     10  N   UNL     1      -0.509   1.782  -0.722  0.00  0.00    -0.228 N 
ATOM     11  C   UNL     1      -0.933   2.955  -1.301  0.00  0.00    +0.186 C 
ATOM     12  H   UNL     1      -0.876   4.980  -1.090  0.00  0.00    +0.159 HD
ATOM     13  N   UNL     1      -1.682   2.922  -2.453  0.00  0.00    -0.370 N 
ATOM     14  H   UNL     1      -0.739   0.931  -1.127  0.00  0.00    +0.191 HD
ATOM     15  H   UNL     1      -1.912   2.071  -2.858  0.00  0.00    +0.159 HD
ATOM     16  H   UNL     1      -1.981   3.749  -2.861  0.00  0.00    +0.159 HD
ATOM     17  N   UNL     1      -0.586   4.083  -0.699  0.00  0.00    -0.370 N 
ATOM     18  H   UNL     1      -0.024   4.056   0.160  0.00  0.00    +0.159 HD
ENDBRANCH   7  10
ENDBRANCH   3   7
BRANCH   6  19
ATOM     19  N   UNL     1      -3.031   4.073   4.910  0.00  0.00    -0.255 NA
ATOM     20  C   UNL     1      -2.558   4.982   5.716  0.00  0.00    +0.123 C 
BRANCH  20  21
ATOM     21  C   UNL     1      -3.411   5.543   6.773  0.00  0.00    +0.036 A 
ATOM     22  C   UNL     1      -2.908   6.518   7.641  0.00  0.00    +0.028 A 
ATOM     23  C   UNL     1      -3.714   7.040   8.630  0.00  0.00    +0.019 A 
ATOM     24  C   UNL     1      -5.022   6.601   8.769  0.00  0.00    +0.019 A 
ATOM     25  C   UNL     1      -5.532   5.639   7.919  0.00  0.00    +0.047 A 
ATOM     26  C   UNL     1      -4.738   5.107   6.915  0.00  0.00    +0.125 A 
ATOM     27 BR   UNL     1      -3.033   8.357   9.802  0.00  0.00    -0.050 Br
BRANCH  26  28
ATOM     28  O   UNL     1      -5.239   4.166   6.076  0.00  0.00    -0.506 OA
ATOM     29  H   UNL     1      -5.117   3.258   6.385  0.00  0.00    +0.292 HD
ENDBRANCH  26  28
ENDBRANCH  20  21
ENDBRANCH   6  19
TORSDOF 5
