REMARK  Name = ZINC63696501
REMARK  5 active torsions:
REMARK  status: ('A' for Active; 'I' for Inactive)
REMARK    1  A    between atoms: C_1  and  C_2
REMARK    2  A    between atoms: C_16  and  C_19
REMARK    3  A    between atoms: N_21  and  C_22
REMARK    4  A    between atoms: C_22  and  C_23
REMARK    5  A    between atoms: C_23  and  C_24
REMARK                            x       y       z     vdW  Elec       q    Type
REMARK                         _______ _______ _______ _____ _____    ______ ____
ROOT
ATOM      1  C   UNL     1      -0.018   1.503   0.010  0.00  0.00    +0.044 C 
ATOM      2  C   UNL     1       0.002  -0.004   0.002  0.00  0.00    -0.048 A 
ATOM      3  C   UNL     1       0.006  -0.686  -1.206  0.00  0.00    +0.005 A 
ATOM      4  C   UNL     1       0.025  -2.065  -1.230  0.00  0.00    +0.028 A 
ATOM      5  C   UNL     1       0.041  -2.776  -0.040  0.00  0.00    +0.065 A 
ATOM      6  C   UNL     1       0.037  -2.091   1.187  0.00  0.00    +0.066 A 
ATOM      7  C   UNL     1       0.023  -0.694   1.194  0.00  0.00    +0.031 A 
ATOM      8  N   UNL     1       0.055  -3.029   2.169  0.00  0.00    -0.327 N 
ATOM      9  C   UNL     1       0.069  -4.225   1.635  0.00  0.00    +0.174 A 
ATOM     10  N   UNL     1       0.061  -4.125   0.273  0.00  0.00    -0.327 N 
ATOM     11  H   UNL     1       0.068  -4.862  -0.357  0.00  0.00    +0.169 HD
ATOM     12  N   UNL     1       0.089  -5.409   2.343  0.00  0.00    -0.302 N 
ATOM     13  C   UNL     1       0.220  -6.695   1.646  0.00  0.00    +0.108 C 
ATOM     14  C   UNL     1       1.395  -7.468   2.253  0.00  0.00    +0.020 C 
ATOM     15  C   UNL     1       1.193  -7.590   3.765  0.00  0.00    +0.016 C 
ATOM     16  C   UNL     1       1.157  -6.194   4.391  0.00  0.00    +0.092 C 
ATOM     17  C   UNL     1      -0.014  -5.406   3.808  0.00  0.00    +0.120 C 
ATOM     18  H   UNL     1       0.057  -2.842   3.121  0.00  0.00    +0.169 HD
ENDROOT
BRANCH  16  19
ATOM     19  C   UNL     1       0.992  -6.316   5.884  0.00  0.00    +0.218 C 
ATOM     20  O   UNL     1       0.028  -5.820   6.430  0.00  0.00    -0.275 OA
ATOM     21  N   UNL     1       1.913  -6.976   6.613  0.00  0.00    -0.315 N 
ATOM     22  H   UNL     1       2.684  -7.372   6.176  0.00  0.00    +0.149 HD
BRANCH  21  23
ATOM     23  C   UNL     1       1.752  -7.094   8.064  0.00  0.00    +0.108 C 
BRANCH  23  24
ATOM     24  C   UNL     1       2.927  -7.884   8.645  0.00  0.00    +0.052 C 
BRANCH  24  25
ATOM     25  C   UNL     1       2.762  -8.006  10.138  0.00  0.00    -0.040 C 
ATOM     26  C   UNL     1       2.209  -9.039  10.813  0.00  0.00    -0.001 A 
ATOM     27  C   UNL     1       1.618 -10.310  10.376  0.00  0.00    +0.010 A 
ATOM     28  C   UNL     1       1.135 -11.163  11.307  0.00  0.00    +0.001 A 
ATOM     29  C   UNL     1       1.183 -10.865  12.676  0.00  0.00    +0.002 A 
ATOM     30  C   UNL     1       1.710  -9.718  13.154  0.00  0.00    +0.026 A 
ATOM     31  C   UNL     1       2.248  -8.748  12.264  0.00  0.00    +0.043 A 
ATOM     32  N   UNL     1       2.804  -7.580  12.477  0.00  0.00    -0.380 N 
ATOM     33  C   UNL     1       3.186  -7.000  11.185  0.00  0.00    +0.144 C 
ATOM     34  H   UNL     1       2.943  -7.170  13.345  0.00  0.00    +0.160 HD
ENDBRANCH  24  25
ENDBRANCH  23  24
ENDBRANCH  21  23
ENDBRANCH  16  19
TORSDOF 4
