REMARK  Name = ZINC67603816
REMARK  10 active torsions:
REMARK  status: ('A' for Active; 'I' for Inactive)
REMARK    1  A    between atoms: C_1  and  C_2
REMARK    2  A    between atoms: C_3  and  C_8
REMARK    3  A    between atoms: C_8  and  C_9
REMARK    4  A    between atoms: N_11  and  C_12
REMARK    5  A    between atoms: C_12  and  C_13
REMARK    6  A    between atoms: N_17  and  C_19
REMARK    7  A    between atoms: C_19  and  C_20
REMARK    8  A    between atoms: C_20  and  C_21
REMARK    9  A    between atoms: C_20  and  C_22
REMARK   10  A    between atoms: C_20  and  C_23
REMARK                            x       y       z     vdW  Elec       q    Type
REMARK                         _______ _______ _______ _____ _____    ______ ____
ROOT
ATOM      1  C   UNL     1       1.160   4.113  -4.559  0.00  0.00    +0.218 C 
ATOM      2  O   UNL     1       1.906   3.927  -3.620  0.00  0.00    -0.275 OA
ATOM      3  N   UNL     1       1.601   3.921  -5.818  0.00  0.00    -0.315 N 
ATOM      4  H   UNL     1       1.005   4.069  -6.569  0.00  0.00    +0.149 HD
ENDROOT
BRANCH   1   5
ATOM      5  C   UNL     1      -0.259   4.559  -4.317  0.00  0.00    +0.140 C 
BRANCH   5   8
ATOM      6  C   UNL     1       0.170   7.093  -2.574  0.00  0.00    +0.066 C 
ATOM      7  C   UNL     1      -0.326   5.777  -2.032  0.00  0.00    +0.051 A 
ATOM      8  C   UNL     1      -0.496   4.700  -2.836  0.00  0.00    +0.023 A 
ATOM      9  S   UNL     1      -1.078   3.492  -1.657  0.00  0.00    -0.057 S 
ATOM     10  C   UNL     1      -1.045   4.469  -0.286  0.00  0.00    +0.156 A 
ATOM     11  N   UNL     1      -0.608   5.621  -0.750  0.00  0.00    -0.230 NA
ATOM     12  N   UNL     1      -1.389   4.139   1.015  0.00  0.00    -0.338 N 
ATOM     13  H   UNL     1      -1.696   3.243   1.224  0.00  0.00    +0.144 HD
ATOM     14  H   UNL     1      -1.323   4.805   1.718  0.00  0.00    +0.144 HD
ENDBRANCH   5   8
ENDBRANCH   1   5
BRANCH   3  15
ATOM     15  C   UNL     1       2.980   3.486  -6.053  0.00  0.00    +0.105 C 
BRANCH  15  16
ATOM     16  C   UNL     1       3.221   3.344  -7.557  0.00  0.00    -0.012 C 
ATOM     17  C   UNL     1       2.395   2.166  -8.123  0.00  0.00    -0.016 C 
ATOM     18  C   UNL     1       3.365   1.524  -9.147  0.00  0.00    -0.079 C 
ATOM     19  N   UNL     1       4.689   1.647  -8.485  0.00  0.00    +0.380 N 
ATOM     20  C   UNL     1       4.691   2.976  -7.831  0.00  0.00    -0.074 C 
ATOM     21  H   UNL     1       4.802   0.919  -7.796  0.00  0.00    -0.082 HD
BRANCH  19  22
ATOM     22  C   UNL     1       5.763   1.574  -9.484  0.00  0.00    -0.073 C 
BRANCH  22  23
ATOM     23  C   UNL     1       5.963   0.119  -9.913  0.00  0.00    -0.052 C 
ATOM     24  C   UNL     1       4.727  -0.362 -10.676  0.00  0.00    +0.009 C 
ATOM     25  C   UNL     1       7.193   0.017 -10.817  0.00  0.00    +0.009 C 
ATOM     26  C   UNL     1       6.168  -0.755  -8.673  0.00  0.00    +0.009 C 
ENDBRANCH  22  23
ENDBRANCH  19  22
ENDBRANCH  15  16
ENDBRANCH   3  15
TORSDOF 6
