REMARK  Name = ZINC44900011
REMARK  8 active torsions:
REMARK  status: ('A' for Active; 'I' for Inactive)
REMARK    1  A    between atoms: C_1  and  C_2
REMARK    2  A    between atoms: N_6  and  C_7
REMARK    3  A    between atoms: C_12  and  C_13
REMARK    4  A    between atoms: C_13  and  N_14
REMARK    5  A    between atoms: C_15  and  C_17
REMARK    6  A    between atoms: N_22  and  S_24
REMARK    7  A    between atoms: S_24  and  C_27
REMARK    8  A    between atoms: C_27  and  C_28
REMARK                            x       y       z     vdW  Elec       q    Type
REMARK                         _______ _______ _______ _____ _____    ______ ____
ROOT
ATOM      1  N   UNL     1      -3.094  -0.619   1.998  0.00  0.00    -0.311 N 
ATOM      2  C   UNL     1      -4.226  -0.600   1.266  0.00  0.00    +0.218 C 
ATOM      3  O   UNL     1      -4.553   0.411   0.682  0.00  0.00    -0.275 OA
ATOM      4  H   UNL     1      -2.832  -1.428   2.465  0.00  0.00    +0.149 HD
ENDROOT
BRANCH   2   5
ATOM      5  C   UNL     1      -5.084  -1.835   1.174  0.00  0.00    +0.091 C 
ATOM      6  C   UNL     1      -5.558  -2.234   2.574  0.00  0.00    +0.015 C 
ATOM      7  C   UNL     1      -6.402  -3.507   2.485  0.00  0.00    +0.018 C 
ATOM      8  C   UNL     1      -7.635  -3.237   1.616  0.00  0.00    +0.109 C 
ATOM      9  N   UNL     1      -7.193  -2.715   0.316  0.00  0.00    -0.180 NA
ATOM     10  C   UNL     1      -6.302  -1.547   0.290  0.00  0.00    +0.121 C 
BRANCH   9  11
ATOM     11  S   UNL     1      -7.688  -3.429  -1.093  0.00  0.00    +0.036 S 
ATOM     12  O   UNL     1      -6.666  -3.125  -2.033  0.00  0.00    -0.158 OA
ATOM     13  O   UNL     1      -7.968  -4.776  -0.738  0.00  0.00    -0.158 OA
BRANCH  11  14
ATOM     14  C   UNL     1      -9.222  -2.568  -1.538  0.00  0.00    +0.223 C 
BRANCH  14  15
ATOM     15  C   UNL     1      -9.767  -3.144  -2.820  0.00  0.00    +0.012 A 
ATOM     16  C   UNL     1      -9.381  -2.610  -4.037  0.00  0.00    +0.047 A 
ATOM     17  C   UNL     1      -9.882  -3.139  -5.213  0.00  0.00    +0.020 A 
ATOM     18  C   UNL     1     -10.768  -4.199  -5.173  0.00  0.00    +0.003 A 
ATOM     19  C   UNL     1     -11.154  -4.732  -3.957  0.00  0.00    +0.020 A 
ATOM     20  C   UNL     1     -10.649  -4.209  -2.780  0.00  0.00    +0.047 A 
ATOM     21 CL   UNL     1     -11.127  -4.884  -1.254  0.00  0.00    -0.083 Cl
ATOM     22 CL   UNL     1      -8.270  -1.278  -4.087  0.00  0.00    -0.083 Cl
ENDBRANCH  14  15
ENDBRANCH  11  14
ENDBRANCH   9  11
ENDBRANCH   2   5
BRANCH   1  23
ATOM     23  C   UNL     1      -2.259   0.581   2.088  0.00  0.00    +0.141 C 
BRANCH  23  29
ATOM     24  C   UNL     1       0.030  -0.381   2.438  0.00  0.00    +0.052 A 
ATOM     25  C   UNL     1       1.133  -0.636   3.242  0.00  0.00    +0.026 A 
ATOM     26  C   UNL     1       1.137  -0.220   4.559  0.00  0.00    +0.002 A 
ATOM     27  C   UNL     1       0.044   0.452   5.076  0.00  0.00    +0.000 A 
ATOM     28  C   UNL     1      -1.055   0.707   4.278  0.00  0.00    +0.007 A 
ATOM     29  C   UNL     1      -1.063   0.297   2.959  0.00  0.00    -0.006 A 
BRANCH  24  35
ATOM     30  C   UNL     1      -0.018   1.503   0.010  0.00  0.00    +0.084 C 
ATOM     31  C   UNL     1       0.002  -0.004   0.002  0.00  0.00    +0.088 A 
ATOM     32  N   UNL     1       0.008  -0.760  -1.062  0.00  0.00    -0.350 N 
ATOM     33  C   UNL     1       0.027  -2.049  -0.691  0.00  0.00    +0.102 A 
ATOM     34  C   UNL     1       0.033  -2.099   0.655  0.00  0.00    +0.110 A 
ATOM     35  N   UNL     1       0.023  -0.803   1.100  0.00  0.00    -0.305 N 
ATOM     36  H   UNL     1      -0.000  -0.440  -1.978  0.00  0.00    +0.166 HD
ENDBRANCH  24  35
ENDBRANCH  23  29
ENDBRANCH   1  23
TORSDOF 7
