REMARK  Name = ZINC33660875
REMARK  11 active torsions:
REMARK  status: ('A' for Active; 'I' for Inactive)
REMARK    1  A    between atoms: C_1  and  C_2
REMARK    2  A    between atoms: C_2  and  C_3
REMARK    3  A    between atoms: C_3  and  C_4
REMARK    4  A    between atoms: C_4  and  C_5
REMARK    5  A    between atoms: C_5  and  C_7
REMARK    6  A    between atoms: C_5  and  N_26
REMARK    7  A    between atoms: C_9  and  C_12
REMARK    8  A    between atoms: N_14  and  C_15
REMARK    9  A    between atoms: C_15  and  C_16
REMARK   10  A    between atoms: C_16  and  C_17
REMARK   11  A    between atoms: C_20  and  N_23
REMARK                            x       y       z     vdW  Elec       q    Type
REMARK                         _______ _______ _______ _____ _____    ______ ____
ROOT
ATOM      1  C   UNL     1       1.147   1.655   0.000  0.00  0.00    +0.266 C 
ATOM      2  O   UNL     1       1.130   2.872   0.007  0.00  0.00    -0.268 OA
ATOM      3  N   UNL     1      -0.011   0.966   0.007  0.00  0.00    -0.310 N 
ATOM      4  H   UNL     1       0.004  -0.134   0.006  0.00  0.00    +0.149 HD
ENDROOT
BRANCH   1   7
ATOM      5  C   UNL     1       3.879  -0.667  -0.038  0.00  0.00    +0.182 A 
ATOM      6  N   UNL     1       2.604  -0.414  -0.025  0.00  0.00    -0.210 NA
ATOM      7  C   UNL     1       2.433   0.936  -0.016  0.00  0.00    +0.163 A 
ATOM      8  C   UNL     1       3.673   1.497  -0.031  0.00  0.00    +0.230 A 
ATOM      9  O   UNL     1       4.559   0.488  -0.039  0.00  0.00    -0.449 OA
BRANCH   5  10
ATOM     10  C   UNL     1       4.495  -2.043  -0.051  0.00  0.00    +0.013 C 
BRANCH  10  11
ATOM     11  N   UNL     1       5.579  -2.085  -1.041  0.00  0.00    +0.386 N 
ATOM     12  H   UNL     1       5.175  -1.855  -2.038  0.00  0.00    -0.089 HD
ATOM     13  H   UNL     1       6.029  -3.088  -1.050  0.00  0.00    -0.089 HD
ATOM     14  H   UNL     1       6.346  -1.342  -0.776  0.00  0.00    -0.089 HD
ENDBRANCH  10  11
BRANCH  10  15
ATOM     15  C   UNL     1       5.057  -2.362   1.335  0.00  0.00    -0.007 C 
BRANCH  15  16
ATOM     16  C   UNL     1       5.571  -3.803   1.358  0.00  0.00    -0.001 C 
BRANCH  16  18
ATOM     17  C   UNL     1       6.646  -5.564   2.767  0.00  0.00    +0.004 C 
ATOM     18  C   UNL     1       6.133  -4.123   2.744  0.00  0.00    -0.003 C 
ENDBRANCH  16  18
ENDBRANCH  15  16
ENDBRANCH  10  15
ENDBRANCH   5  10
ENDBRANCH   1   7
BRANCH   3  19
ATOM     19  C   UNL     1      -1.290   1.681   0.017  0.00  0.00    +0.109 C 
BRANCH  19  20
ATOM     20  C   UNL     1      -2.439   0.671   0.017  0.00  0.00    +0.054 C 
BRANCH  20  21
ATOM     21  C   UNL     1      -3.754   1.407   0.028  0.00  0.00    -0.046 A 
ATOM     22  C   UNL     1      -4.354   1.733   1.229  0.00  0.00    +0.006 A 
ATOM     23  C   UNL     1      -5.559   2.411   1.239  0.00  0.00    +0.033 A 
ATOM     24  C   UNL     1      -6.167   2.756   0.046  0.00  0.00    +0.126 A 
ATOM     25  C   UNL     1      -5.569   2.425  -1.155  0.00  0.00    +0.033 A 
ATOM     26  C   UNL     1      -4.363   1.751  -1.165  0.00  0.00    +0.006 A 
BRANCH  24  27
ATOM     27  N   UNL     1      -7.459   3.478   0.056  0.00  0.00    +0.056 N 
ATOM     28  O   UNL     1      -7.995   3.782  -0.994  0.00  0.00    -0.126 OA
ATOM     29  O   UNL     1      -7.986   3.769   1.115  0.00  0.00    -0.126 OA
ENDBRANCH  24  27
ENDBRANCH  20  21
ENDBRANCH  19  20
ENDBRANCH   3  19
TORSDOF 10
