REMARK  Name = ZINC59399318
REMARK  8 active torsions:
REMARK  status: ('A' for Active; 'I' for Inactive)
REMARK    1  A    between atoms: C_3  and  N_27
REMARK    2  A    between atoms: C_5  and  N_7
REMARK    3  A    between atoms: N_7  and  C_8
REMARK    4  A    between atoms: C_8  and  N_10
REMARK    5  A    between atoms: C_11  and  C_13
REMARK    6  A    between atoms: C_14  and  C_15
REMARK    7  A    between atoms: C_18  and  C_20
REMARK    8  A    between atoms: C_28  and  C_30
REMARK                            x       y       z     vdW  Elec       q    Type
REMARK                         _______ _______ _______ _____ _____    ______ ____
ROOT
ATOM      1  C   UNL     1      -0.643  -2.486  -0.418  0.00  0.00    +0.141 C 
ATOM      2  S   UNL     1      -1.871  -1.352  -0.790  0.00  0.00    -0.018 S 
ENDROOT
BRANCH   1   3
ATOM      3  N   UNL     1      -0.930  -3.803  -0.388  0.00  0.00    -0.264 N 
ATOM      4  C   UNL     1      -2.182  -4.227  -0.650  0.00  0.00    +0.242 C 
ATOM      5  O   UNL     1      -3.055  -3.420  -0.915  0.00  0.00    -0.270 OA
ATOM      6  H   UNL     1      -0.234  -4.446  -0.178  0.00  0.00    +0.157 HD
BRANCH   4   7
ATOM      7  C   UNL     1      -2.482  -5.607  -0.619  0.00  0.00    +0.071 C 
ATOM      8  C   UNL     1      -3.745  -6.034  -0.884  0.00  0.00    +0.051 C 
BRANCH   8   9
ATOM      9  C   UNL     1      -4.045  -7.414  -0.852  0.00  0.00    +0.129 A 
ATOM     10  C   UNL     1      -5.280  -7.981  -1.106  0.00  0.00    +0.050 A 
ATOM     11  C   UNL     1      -5.127  -9.363  -0.967  0.00  0.00    +0.050 A 
ATOM     12  C   UNL     1      -3.810  -9.590  -0.634  0.00  0.00    +0.136 A 
ATOM     13  O   UNL     1      -3.174  -8.407  -0.575  0.00  0.00    -0.455 OA
BRANCH  12  14
ATOM     14  C   UNL     1      -3.199 -10.911  -0.390  0.00  0.00    +0.017 A 
ATOM     15  C   UNL     1      -3.970 -12.071  -0.495  0.00  0.00    +0.013 A 
ATOM     16  C   UNL     1      -3.393 -13.302  -0.265  0.00  0.00    +0.021 A 
ATOM     17  C   UNL     1      -2.051 -13.390   0.068  0.00  0.00    +0.041 A 
ATOM     18  C   UNL     1      -1.281 -12.244   0.173  0.00  0.00    +0.021 A 
ATOM     19  C   UNL     1      -1.845 -11.007  -0.059  0.00  0.00    +0.013 A 
ATOM     20 CL   UNL     1      -1.332 -14.944   0.355  0.00  0.00    -0.084 Cl
ENDBRANCH  12  14
ENDBRANCH   8   9
ENDBRANCH   4   7
ENDBRANCH   1   3
BRANCH   1  21
ATOM     21  N   UNL     1       0.609  -2.063  -0.156  0.00  0.00    -0.297 N 
ATOM     22  H   UNL     1       1.321  -2.708  -0.024  0.00  0.00    +0.154 HD
BRANCH  21  27
ATOM     23  C   UNL     1       2.307   1.174  -0.567  0.00  0.00    +0.004 A 
ATOM     24  C   UNL     1       1.429   2.019   0.085  0.00  0.00    +0.023 A 
ATOM     25  C   UNL     1       0.272   1.510   0.661  0.00  0.00    +0.036 A 
ATOM     26  C   UNL     1      -0.002   0.152   0.582  0.00  0.00    +0.046 A 
ATOM     27  C   UNL     1       0.881  -0.693  -0.074  0.00  0.00    +0.034 A 
ATOM     28  C   UNL     1       2.037  -0.178  -0.648  0.00  0.00    +0.023 A 
BRANCH  25  29
ATOM     29  N   UNL     1      -0.616   2.366   1.322  0.00  0.00    -0.279 N 
ATOM     30  C   UNL     1      -1.278   1.937   2.414  0.00  0.00    +0.284 C 
ATOM     31  O   UNL     1      -1.165   0.782   2.780  0.00  0.00    -0.266 OA
ATOM     32  H   UNL     1      -0.754   3.268   0.993  0.00  0.00    +0.155 HD
BRANCH  30  33
ATOM     33  C   UNL     1      -2.134   2.863   3.163  0.00  0.00    +0.189 A 
ATOM     34  C   UNL     1      -2.852   2.562   4.285  0.00  0.00    +0.054 A 
ATOM     35  C   UNL     1      -3.521   3.737   4.662  0.00  0.00    +0.042 A 
ATOM     36  C   UNL     1      -3.186   4.691   3.766  0.00  0.00    +0.196 A 
ATOM     37  O   UNL     1      -2.345   4.162   2.868  0.00  0.00    -0.458 OA
ENDBRANCH  30  33
ENDBRANCH  25  29
ENDBRANCH  21  27
ENDBRANCH   1  21
TORSDOF 8
