REMARK  Name = ZINC09616913
REMARK  9 active torsions:
REMARK  status: ('A' for Active; 'I' for Inactive)
REMARK    1  A    between atoms: C_1  and  C_2
REMARK    2  A    between atoms: C_2  and  C_4
REMARK    3  A    between atoms: C_2  and  N_60
REMARK    4  A    between atoms: N_6  and  C_7
REMARK    5  A    between atoms: C_8  and  C_15
REMARK    6  A    between atoms: C_18  and  N_60
REMARK    7  A    between atoms: C_19  and  C_20
REMARK    8  A    between atoms: C_19  and  N_60
REMARK    9  A    between atoms: C_25  and  N_26
REMARK                            x       y       z     vdW  Elec       q    Type
REMARK                         _______ _______ _______ _____ _____    ______ ____
ROOT
ATOM      1  C   UNL     1      -0.794   2.303  -4.575  0.00  0.00    -0.004 C 
ATOM      2  C   UNL     1      -2.279   1.996  -4.787  0.00  0.00    +0.016 C 
ENDROOT
BRANCH   2   3
ATOM      3  C   UNL     1      -3.019   2.179  -3.487  0.00  0.00    +0.204 C 
ATOM      4  O   UNL     1      -3.917   2.991  -3.409  0.00  0.00    -0.277 OA
ATOM      5  N   UNL     1      -2.684   1.440  -2.411  0.00  0.00    -0.281 N 
ATOM      6  H   UNL     1      -1.966   0.790  -2.473  0.00  0.00    +0.155 HD
BRANCH   5   7
ATOM      7  C   UNL     1      -3.366   1.608  -1.215  0.00  0.00    +0.084 A 
ATOM      8  C   UNL     1      -3.170   0.949  -0.013  0.00  0.00    +0.068 A 
ATOM      9  C   UNL     1      -4.028   1.321   1.111  0.00  0.00    -0.023 A 
ATOM     10  C   UNL     1      -4.934   2.279   0.844  0.00  0.00    -0.004 A 
ATOM     11  S   UNL     1      -4.669   2.690  -0.863  0.00  0.00    -0.077 S 
ATOM     12  C   UNL     1      -5.775   2.609   2.048  0.00  0.00    +0.043 C 
ATOM     13  C   UNL     1      -4.990   2.027   3.244  0.00  0.00    +0.010 C 
ATOM     14  C   UNL     1      -4.187   0.896   2.571  0.00  0.00    +0.037 C 
BRANCH   8  15
ATOM     15  C   UNL     1      -2.135  -0.080   0.129  0.00  0.00    +0.244 C 
ATOM     16  O   UNL     1      -2.400  -1.246  -0.098  0.00  0.00    -0.270 OA
ATOM     17  N   UNL     1      -0.888   0.267   0.506  0.00  0.00    -0.325 N 
ATOM     18  H   UNL     1      -0.202  -0.413   0.597  0.00  0.00    +0.145 HD
ATOM     19  H   UNL     1      -0.676   1.196   0.688  0.00  0.00    +0.145 HD
ENDBRANCH   8  15
ENDBRANCH   5   7
ENDBRANCH   2   3
BRANCH   2  21
ATOM     20  C   UNL     1      -2.565   4.311  -5.437  0.00  0.00    -0.095 C 
ATOM     21  N   UNL     1      -2.857   2.908  -5.797  0.00  0.00    +0.388 N 
ATOM     22  H   UNL     1      -3.874   2.775  -5.822  0.00  0.00    -0.081 HD
BRANCH  21  23
ATOM     23  C   UNL     1      -2.299   2.601  -7.131  0.00  0.00    -0.040 C 
BRANCH  23  24
ATOM     24  C   UNL     1      -3.144   3.283  -8.177  0.00  0.00    -0.043 A 
ATOM     25  C   UNL     1      -2.651   4.379  -8.858  0.00  0.00    +0.003 A 
ATOM     26  C   UNL     1      -3.425   5.004  -9.818  0.00  0.00    +0.000 A 
ATOM     27  C   UNL     1      -4.695   4.534 -10.100  0.00  0.00    +0.002 A 
ATOM     28  C   UNL     1      -5.194   3.439  -9.423  0.00  0.00    +0.023 A 
ATOM     29  C   UNL     1      -4.417   2.805  -8.461  0.00  0.00    +0.031 A 
BRANCH  29  30
ATOM     30  N   UNL     1      -4.917   1.694  -7.779  0.00  0.00    -0.330 N 
ATOM     31  C   UNL     1      -6.324   1.420  -8.166  0.00  0.00    +0.105 C 
ATOM     32  C   UNL     1      -6.521  -0.063  -7.761  0.00  0.00    +0.020 C 
ATOM     33  C   UNL     1      -5.155  -0.700  -8.107  0.00  0.00    +0.020 C 
ATOM     34  C   UNL     1      -4.158   0.473  -8.126  0.00  0.00    +0.105 C 
ENDBRANCH  29  30
ENDBRANCH  23  24
ENDBRANCH  21  23
ENDBRANCH   2  21
TORSDOF 7
