REMARK  Name = ZINC43052016
REMARK  8 active torsions:
REMARK  status: ('A' for Active; 'I' for Inactive)
REMARK    1  A    between atoms: C_1  and  C_2
REMARK    2  A    between atoms: C_2  and  C_4
REMARK    3  A    between atoms: C_2  and  N_22
REMARK    4  A    between atoms: C_4  and  C_6
REMARK    5  A    between atoms: C_4  and  N_13
REMARK    6  A    between atoms: N_13  and  C_14
REMARK    7  A    between atoms: N_13  and  C_15
REMARK    8  A    between atoms: C_15  and  C_16
REMARK                            x       y       z     vdW  Elec       q    Type
REMARK                         _______ _______ _______ _____ _____    ______ ____
ROOT
ATOM      1  C   UNL     1       1.018  -0.212   1.313  0.00  0.00    +0.073 C 
ENDROOT
BRANCH   1   2
ATOM      2  C   UNL     1       0.498   0.602   2.470  0.00  0.00    -0.014 A 
ATOM      3  C   UNL     1      -0.277   0.001   3.445  0.00  0.00    +0.006 A 
ATOM      4  C   UNL     1      -0.754   0.748   4.506  0.00  0.00    +0.000 A 
ATOM      5  C   UNL     1      -0.457   2.095   4.593  0.00  0.00    +0.001 A 
ATOM      6  C   UNL     1       0.317   2.697   3.619  0.00  0.00    +0.020 A 
ATOM      7  C   UNL     1       0.800   1.949   2.560  0.00  0.00    +0.046 A 
ATOM      8 CL   UNL     1       1.778   2.702   1.339  0.00  0.00    -0.083 Cl
ENDBRANCH   1   2
BRANCH   1  10
ATOM      9  C   UNL     1      -1.292  -0.865   0.620  0.00  0.00    -0.012 C 
ATOM     10  C   UNL     1       0.001  -0.182   0.171  0.00  0.00    -0.056 C 
BRANCH  10  11
ATOM     11  N   UNL     1      -0.282   1.212  -0.196  0.00  0.00    +0.381 N 
ATOM     12  H   UNL     1      -0.610   1.713   0.617  0.00  0.00    -0.090 HD
ATOM     13  H   UNL     1       0.559   1.647  -0.542  0.00  0.00    -0.090 HD
ATOM     14  H   UNL     1      -0.992   1.234  -0.913  0.00  0.00    -0.090 HD
ENDBRANCH  10  11
ENDBRANCH   1  10
BRANCH   1  15
ATOM     15  N   UNL     1       1.226  -1.601   1.746  0.00  0.00    -0.298 NA
ATOM     16  C   UNL     1       2.201  -1.669   2.843  0.00  0.00    +0.105 C 
BRANCH  15  17
ATOM     17  C   UNL     1       1.642  -2.447   0.620  0.00  0.00    +0.116 C 
BRANCH  17  18
ATOM     18  C   UNL     1       1.538  -3.919   1.022  0.00  0.00    +0.132 C 
ATOM     19  C   UNL     1       2.086  -4.812  -0.112  0.00  0.00    +0.035 C 
ATOM     20  C   UNL     1       1.094  -6.006  -0.100  0.00  0.00    +0.031 C 
ATOM     21  C   UNL     1      -0.224  -5.289   0.289  0.00  0.00    +0.160 C 
ATOM     22  O   UNL     1       0.166  -4.271   1.228  0.00  0.00    -0.375 OA
ENDBRANCH  17  18
ENDBRANCH  15  17
ENDBRANCH   1  15
TORSDOF 6
