REMARK  Name = ZINC42177437
REMARK  8 active torsions:
REMARK  status: ('A' for Active; 'I' for Inactive)
REMARK    1  A    between atoms: C_1  and  C_2
REMARK    2  A    between atoms: N_10  and  C_24
REMARK    3  A    between atoms: C_11  and  S_13
REMARK    4  A    between atoms: S_13  and  C_14
REMARK    5  A    between atoms: C_14  and  C_15
REMARK    6  A    between atoms: N_20  and  C_21
REMARK    7  A    between atoms: C_21  and  C_22
REMARK    8  A    between atoms: C_21  and  C_23
REMARK                            x       y       z     vdW  Elec       q    Type
REMARK                         _______ _______ _______ _____ _____    ______ ____
ROOT
ATOM      1  C   UNL     1      -0.018   1.503   0.010  0.00  0.00    +0.044 C 
ATOM      2  C   UNL     1       0.002  -0.004   0.002  0.00  0.00    -0.050 A 
ATOM      3  C   UNL     1       0.006  -0.684  -1.209  0.00  0.00    +0.005 A 
ATOM      4  C   UNL     1       0.024  -2.050  -1.248  0.00  0.00    +0.029 A 
ATOM      5  C   UNL     1       0.039  -2.776  -0.054  0.00  0.00    +0.079 A 
ATOM      6  C   UNL     1       0.036  -2.081   1.176  0.00  0.00    +0.065 A 
ATOM      7  C   UNL     1       0.023  -0.687   1.187  0.00  0.00    +0.018 A 
ATOM      8  C   UNL     1       0.053  -2.866   2.418  0.00  0.00    +0.262 A 
ATOM      9  O   UNL     1       0.051  -2.325   3.508  0.00  0.00    -0.267 OA
ATOM     10  N   UNL     1       0.071  -4.215   2.304  0.00  0.00    -0.290 N 
ATOM     11  C   UNL     1       0.072  -4.805   1.072  0.00  0.00    +0.172 A 
ATOM     12  N   UNL     1       0.057  -4.125  -0.047  0.00  0.00    -0.223 NA
ATOM     13  C   UNL     1       0.089  -5.046   3.510  0.00  0.00    +0.154 C 
ENDROOT
BRANCH  11  14
ATOM     14  S   UNL     1       0.097  -6.565   0.985  0.00  0.00    -0.078 S 
BRANCH  14  15
ATOM     15  C   UNL     1       0.092  -6.916  -0.795  0.00  0.00    +0.173 C 
BRANCH  15  16
ATOM     16  C   UNL     1       0.112  -8.407  -1.013  0.00  0.00    +0.231 C 
ATOM     17  O   UNL     1       0.127  -9.159  -0.062  0.00  0.00    -0.274 OA
ATOM     18  N   UNL     1       0.112  -8.905  -2.265  0.00  0.00    -0.239 N 
ATOM     19  C   UNL     1       0.129 -10.238  -2.460  0.00  0.00    +0.306 C 
ATOM     20  O   UNL     1       0.145 -10.992  -1.507  0.00  0.00    -0.252 OA
ATOM     21  N   UNL     1       0.130 -10.736  -3.713  0.00  0.00    -0.297 N 
ATOM     22  H   UNL     1       0.099  -8.304  -3.026  0.00  0.00    +0.159 HD
ATOM     23  H   UNL     1       0.117 -10.135  -4.474  0.00  0.00    +0.151 HD
BRANCH  21  24
ATOM     24  C   UNL     1       0.149 -12.186  -3.925  0.00  0.00    +0.068 C 
ATOM     25  C   UNL     1      -1.281 -12.729  -3.866  0.00  0.00    +0.027 C 
ATOM     26  C   UNL     1       0.755 -12.493  -5.295  0.00  0.00    +0.027 C 
ENDBRANCH  21  24
ENDBRANCH  15  16
ENDBRANCH  14  15
ENDBRANCH  11  14
TORSDOF 4
