REMARK  Name = ZINC09142395
REMARK  11 active torsions:
REMARK  status: ('A' for Active; 'I' for Inactive)
REMARK    1  A    between atoms: C_1  and  C_2
REMARK    2  A    between atoms: C_6  and  C_10
REMARK    3  A    between atoms: C_7  and  O_8
REMARK    4  A    between atoms: O_8  and  C_9
REMARK    5  A    between atoms: N_12  and  C_13
REMARK    6  A    between atoms: C_13  and  N_15
REMARK    7  A    between atoms: C_18  and  C_21
REMARK    8  A    between atoms: C_24  and  O_29
REMARK    9  A    between atoms: C_25  and  O_27
REMARK   10  A    between atoms: O_27  and  C_28
REMARK   11  A    between atoms: O_29  and  C_30
REMARK                            x       y       z     vdW  Elec       q    Type
REMARK                         _______ _______ _______ _____ _____    ______ ____
ROOT
ATOM      1  N   UNL     1       3.607  -0.465  -0.035  0.00  0.00    -0.276 N 
ATOM      2  C   UNL     1       2.307   0.024  -0.020  0.00  0.00    +0.164 A 
ATOM      3  N   UNL     1       1.165  -0.638  -0.013  0.00  0.00    -0.225 NA
ATOM      4  C   UNL     1       0.002  -0.004   0.002  0.00  0.00    +0.080 A 
ATOM      5  C   UNL     1      -0.017   1.363   0.009  0.00  0.00    +0.076 A 
ATOM      6  S   UNL     1       1.736   1.718  -0.005  0.00  0.00    -0.060 S 
ATOM      7  H   UNL     1       3.765  -1.422  -0.042  0.00  0.00    +0.156 HD
ENDROOT
BRANCH   4   8
ATOM      8  C   UNL     1      -1.268  -0.770   0.011  0.00  0.00    +0.005 A 
ATOM      9  C   UNL     1      -2.487  -0.101  -0.079  0.00  0.00    +0.014 A 
ATOM     10  C   UNL     1      -3.669  -0.814  -0.072  0.00  0.00    +0.050 A 
ATOM     11  C   UNL     1      -3.647  -2.197   0.024  0.00  0.00    +0.162 A 
ATOM     12  C   UNL     1      -2.432  -2.871   0.115  0.00  0.00    +0.162 A 
ATOM     13  C   UNL     1      -1.244  -2.160   0.102  0.00  0.00    +0.059 A 
BRANCH  12  14
ATOM     14  O   UNL     1      -2.412  -4.227   0.209  0.00  0.00    -0.491 OA
ATOM     15  C   UNL     1      -1.130  -4.853   0.299  0.00  0.00    +0.277 C 
ENDBRANCH  12  14
BRANCH  11  16
ATOM     16  O   UNL     1      -4.813  -2.896   0.030  0.00  0.00    -0.491 OA
ATOM     17  C   UNL     1      -6.022  -2.141  -0.065  0.00  0.00    +0.277 C 
ENDBRANCH  11  16
ENDBRANCH   4   8
BRANCH   1  18
ATOM     18  C   UNL     1       4.648   0.390  -0.041  0.00  0.00    +0.143 C 
ATOM     19  S   UNL     1       4.370   2.079  -0.028  0.00  0.00    -0.018 S 
BRANCH  18  22
ATOM     20  C   UNL     1       6.952   0.770  -0.061  0.00  0.00    +0.253 C 
ATOM     21  O   UNL     1       6.753   1.970  -0.052  0.00  0.00    -0.270 OA
ATOM     22  N   UNL     1       5.910  -0.085  -0.056  0.00  0.00    -0.263 N 
ATOM     23  H   UNL     1       6.068  -1.042  -0.062  0.00  0.00    +0.157 HD
BRANCH  20  29
ATOM     24  C   UNL     1      11.884   1.584  -0.106  0.00  0.00    +0.047 C 
ATOM     25  C   UNL     1      10.712   0.637  -0.100  0.00  0.00    -0.008 A 
ATOM     26  C   UNL     1      10.927  -0.727  -0.109  0.00  0.00    +0.007 A 
ATOM     27  C   UNL     1       9.856  -1.605  -0.103  0.00  0.00    +0.001 A 
ATOM     28  C   UNL     1       8.564  -1.127  -0.087  0.00  0.00    +0.017 A 
ATOM     29  C   UNL     1       8.331   0.251  -0.077  0.00  0.00    +0.079 A 
ATOM     30  C   UNL     1       9.418   1.137  -0.089  0.00  0.00    +0.135 A 
BRANCH  30  31
ATOM     31  O   UNL     1       9.205   2.477  -0.084  0.00  0.00    -0.494 OA
ATOM     32  C   UNL     1       9.118   3.116   1.191  0.00  0.00    +0.277 C 
ENDBRANCH  30  31
ENDBRANCH  20  29
ENDBRANCH  18  22
ENDBRANCH   1  18
TORSDOF 7
