REMARK  Name = ZINC20759087
REMARK  10 active torsions:
REMARK  status: ('A' for Active; 'I' for Inactive)
REMARK    1  A    between atoms: C_1  and  C_2
REMARK    2  A    between atoms: C_2  and  C_3
REMARK    3  A    between atoms: C_3  and  C_5
REMARK    4  A    between atoms: C_3  and  N_6
REMARK    5  A    between atoms: C_7  and  C_9
REMARK    6  A    between atoms: C_9  and  S_10
REMARK    7  A    between atoms: S_10  and  C_11
REMARK    8  A    between atoms: C_15  and  C_19
REMARK    9  A    between atoms: N_22  and  C_23
REMARK   10  A    between atoms: C_28  and  C_29
REMARK                            x       y       z     vdW  Elec       q    Type
REMARK                         _______ _______ _______ _____ _____    ______ ____
ROOT
ATOM      1  C   UNL     1      -2.526   7.605   2.993  0.00  0.00    +0.177 A 
ATOM      2  N   UNL     1      -1.473   8.008   2.324  0.00  0.00    -0.201 NA
ATOM      3  C   UNL     1      -1.146   9.304   2.211  0.00  0.00    +0.187 A 
ATOM      4  C   UNL     1      -1.947  10.277   2.823  0.00  0.00    +0.082 A 
ATOM      5  C   UNL     1      -1.374  11.530   2.542  0.00  0.00    +0.046 A 
ATOM      6  N   UNL     1      -0.303  11.339   1.820  0.00  0.00    -0.279 N 
ATOM      7  N   UNL     1      -0.134   9.969   1.589  0.00  0.00    -0.153 NA
ATOM      8  H   UNL     1       0.301  12.199   1.496  0.00  0.00    +0.189 HD
ATOM      9  C   UNL     1      -1.902  12.864   3.002  0.00  0.00    +0.066 C 
ATOM     10  C   UNL     1      -3.128   9.834   3.575  0.00  0.00    +0.124 A 
ATOM     11  N   UNL     1      -3.918  10.693   4.173  0.00  0.00    -0.384 N 
ATOM     12  N   UNL     1      -3.374   8.471   3.629  0.00  0.00    -0.274 N 
ATOM     13  H   UNL     1      -4.797  10.337   4.730  0.00  0.00    +0.157 HD
ATOM     14  H   UNL     1      -3.702  11.770   4.116  0.00  0.00    +0.157 HD
ENDROOT
BRANCH  12  15
ATOM     15  C   UNL     1      -4.484   7.982   4.329  0.00  0.00    +0.055 A 
ATOM     16  C   UNL     1      -4.371   7.659   5.675  0.00  0.00    +0.026 A 
ATOM     17  C   UNL     1      -5.467   7.177   6.363  0.00  0.00    +0.003 A 
ATOM     18  C   UNL     1      -6.677   7.016   5.714  0.00  0.00    +0.020 A 
ATOM     19  C   UNL     1      -6.794   7.337   4.373  0.00  0.00    +0.046 A 
ATOM     20  C   UNL     1      -5.702   7.826   3.680  0.00  0.00    -0.008 A 
ATOM     21  C   UNL     1      -5.831   8.182   2.222  0.00  0.00    +0.047 C 
ATOM     22 CL   UNL     1      -8.315   7.134   3.562  0.00  0.00    -0.083 Cl
ENDBRANCH  12  15
BRANCH   1  23
ATOM     23  S   UNL     1      -2.862   5.878   3.079  0.00  0.00    -0.078 S 
BRANCH  23  24
ATOM     24  C   UNL     1      -1.478   5.239   2.104  0.00  0.00    +0.173 C 
BRANCH  24  26
ATOM     25  N   UNL     1      -0.628   3.038   1.360  0.00  0.00    -0.312 N 
ATOM     26  C   UNL     1      -1.561   3.736   2.039  0.00  0.00    +0.224 C 
ATOM     27  O   UNL     1      -2.467   3.154   2.596  0.00  0.00    -0.275 OA
ATOM     28  H   UNL     1       0.194   3.566   0.855  0.00  0.00    +0.149 HD
BRANCH  25  29
ATOM     29  C   UNL     1      -0.709   1.577   1.297  0.00  0.00    +0.070 C 
ATOM     30  C   UNL     1      -0.046   0.975   2.537  0.00  0.00    +0.028 C 
BRANCH  29  32
ATOM     31  C   UNL     1      -0.726   1.581  -1.202  0.00  0.00    +0.005 C 
ATOM     32  C   UNL     1       0.012   1.080   0.042  0.00  0.00    +0.018 C 
ENDBRANCH  29  32
ENDBRANCH  25  29
ENDBRANCH  24  26
ENDBRANCH  23  24
ENDBRANCH   1  23
TORSDOF 6
