REMARK  Name = ZINC08453120
REMARK  13 active torsions:
REMARK  status: ('A' for Active; 'I' for Inactive)
REMARK    1  A    between atoms: C_1  and  C_2
REMARK    2  A    between atoms: C_2  and  O_3
REMARK    3  A    between atoms: O_3  and  C_4
REMARK    4  A    between atoms: C_7  and  C_13
REMARK    5  A    between atoms: C_9  and  O_10
REMARK    6  A    between atoms: O_10  and  C_11
REMARK    7  A    between atoms: C_11  and  C_12
REMARK    8  A    between atoms: C_13  and  C_15
REMARK    9  A    between atoms: C_13  and  N_27
REMARK   10  A    between atoms: C_21  and  C_26
REMARK   11  A    between atoms: C_24  and  O_25
REMARK   12  A    between atoms: N_27  and  C_28
REMARK   13  A    between atoms: C_30  and  C_33
REMARK                            x       y       z     vdW  Elec       q    Type
REMARK                         _______ _______ _______ _____ _____    ______ ____
ROOT
ATOM      1  C   UNL     1       4.931   4.013  -0.002  0.00  0.00    +0.136 C 
ENDROOT
BRANCH   1   2
ATOM      2  C   UNL     1       3.812   3.031  -0.240  0.00  0.00    +0.021 A 
ATOM      3  C   UNL     1       4.076   1.665  -0.182  0.00  0.00    +0.010 A 
ATOM      4  C   UNL     1       3.087   0.752  -0.392  0.00  0.00    +0.010 A 
ATOM      5  C   UNL     1       1.782   1.191  -0.671  0.00  0.00    +0.004 A 
ATOM      6  C   UNL     1       0.734   0.277  -0.893  0.00  0.00    +0.012 A 
ATOM      7  C   UNL     1      -0.508   0.775  -1.165  0.00  0.00    +0.023 A 
ATOM      8  C   UNL     1      -0.711   2.153  -1.206  0.00  0.00    +0.039 A 
ATOM      9  N   UNL     1       0.268   3.000  -0.997  0.00  0.00    -0.248 NA
ATOM     10  C   UNL     1       1.507   2.579  -0.731  0.00  0.00    +0.113 A 
ATOM     11  C   UNL     1       2.557   3.495  -0.509  0.00  0.00    +0.148 A 
ATOM     12  C   UNL     1      -2.090   2.683  -1.502  0.00  0.00    +0.065 C 
BRANCH  11  13
ATOM     13  O   UNL     1       2.318   4.831  -0.561  0.00  0.00    -0.504 OA
ATOM     14  H   UNL     1       2.434   5.218  -1.440  0.00  0.00    +0.292 HD
ENDBRANCH  11  13
ENDBRANCH   1   2
BRANCH   1  18
ATOM     15  C   UNL     1       5.014   5.103   4.132  0.00  0.00    +0.162 A 
ATOM     16  C   UNL     1       5.501   3.870   3.728  0.00  0.00    +0.050 A 
ATOM     17  C   UNL     1       5.468   3.519   2.391  0.00  0.00    +0.009 A 
ATOM     18  C   UNL     1       4.959   4.399   1.454  0.00  0.00    -0.019 A 
ATOM     19  C   UNL     1       4.472   5.630   1.851  0.00  0.00    +0.055 A 
ATOM     20  C   UNL     1       4.497   5.987   3.190  0.00  0.00    +0.162 A 
BRANCH  15  21
ATOM     21  O   UNL     1       5.041   5.448   5.447  0.00  0.00    -0.489 OA
BRANCH  21  23
ATOM     22  C   UNL     1       5.532   5.053   7.781  0.00  0.00    +0.048 C 
ATOM     23  C   UNL     1       5.586   4.491   6.358  0.00  0.00    +0.226 C 
ENDBRANCH  21  23
ENDBRANCH  15  21
BRANCH  20  24
ATOM     24  O   UNL     1       4.018   7.198   3.582  0.00  0.00    -0.489 OA
BRANCH  24  25
ATOM     25  C   UNL     1       3.503   8.053   2.560  0.00  0.00    +0.226 C 
ATOM     26  C   UNL     1       3.014   9.360   3.187  0.00  0.00    +0.048 C 
ENDBRANCH  24  25
ENDBRANCH  20  24
ENDBRANCH   1  18
BRANCH   1  27
ATOM     27  N   UNL     1       6.208   3.396  -0.369  0.00  0.00    -0.320 N 
ATOM     28  H   UNL     1       6.746   2.955   0.308  0.00  0.00    +0.148 HD
BRANCH  27  29
ATOM     29  C   UNL     1       6.649   3.443  -1.686  0.00  0.00    +0.097 A 
ATOM     30  C   UNL     1       5.823   3.972  -2.672  0.00  0.00    +0.045 A 
ATOM     31  C   UNL     1       6.274   4.012  -3.978  0.00  0.00    -0.046 A 
ATOM     32  C   UNL     1       7.543   3.519  -4.257  0.00  0.00    +0.021 A 
ATOM     33  C   UNL     1       8.310   3.008  -3.229  0.00  0.00    +0.084 A 
ATOM     34  C   UNL     1       5.410   4.578  -5.076  0.00  0.00    +0.044 C 
ATOM     35  N   UNL     1       7.901   2.958  -1.933  0.00  0.00    -0.350 N 
ATOM     36  H   UNL     1       8.497   2.580  -1.187  0.00  0.00    +0.166 HD
ENDBRANCH  27  29
ENDBRANCH   1  27
TORSDOF 9
