REMARK  Name = ZINC67129984
REMARK  6 active torsions:
REMARK  status: ('A' for Active; 'I' for Inactive)
REMARK    1  A    between atoms: C_3  and  C_6
REMARK    2  A    between atoms: C_6  and  C_8
REMARK    3  A    between atoms: C_6  and  N_15
REMARK    4  A    between atoms: C_16  and  C_18
REMARK    5  A    between atoms: C_18  and  N_19
REMARK    6  A    between atoms: C_24  and  C_26
REMARK                            x       y       z     vdW  Elec       q    Type
REMARK                         _______ _______ _______ _____ _____    ______ ____
ROOT
ATOM      1  N   UNL     1       4.735   0.819   0.768  0.00  0.00    -0.306 N 
ATOM      2  C   UNL     1       4.759   1.140   2.076  0.00  0.00    +0.197 C 
ATOM      3  O   UNL     1       4.195   2.141   2.465  0.00  0.00    -0.278 OA
ATOM      4  H   UNL     1       5.186   0.018   0.457  0.00  0.00    +0.150 HD
ENDROOT
BRANCH   1   5
ATOM      5  C   UNL     1       4.029   1.678  -0.185  0.00  0.00    +0.140 C 
BRANCH   5   6
ATOM      6  C   UNL     1       4.622   1.499  -1.559  0.00  0.00    -0.022 A 
ATOM      7  C   UNL     1       4.985   0.239  -1.995  0.00  0.00    +0.008 A 
ATOM      8  C   UNL     1       5.529   0.073  -3.255  0.00  0.00    +0.038 A 
ATOM      9  C   UNL     1       5.709   1.170  -4.080  0.00  0.00    +0.123 A 
ATOM     10  C   UNL     1       5.344   2.432  -3.642  0.00  0.00    +0.038 A 
ATOM     11  C   UNL     1       4.796   2.595  -2.384  0.00  0.00    +0.008 A 
ATOM     12  F   UNL     1       6.240   1.010  -5.312  0.00  0.00    -0.205 F 
ENDBRANCH   5   6
BRANCH   5  15
ATOM     13  C   UNL     1       0.224   1.535  -0.302  0.00  0.00    +0.008 A 
ATOM     14  C   UNL     1       1.482   2.107  -0.288  0.00  0.00    +0.013 A 
ATOM     15  C   UNL     1       2.570   1.302  -0.215  0.00  0.00    +0.014 A 
ATOM     16  S   UNL     1       1.826  -0.320  -0.163  0.00  0.00    -0.099 S 
ATOM     17  C   UNL     1       0.115   0.185  -0.242  0.00  0.00    +0.045 A 
ENDBRANCH   5  15
ENDBRANCH   1   5
BRANCH   2  18
ATOM     18  C   UNL     1       5.486   0.256   3.057  0.00  0.00    +0.020 C 
BRANCH  18  19
ATOM     19  N   UNL     1       5.364   0.819   4.408  0.00  0.00    +0.393 N 
ATOM     20  C   UNL     1       3.963   0.751   4.840  0.00  0.00    -0.077 C 
ATOM     21  C   UNL     1       3.817   1.410   6.214  0.00  0.00    -0.019 C 
ATOM     22  C   UNL     1       4.701   0.673   7.224  0.00  0.00    -0.003 C 
ATOM     23  C   UNL     1       6.149   0.686   6.725  0.00  0.00    -0.006 C 
ATOM     24  C   UNL     1       6.209   0.054   5.333  0.00  0.00    +0.020 C 
ATOM     25  H   UNL     1       5.665   1.782   4.398  0.00  0.00    -0.080 HD
BRANCH  24  26
ATOM     26  C   UNL     1       7.632   0.064   4.838  0.00  0.00    +0.197 C 
ATOM     27  O   UNL     1       8.039   0.999   4.182  0.00  0.00    -0.278 OA
ATOM     28  N   UNL     1       8.453  -0.966   5.125  0.00  0.00    -0.331 N 
ATOM     29  H   UNL     1       8.127  -1.713   5.650  0.00  0.00    +0.145 HD
ATOM     30  H   UNL     1       9.369  -0.959   4.807  0.00  0.00    +0.145 HD
ENDBRANCH  24  26
ENDBRANCH  18  19
ENDBRANCH   2  18
TORSDOF 6
