REMARK  Name = ZINC63699683
REMARK  8 active torsions:
REMARK  status: ('A' for Active; 'I' for Inactive)
REMARK    1  A    between atoms: C_1  and  C_2
REMARK    2  A    between atoms: C_2  and  C_3
REMARK    3  A    between atoms: C_3  and  C_4
REMARK    4  A    between atoms: C_4  and  C_5
REMARK    5  A    between atoms: N_7  and  C_8
REMARK    6  A    between atoms: C_11  and  S_14
REMARK    7  A    between atoms: S_14  and  N_17
REMARK    8  A    between atoms: C_20  and  C_23
REMARK                            x       y       z     vdW  Elec       q    Type
REMARK                         _______ _______ _______ _____ _____    ______ ____
ROOT
ATOM      1  S   UNL     1       4.201  -5.609   7.710  0.00  0.00    +0.061 S 
ATOM      2  O   UNL     1       4.752  -6.895   7.463  0.00  0.00    -0.153 OA
ATOM      3  O   UNL     1       4.989  -4.517   8.163  0.00  0.00    -0.153 OA
ENDROOT
BRANCH   1   7
ATOM      4  C   UNL     1       2.240  -4.276   3.851  0.00  0.00    +0.033 A 
ATOM      5  C   UNL     1       2.656  -3.333   4.782  0.00  0.00    +0.025 A 
ATOM      6  C   UNL     1       3.254  -3.743   5.958  0.00  0.00    +0.030 A 
ATOM      7  C   UNL     1       3.438  -5.090   6.209  0.00  0.00    +0.106 A 
ATOM      8  C   UNL     1       3.026  -6.032   5.284  0.00  0.00    +0.030 A 
ATOM      9  C   UNL     1       2.422  -5.629   4.108  0.00  0.00    +0.025 A 
BRANCH   4  12
ATOM     10  C   UNL     1       0.647  -4.602   2.115  0.00  0.00    +0.217 C 
ATOM     11  O   UNL     1       0.340  -5.665   2.612  0.00  0.00    -0.275 OA
ATOM     12  N   UNL     1       1.635  -3.864   2.659  0.00  0.00    -0.285 N 
ATOM     13  H   UNL     1       1.926  -3.048   2.224  0.00  0.00    +0.155 HD
BRANCH  10  14
ATOM     14  C   UNL     1      -0.076  -4.107   0.889  0.00  0.00    +0.096 C 
BRANCH  14  15
ATOM     15  C   UNL     1      -1.142  -5.125   0.479  0.00  0.00    +0.009 C 
BRANCH  15  17
ATOM     16  C   UNL     1      -2.942  -5.640  -1.175  0.00  0.00    +0.004 C 
ATOM     17  C   UNL     1      -1.876  -4.622  -0.765  0.00  0.00    -0.003 C 
ENDBRANCH  15  17
ENDBRANCH  14  15
ENDBRANCH  10  14
ENDBRANCH   4  12
ENDBRANCH   1   7
BRANCH   1  18
ATOM     18  N   UNL     1       2.995  -5.817   8.825  0.00  0.00    -0.177 NA
ATOM     19  C   UNL     1       2.566  -4.702   9.681  0.00  0.00    +0.110 C 
ATOM     20  C   UNL     1       1.050  -4.532   9.546  0.00  0.00    +0.024 C 
ATOM     21  C   UNL     1       0.361  -5.863   9.855  0.00  0.00    +0.034 C 
ATOM     22  C   UNL     1       0.819  -6.922   8.851  0.00  0.00    +0.024 C 
ATOM     23  C   UNL     1       2.329  -7.119   8.974  0.00  0.00    +0.110 C 
BRANCH  21  24
ATOM     24  C   UNL     1      -1.156  -5.688   9.755  0.00  0.00    +0.177 C 
ATOM     25  N   UNL     1      -1.620  -4.728  10.764  0.00  0.00    -0.363 N 
ATOM     26  C   UNL     1      -2.454  -5.354  11.544  0.00  0.00    +0.060 A 
ATOM     27  C   UNL     1      -3.234  -4.933  12.716  0.00  0.00    +0.027 A 
ATOM     28  C   UNL     1      -4.035  -5.823  13.336  0.00  0.00    +0.002 A 
ATOM     29  C   UNL     1      -4.160  -7.157  12.909  0.00  0.00    +0.002 A 
ATOM     30  C   UNL     1      -3.490  -7.646  11.847  0.00  0.00    +0.027 A 
ATOM     31  C   UNL     1      -2.587  -6.766  11.091  0.00  0.00    +0.060 A 
ATOM     32  N   UNL     1      -1.831  -6.958  10.050  0.00  0.00    -0.363 N 
ATOM     33  H   UNL     1      -1.354  -3.798  10.837  0.00  0.00    +0.162 HD
ATOM     34  H   UNL     1      -1.731  -7.788   9.558  0.00  0.00    +0.162 HD
ENDBRANCH  21  24
ENDBRANCH   1  18
TORSDOF 7
