REMARK  Name = ZINC48361662
REMARK  12 active torsions:
REMARK  status: ('A' for Active; 'I' for Inactive)
REMARK    1  A    between atoms: C_1  and  C_2
REMARK    2  A    between atoms: C_2  and  C_3
REMARK    3  A    between atoms: C_3  and  C_4
REMARK    4  A    between atoms: C_4  and  N_5
REMARK    5  A    between atoms: N_5  and  C_6
REMARK    6  A    between atoms: C_7  and  N_18
REMARK    7  A    between atoms: N_8  and  C_15
REMARK    8  A    between atoms: C_15  and  C_16
REMARK    9  A    between atoms: C_16  and  C_17
REMARK   10  A    between atoms: C_19  and  C_21
REMARK   11  A    between atoms: C_21  and  N_22
REMARK   12  A    between atoms: C_30  and  C_35
REMARK                            x       y       z     vdW  Elec       q    Type
REMARK                         _______ _______ _______ _____ _____    ______ ____
ROOT
ATOM      1  N   UNL     1       1.265  -2.968  -2.252  0.00  0.00    -0.266 N 
ATOM      2  C   UNL     1       0.673  -3.298  -3.419  0.00  0.00    +0.203 C 
ATOM      3  O   UNL     1       1.229  -4.053  -4.189  0.00  0.00    -0.277 OA
ENDROOT
BRANCH   1   4
ATOM      4  C   UNL     1       2.573  -3.417  -1.973  0.00  0.00    +0.140 A 
ATOM      5  C   UNL     1       2.804  -4.313  -0.949  0.00  0.00    +0.127 A 
ATOM      6  N   UNL     1       4.090  -4.732  -0.700  0.00  0.00    -0.280 N 
ATOM      7  C   UNL     1       5.111  -4.275  -1.446  0.00  0.00    +0.331 A 
ATOM      8  O   UNL     1       6.241  -4.657  -1.211  0.00  0.00    -0.246 OA
ATOM      9  N   UNL     1       4.906  -3.402  -2.449  0.00  0.00    -0.273 N 
ATOM     10  H   UNL     1       5.659  -3.087  -2.972  0.00  0.00    +0.173 HD
ATOM     11  C   UNL     1       3.665  -2.964  -2.737  0.00  0.00    +0.277 A 
ATOM     12  O   UNL     1       3.489  -2.176  -3.651  0.00  0.00    -0.266 OA
BRANCH   5  13
ATOM     13  N   UNL     1       1.760  -4.780  -0.186  0.00  0.00    -0.343 N 
ATOM     14  H   UNL     1       0.867  -4.427  -0.318  0.00  0.00    +0.144 HD
ATOM     15  H   UNL     1       1.918  -5.463   0.485  0.00  0.00    +0.144 HD
ENDBRANCH   5  13
BRANCH   6  16
ATOM     16  C   UNL     1       4.349  -5.683   0.384  0.00  0.00    +0.128 C 
BRANCH  16  17
ATOM     17  C   UNL     1       4.259  -7.111  -0.158  0.00  0.00    +0.018 C 
ATOM     18  C   UNL     1       4.529  -8.104   0.974  0.00  0.00    +0.005 C 
ENDBRANCH  16  17
ENDBRANCH   6  16
ENDBRANCH   1   4
BRANCH   1  19
ATOM     19  C   UNL     1       0.550  -2.143  -1.276  0.00  0.00    +0.114 C 
BRANCH  19  20
ATOM     20  C   UNL     1       0.928  -0.674  -1.474  0.00  0.00    +0.019 C 
BRANCH  20  22
ATOM     21  C   UNL     1       0.559   1.657  -0.653  0.00  0.00    +0.004 C 
ATOM     22  C   UNL     1       0.181   0.188  -0.454  0.00  0.00    -0.002 C 
ENDBRANCH  20  22
ENDBRANCH  19  20
ENDBRANCH   1  19
BRANCH   2  23
ATOM     23  C   UNL     1      -0.678  -2.728  -3.766  0.00  0.00    +0.020 C 
BRANCH  23  24
ATOM     24  N   UNL     1      -1.101  -3.237  -5.078  0.00  0.00    +0.388 N 
ATOM     25  C   UNL     1      -0.392  -2.508  -6.136  0.00  0.00    -0.078 C 
ATOM     26  C   UNL     1      -0.768  -3.087  -7.501  0.00  0.00    -0.018 C 
ATOM     27  C   UNL     1      -2.279  -2.949  -7.709  0.00  0.00    +0.000 C 
ATOM     28  C   UNL     1      -3.008  -3.651  -6.560  0.00  0.00    -0.024 C 
ATOM     29  C   UNL     1      -2.549  -3.050  -5.229  0.00  0.00    -0.062 C 
ATOM     30  C   UNL     1      -2.877  -1.555  -5.204  0.00  0.00    -0.027 C 
ATOM     31  C   UNL     1      -4.386  -1.361  -5.359  0.00  0.00    +0.002 C 
ATOM     32  C   UNL     1      -4.843  -1.959  -6.692  0.00  0.00    +0.000 C 
ATOM     33  C   UNL     1      -4.517  -3.456  -6.718  0.00  0.00    +0.002 C 
ATOM     34  C   UNL     1      -2.420  -0.955  -3.873  0.00  0.00    +0.006 C 
ATOM     35  H   UNL     1      -0.881  -4.219  -5.144  0.00  0.00    -0.081 HD
ENDBRANCH  23  24
ENDBRANCH   2  23
TORSDOF 9
