REMARK  Name = ZINC10129629
REMARK  9 active torsions:
REMARK  status: ('A' for Active; 'I' for Inactive)
REMARK    1  A    between atoms: C_1  and  N_2
REMARK    2  A    between atoms: N_2  and  C_3
REMARK    3  A    between atoms: N_2  and  C_4
REMARK    4  A    between atoms: C_7  and  C_10
REMARK    5  A    between atoms: C_10  and  C_12
REMARK    6  A    between atoms: C_10  and  N_63
REMARK    7  A    between atoms: C_12  and  N_13
REMARK    8  A    between atoms: C_14  and  C_16
REMARK    9  A    between atoms: N_18  and  C_19
REMARK                            x       y       z     vdW  Elec       q    Type
REMARK                         _______ _______ _______ _____ _____    ______ ____
ROOT
ATOM      1  C   UNL     1      -0.784   1.492  -1.338  0.00  0.00    -0.020 C 
ENDROOT
BRANCH   1  11
ATOM      2  C   UNL     1      -2.660  -0.041  -1.387  0.00  0.00    -0.073 C 
ATOM      3  C   UNL     1      -4.189  -0.058  -1.376  0.00  0.00    +0.017 C 
ATOM      4  C   UNL     1      -4.720   0.617  -2.614  0.00  0.00    -0.048 A 
ATOM      5  C   UNL     1      -6.042   0.400  -2.971  0.00  0.00    +0.004 A 
ATOM      6  C   UNL     1      -6.569   1.002  -4.096  0.00  0.00    +0.000 A 
ATOM      7  C   UNL     1      -5.774   1.825  -4.871  0.00  0.00    +0.000 A 
ATOM      8  C   UNL     1      -4.458   2.041  -4.518  0.00  0.00    +0.002 A 
ATOM      9  C   UNL     1      -3.926   1.435  -3.389  0.00  0.00    -0.061 A 
ATOM     10  C   UNL     1      -2.482   1.695  -3.049  0.00  0.00    -0.042 C 
ATOM     11  N   UNL     1      -2.226   1.347  -1.641  0.00  0.00    +0.388 N 
ATOM     12  H   UNL     1      -2.760   1.982  -1.037  0.00  0.00    -0.080 HD
ENDBRANCH   1  11
BRANCH   1  16
ATOM     13  C   UNL     1       1.547   0.685  -4.829  0.00  0.00    +0.029 A 
ATOM     14  C   UNL     1       1.715   1.879  -4.140  0.00  0.00    +0.023 A 
ATOM     15  C   UNL     1       0.961   2.137  -3.013  0.00  0.00    +0.004 A 
ATOM     16  C   UNL     1       0.038   1.207  -2.569  0.00  0.00    -0.059 A 
ATOM     17  C   UNL     1      -0.128   0.014  -3.249  0.00  0.00    +0.004 A 
ATOM     18  C   UNL     1       0.619  -0.247  -4.380  0.00  0.00    +0.023 A 
BRANCH  13  20
ATOM     19  C   UNL     1       3.287   1.404  -6.441  0.00  0.00    +0.129 C 
ATOM     20  N   UNL     1       2.309   0.421  -5.969  0.00  0.00    -0.336 N 
ATOM     21  C   UNL     1       2.130  -0.840  -6.694  0.00  0.00    +0.129 C 
ENDBRANCH  13  20
ENDBRANCH   1  16
BRANCH   1  22
ATOM     22  C   UNL     1      -0.396   0.512  -0.229  0.00  0.00    +0.094 C 
BRANCH  22  23
ATOM     23  N   UNL     1      -1.281   0.704   0.923  0.00  0.00    -0.309 N 
ATOM     24  C   UNL     1      -1.064   0.016   2.062  0.00  0.00    +0.299 C 
ATOM     25  O   UNL     1      -0.135  -0.762   2.133  0.00  0.00    -0.265 OA
ATOM     26  H   UNL     1      -2.024   1.325   0.866  0.00  0.00    +0.149 HD
BRANCH  24  27
ATOM     27  C   UNL     1      -1.966   0.211   3.236  0.00  0.00    +0.303 C 
ATOM     28  O   UNL     1      -2.895   0.989   3.164  0.00  0.00    -0.265 OA
ATOM     29  N   UNL     1      -1.749  -0.476   4.374  0.00  0.00    -0.278 N 
ATOM     30  H   UNL     1      -0.962  -1.037   4.460  0.00  0.00    +0.155 HD
BRANCH  29  31
ATOM     31  C   UNL     1      -2.658  -0.382   5.431  0.00  0.00    +0.034 A 
ATOM     32  C   UNL     1      -2.209  -0.453   6.744  0.00  0.00    +0.025 A 
ATOM     33  C   UNL     1      -3.109  -0.355   7.787  0.00  0.00    +0.022 A 
ATOM     34  C   UNL     1      -4.458  -0.197   7.525  0.00  0.00    +0.041 A 
ATOM     35  C   UNL     1      -4.910  -0.131   6.219  0.00  0.00    +0.022 A 
ATOM     36  C   UNL     1      -4.014  -0.223   5.172  0.00  0.00    +0.025 A 
ATOM     37 CL   UNL     1      -5.588  -0.081   8.839  0.00  0.00    -0.084 Cl
ENDBRANCH  29  31
ENDBRANCH  24  27
ENDBRANCH  22  23
ENDBRANCH   1  22
TORSDOF 7
