REMARK  Name = ZINC39709363
REMARK  10 active torsions:
REMARK  status: ('A' for Active; 'I' for Inactive)
REMARK    1  A    between atoms: C_1  and  C_2
REMARK    2  A    between atoms: C_2  and  C_3
REMARK    3  A    between atoms: C_8  and  C_12
REMARK    4  A    between atoms: C_12  and  C_14
REMARK    5  A    between atoms: C_14  and  S_15
REMARK    6  A    between atoms: S_15  and  C_16
REMARK    7  A    between atoms: C_20  and  C_27
REMARK    8  A    between atoms: N_22  and  C_23
REMARK    9  A    between atoms: C_23  and  C_24
REMARK   10  A    between atoms: C_30  and  C_33
REMARK                            x       y       z     vdW  Elec       q    Type
REMARK                         _______ _______ _______ _____ _____    ______ ____
ROOT
ATOM      1  C   UNL     1       9.403  -2.079  -3.645  0.00  0.00    +0.078 C 
ATOM      2  N   UNL     1       9.551  -2.845  -2.380  0.00  0.00    -0.262 NA
ATOM      3  N   UNL     1      10.649  -2.180  -1.674  0.00  0.00    -0.267 NA
ATOM      4  C   UNL     1      10.719  -0.800  -2.194  0.00  0.00    +0.050 C 
ATOM      5  N   UNL     1       9.652  -0.677  -3.217  0.00  0.00    +0.417 N 
ATOM      6  H   UNL     1       8.701  -2.814  -1.837  0.00  0.00    +0.140 HD
ATOM      7  H   UNL     1      10.494  -2.184  -0.677  0.00  0.00    +0.139 HD
ATOM      8  H   UNL     1       8.819  -0.278  -2.811  0.00  0.00    -0.074 HD
ENDROOT
BRANCH   4   9
ATOM      9  C   UNL     1      10.484   0.185  -1.077  0.00  0.00    -0.046 A 
ATOM     10  C   UNL     1       9.867   1.394  -1.340  0.00  0.00    +0.003 A 
ATOM     11  C   UNL     1       9.651   2.297  -0.316  0.00  0.00    +0.003 A 
ATOM     12  C   UNL     1      10.052   1.991   0.971  0.00  0.00    -0.050 A 
ATOM     13  C   UNL     1      10.668   0.782   1.234  0.00  0.00    +0.003 A 
ATOM     14  C   UNL     1      10.880  -0.123   0.210  0.00  0.00    +0.003 A 
ATOM     15  C   UNL     1       9.818   2.976   2.087  0.00  0.00    +0.044 C 
ENDBRANCH   4   9
BRANCH   1  16
ATOM     16  S   UNL     1       7.726  -2.259  -4.313  0.00  0.00    -0.152 S 
BRANCH  16  17
ATOM     17  C   UNL     1       6.653  -1.708  -2.958  0.00  0.00    +0.148 C 
BRANCH  17  18
ATOM     18  C   UNL     1       5.211  -1.808  -3.386  0.00  0.00    +0.171 C 
ATOM     19  O   UNL     1       4.935  -2.212  -4.498  0.00  0.00    -0.291 OA
BRANCH  18  25
ATOM     20  C   UNL     1       0.650  -0.934  -1.547  0.00  0.00    -0.024 A 
ATOM     21  C   UNL     1       0.005  -1.326  -2.667  0.00  0.00    +0.005 A 
ATOM     22  C   UNL     1       0.697  -1.778  -3.803  0.00  0.00    +0.001 A 
ATOM     23  C   UNL     1       2.046  -1.850  -3.851  0.00  0.00    +0.010 A 
ATOM     24  C   UNL     1       2.820  -1.465  -2.731  0.00  0.00    +0.006 A 
ATOM     25  C   UNL     1       4.183  -1.433  -2.496  0.00  0.00    +0.024 C 
ATOM     26  C   UNL     1       4.340  -0.913  -1.084  0.00  0.00    +0.152 C 
ATOM     27  N   UNL     1       2.981  -0.672  -0.587  0.00  0.00    -0.380 N 
ATOM     28  C   UNL     1       2.122  -0.976  -1.517  0.00  0.00    +0.046 A 
ATOM     29  H   UNL     1       2.758  -0.334   0.294  0.00  0.00    +0.160 HD
BRANCH  20  31
ATOM     30  C   UNL     1      -0.231   1.071  -0.385  0.00  0.00    +0.009 C 
ATOM     31  C   UNL     1      -0.125  -0.455  -0.347  0.00  0.00    +0.034 C 
ENDBRANCH  20  31
ENDBRANCH  18  25
ENDBRANCH  17  18
ENDBRANCH  16  17
ENDBRANCH   1  16
BRANCH   5  32
ATOM     32  C   UNL     1      10.113   0.133  -4.353  0.00  0.00    +0.055 C 
BRANCH  32  33
ATOM     33  C   UNL     1      11.406  -0.432  -4.881  0.00  0.00    +0.340 C 
ATOM     34  O   UNL     1      11.847  -1.474  -4.426  0.00  0.00    -0.249 OA
ATOM     35  O   UNL     1      12.012   0.152  -5.763  0.00  0.00    -0.249 OA
ENDBRANCH  32  33
ENDBRANCH   5  32
TORSDOF 8
