REMARK  Name = ZINC39670013
REMARK  8 active torsions:
REMARK  status: ('A' for Active; 'I' for Inactive)
REMARK    1  A    between atoms: C_1  and  C_2
REMARK    2  A    between atoms: C_2  and  C_3
REMARK    3  A    between atoms: C_3  and  C_4
REMARK    4  A    between atoms: C_4  and  C_5
REMARK    5  A    between atoms: C_9  and  C_18
REMARK    6  A    between atoms: N_20  and  C_21
REMARK    7  A    between atoms: C_21  and  C_22
REMARK    8  A    between atoms: C_27  and  C_31
REMARK                            x       y       z     vdW  Elec       q    Type
REMARK                         _______ _______ _______ _____ _____    ______ ____
ROOT
ATOM      1  C   UNL     1      -2.534  -2.615  -0.100  0.00  0.00    +0.216 C 
ATOM      2  O   UNL     1      -3.401  -1.766  -0.122  0.00  0.00    -0.276 OA
ATOM      3  N   UNL     1      -2.870  -3.919  -0.064  0.00  0.00    -0.300 N 
ATOM      4  C   UNL     1      -1.962  -5.090  -0.027  0.00  0.00    +0.121 C 
ATOM      5  C   UNL     1      -2.641  -6.080   0.946  0.00  0.00    +0.100 C 
ATOM      6  C   UNL     1      -4.129  -5.694   0.923  0.00  0.00    -0.004 C 
ATOM      7  C   UNL     1      -4.231  -4.508  -0.047  0.00  0.00    +0.115 C 
ATOM      8  C   UNL     1      -4.587  -5.270   2.315  0.00  0.00    -0.010 C 
ATOM      9  C   UNL     1      -6.083  -4.946   2.279  0.00  0.00    -0.082 C 
ATOM     10  N   UNL     1      -6.831  -6.128   1.835  0.00  0.00    +0.379 N 
ATOM     11  C   UNL     1      -6.451  -6.474   0.460  0.00  0.00    -0.082 C 
ATOM     12  C   UNL     1      -4.971  -6.863   0.419  0.00  0.00    -0.010 C 
ATOM     13  H   UNL     1      -6.623  -6.905   2.446  0.00  0.00    -0.086 HD
ATOM     14  H   UNL     1      -7.820  -5.932   1.871  0.00  0.00    -0.086 HD
ENDROOT
BRANCH   5  15
ATOM     15  C   UNL     1      -2.077  -5.921   2.334  0.00  0.00    +0.219 C 
ATOM     16  O   UNL     1      -1.665  -4.841   2.702  0.00  0.00    -0.275 OA
ATOM     17  N   UNL     1      -2.029  -6.980   3.167  0.00  0.00    -0.309 N 
ATOM     18  H   UNL     1      -2.358  -7.843   2.873  0.00  0.00    +0.149 HD
BRANCH  17  19
ATOM     19  C   UNL     1      -1.481  -6.825   4.517  0.00  0.00    +0.159 C 
BRANCH  19  20
ATOM     20  C   UNL     1      -1.542  -8.147   5.238  0.00  0.00    +0.051 A 
ATOM     21  C   UNL     1      -2.533  -8.550   6.064  0.00  0.00    +0.115 A 
ATOM     22  N   UNL     1      -2.206  -9.803   6.507  0.00  0.00    -0.308 N 
ATOM     23  C   UNL     1      -2.832 -10.677   7.348  0.00  0.00    +0.093 A 
ATOM     24  C   UNL     1      -2.282 -11.878   7.623  0.00  0.00    +0.021 A 
ATOM     25  C   UNL     1      -1.054 -12.244   7.047  0.00  0.00    -0.046 A 
ATOM     26  C   UNL     1      -0.420 -11.382   6.208  0.00  0.00    +0.048 A 
ATOM     27  C   UNL     1      -1.008 -10.132   5.929  0.00  0.00    +0.116 A 
ATOM     28  N   UNL     1      -0.629  -9.118   5.163  0.00  0.00    -0.342 N 
ATOM     29  C   UNL     1      -0.442 -13.586   7.359  0.00  0.00    +0.044 C 
ATOM     30  H   UNL     1       0.184  -9.086   4.635  0.00  0.00    +0.167 HD
ENDBRANCH  19  20
ENDBRANCH  17  19
ENDBRANCH   5  15
BRANCH   1  31
ATOM     31  C   UNL     1      -1.083  -2.210  -0.113  0.00  0.00    +0.096 C 
BRANCH  31  32
ATOM     32  C   UNL     1      -0.979  -0.684  -0.154  0.00  0.00    +0.009 C 
BRANCH  32  34
ATOM     33  C   UNL     1       0.598   1.253  -0.209  0.00  0.00    +0.004 C 
ATOM     34  C   UNL     1       0.494  -0.273  -0.167  0.00  0.00    -0.003 C 
ENDBRANCH  32  34
ENDBRANCH  31  32
ENDBRANCH   1  31
TORSDOF 6
