REMARK  Name = ZINC04085428
REMARK  8 active torsions:
REMARK  status: ('A' for Active; 'I' for Inactive)
REMARK    1  A    between atoms: C_1  and  C_2
REMARK    2  A    between atoms: C_2  and  C_3
REMARK    3  A    between atoms: C_3  and  N_4
REMARK    4  A    between atoms: C_5  and  O_29
REMARK    5  A    between atoms: C_6  and  C_15
REMARK    6  A    between atoms: N_9  and  C_12
REMARK    7  A    between atoms: C_12  and  C_13
REMARK    8  A    between atoms: C_13  and  C_14
REMARK                            x       y       z     vdW  Elec       q    Type
REMARK                         _______ _______ _______ _____ _____    ______ ____
ROOT
ATOM      1  N   UNL     1       0.002  -0.004   0.002  0.00  0.00    -0.264 N 
ATOM      2  C   UNL     1       1.194  -0.683  -0.013  0.00  0.00    +0.204 A 
ATOM      3  C   UNL     1       2.364   0.016  -0.020  0.00  0.00    +0.068 A 
ATOM      4  C   UNL     1       2.321   1.422  -0.012  0.00  0.00    +0.262 A 
ATOM      5  O   UNL     1       3.354   2.068  -0.019  0.00  0.00    -0.267 OA
ATOM      6  N   UNL     1       1.128   2.050   0.002  0.00  0.00    -0.261 N 
ATOM      7  C   UNL     1      -0.016   1.341   0.009  0.00  0.00    +0.335 A 
ATOM      8  O   UNL     1      -1.082   1.926   0.018  0.00  0.00    -0.246 OA
ENDROOT
BRANCH   3   9
ATOM      9  C   UNL     1       3.687  -0.707  -0.036  0.00  0.00    +0.018 C 
ATOM     10  C   UNL     1       4.413  -0.408  -1.327  0.00  0.00    +0.011 A 
ATOM     11  C   UNL     1       5.736  -0.118  -1.375  0.00  0.00    -0.022 A 
ATOM     12  C   UNL     1       6.070   0.116  -2.762  0.00  0.00    +0.003 A 
ATOM     13  C   UNL     1       7.264   0.447  -3.410  0.00  0.00    +0.010 A 
ATOM     14  C   UNL     1       7.211   0.596  -4.773  0.00  0.00    +0.001 A 
ATOM     15  C   UNL     1       6.035   0.427  -5.487  0.00  0.00    +0.002 A 
ATOM     16  C   UNL     1       4.839   0.099  -4.872  0.00  0.00    +0.026 A 
ATOM     17  C   UNL     1       4.863  -0.058  -3.488  0.00  0.00    +0.047 A 
ATOM     18  N   UNL     1       3.886  -0.372  -2.586  0.00  0.00    -0.359 N 
ATOM     19  H   UNL     1       2.958  -0.546  -2.807  0.00  0.00    +0.166 HD
ATOM     20  C   UNL     1       6.623  -0.073  -0.156  0.00  0.00    +0.018 C 
ATOM     21  C   UNL     1       5.886  -0.770   0.995  0.00  0.00    -0.076 C 
ATOM     22  N   UNL     1       4.512  -0.237   1.098  0.00  0.00    +0.388 N 
ATOM     23  H   UNL     1       4.091  -0.557   1.978  0.00  0.00    -0.084 HD
ATOM     24  H   UNL     1       4.546   0.789   1.089  0.00  0.00    -0.084 HD
ENDBRANCH   3   9
BRANCH   2  25
ATOM     25  O   UNL     1       1.208  -2.033  -0.021  0.00  0.00    -0.493 OA
ATOM     26  H   UNL     1       0.329  -2.435  -0.015  0.00  0.00    +0.294 HD
ENDBRANCH   2  25
BRANCH   1  27
ATOM     27  C   UNL     1      -1.259  -0.749   0.009  0.00  0.00    +0.129 C 
BRANCH  27  29
ATOM     28  C   UNL     1      -3.029  -1.778  -1.422  0.00  0.00    +0.005 C 
ATOM     29  C   UNL     1      -1.712  -1.000  -1.430  0.00  0.00    +0.018 C 
ENDBRANCH  27  29
ENDBRANCH   1  27
BRANCH   6  30
ATOM     30  C   UNL     1       1.077   3.514   0.011  0.00  0.00    +0.130 C 
BRANCH  30  31
ATOM     31  C   UNL     1       1.073   4.016   1.456  0.00  0.00    +0.018 C 
ATOM     32  C   UNL     1       1.020   5.545   1.465  0.00  0.00    +0.005 C 
ENDBRANCH  30  31
ENDBRANCH   6  30
TORSDOF 6
