REMARK  Name = ZINC43093320
REMARK  12 active torsions:
REMARK  status: ('A' for Active; 'I' for Inactive)
REMARK    1  A    between atoms: C_1  and  C_2
REMARK    2  A    between atoms: C_2  and  C_4
REMARK    3  A    between atoms: C_2  and  N_21
REMARK    4  A    between atoms: C_4  and  C_6
REMARK    5  A    between atoms: C_4  and  N_13
REMARK    6  A    between atoms: N_13  and  C_14
REMARK    7  A    between atoms: N_13  and  C_18
REMARK    8  A    between atoms: C_14  and  C_15
REMARK    9  A    between atoms: C_15  and  C_16
REMARK   10  A    between atoms: C_16  and  O_17
REMARK   11  A    between atoms: C_18  and  C_19
REMARK   12  A    between atoms: C_18  and  C_20
REMARK                            x       y       z     vdW  Elec       q    Type
REMARK                         _______ _______ _______ _____ _____    ______ ____
ROOT
ATOM      1  C   UNL     1       0.928  -0.243   1.458  0.00  0.00    -0.051 C 
ENDROOT
BRANCH   1   2
ATOM      2  C   UNL     1       0.173  -1.542   1.590  0.00  0.00    -0.049 A 
ATOM      3  C   UNL     1      -1.029  -1.576   2.270  0.00  0.00    +0.003 A 
ATOM      4  C   UNL     1      -1.722  -2.766   2.391  0.00  0.00    +0.000 A 
ATOM      5  C   UNL     1      -1.212  -3.923   1.830  0.00  0.00    +0.001 A 
ATOM      6  C   UNL     1      -0.009  -3.889   1.150  0.00  0.00    +0.015 A 
ATOM      7  C   UNL     1       0.681  -2.697   1.025  0.00  0.00    +0.019 A 
ATOM      8 BR   UNL     1       2.323  -2.649   0.087  0.00  0.00    -0.050 Br
ENDBRANCH   1   2
BRANCH   1  10
ATOM      9  C   UNL     1       1.074   1.780   0.001  0.00  0.00    -0.016 C 
ATOM     10  C   UNL     1       0.132   0.722   0.577  0.00  0.00    -0.088 C 
BRANCH  10  11
ATOM     11  N   UNL     1      -0.498  -0.024  -0.521  0.00  0.00    +0.379 N 
ATOM     12  H   UNL     1       0.216  -0.474  -1.074  0.00  0.00    -0.090 HD
ATOM     13  H   UNL     1      -1.119  -0.722  -0.141  0.00  0.00    -0.090 HD
ATOM     14  H   UNL     1      -1.022   0.613  -1.102  0.00  0.00    -0.090 HD
ENDBRANCH  10  11
ENDBRANCH   1  10
BRANCH   1  15
ATOM     15  N   UNL     1       1.116   0.350   2.789  0.00  0.00    +0.385 N 
ATOM     16  H   UNL     1       0.238   0.349   3.285  0.00  0.00    -0.081 HD
BRANCH  15  17
ATOM     17  C   UNL     1       2.104  -0.436   3.540  0.00  0.00    -0.074 C 
ATOM     18  C   UNL     1       1.531  -1.822   3.841  0.00  0.00    -0.013 C 
ATOM     19  C   UNL     1       3.380  -0.581   2.708  0.00  0.00    -0.013 C 
ENDBRANCH  15  17
BRANCH  15  20
ATOM     20  C   UNL     1       1.596   1.731   2.645  0.00  0.00    -0.075 C 
BRANCH  20  21
ATOM     21  C   UNL     1       1.835   2.335   4.030  0.00  0.00    +0.009 C 
BRANCH  21  22
ATOM     22  C   UNL     1       2.223   3.808   3.885  0.00  0.00    +0.154 C 
BRANCH  22  23
ATOM     23  O   UNL     1       2.446   4.371   5.179  0.00  0.00    -0.395 OA
ATOM     24  H   UNL     1       2.696   5.305   5.164  0.00  0.00    +0.209 HD
ENDBRANCH  22  23
ENDBRANCH  21  22
ENDBRANCH  20  21
ENDBRANCH  15  20
ENDBRANCH   1  15
TORSDOF 9
