REMARK  Name = ZINC09541640
REMARK  9 active torsions:
REMARK  status: ('A' for Active; 'I' for Inactive)
REMARK    1  A    between atoms: C_1  and  C_2
REMARK    2  A    between atoms: C_2  and  C_3
REMARK    3  A    between atoms: C_6  and  C_9
REMARK    4  A    between atoms: C_11  and  C_26
REMARK    5  A    between atoms: C_13  and  C_16
REMARK    6  A    between atoms: C_20  and  O_23
REMARK    7  A    between atoms: C_21  and  O_22
REMARK    8  A    between atoms: O_23  and  C_24
REMARK    9  A    between atoms: C_24  and  C_25
REMARK                            x       y       z     vdW  Elec       q    Type
REMARK                         _______ _______ _______ _____ _____    ______ ____
ROOT
ATOM      1  C   UNL     1       1.128   7.628   1.528  0.00  0.00    +0.040 C 
ATOM      2  N   UNL     1       1.117   6.652   0.701  0.00  0.00    -0.299 NA
ATOM      3  C   UNL     1      -0.082   6.158   0.034  0.00  0.00    +0.081 C 
ATOM      4  C   UNL     1      -1.233   8.081   0.926  0.00  0.00    -0.028 C 
ATOM      5  C   UNL     1      -0.109   8.385   1.922  0.00  0.00    +0.044 C 
ATOM      6  N   UNL     1      -1.292   6.619   0.730  0.00  0.00    +0.401 N 
ATOM      7  H   UNL     1      -1.357   6.155   1.644  0.00  0.00    -0.081 HD
ATOM      8  H   UNL     1      -2.119   6.384   0.167  0.00  0.00    -0.081 HD
ENDROOT
BRANCH   3   9
ATOM      9  C   UNL     1      -0.061   4.651   0.027  0.00  0.00    -0.040 A 
ATOM     10  C   UNL     1       1.145   3.977   0.012  0.00  0.00    +0.005 A 
ATOM     11  C   UNL     1       1.165   2.595   0.005  0.00  0.00    +0.015 A 
ATOM     12  C   UNL     1      -0.024   1.887   0.012  0.00  0.00    +0.018 A 
ATOM     13  C   UNL     1      -1.231   2.562   0.022  0.00  0.00    +0.015 A 
ATOM     14  C   UNL     1      -1.249   3.944   0.034  0.00  0.00    +0.005 A 
ATOM     15 BR   UNL     1       0.002  -0.004   0.002  0.00  0.00    -0.050 Br
ENDBRANCH   3   9
BRANCH   1  19
ATOM     16  C   UNL     1       4.837   8.786   3.239  0.00  0.00    -0.048 A 
ATOM     17  C   UNL     1       4.792   7.733   2.342  0.00  0.00    +0.004 A 
ATOM     18  C   UNL     1       3.590   7.352   1.782  0.00  0.00    +0.010 A 
ATOM     19  C   UNL     1       2.418   8.030   2.123  0.00  0.00    -0.004 A 
ATOM     20  C   UNL     1       2.472   9.095   3.025  0.00  0.00    +0.010 A 
ATOM     21  C   UNL     1       3.680   9.463   3.581  0.00  0.00    +0.004 A 
BRANCH  16  23
ATOM     22  C   UNL     1       6.815  10.256   2.961  0.00  0.00    +0.009 C 
ATOM     23  C   UNL     1       6.154   9.197   3.846  0.00  0.00    +0.032 C 
ENDBRANCH  16  23
ENDBRANCH   1  19
BRANCH   4  24
ATOM     24  C   UNL     1      -2.547   8.570   1.478  0.00  0.00    -0.016 A 
ATOM     25  C   UNL     1      -3.377   7.700   2.161  0.00  0.00    +0.006 A 
ATOM     26  C   UNL     1      -4.580   8.146   2.673  0.00  0.00    +0.004 A 
ATOM     27  C   UNL     1      -4.966   9.463   2.494  0.00  0.00    +0.049 A 
ATOM     28  C   UNL     1      -4.142  10.338   1.806  0.00  0.00    +0.162 A 
ATOM     29  C   UNL     1      -2.927   9.889   1.295  0.00  0.00    +0.160 A 
BRANCH  29  30
ATOM     30  O   UNL     1      -2.115  10.745   0.618  0.00  0.00    -0.503 OA
ATOM     31  H   UNL     1      -2.279  10.773  -0.334  0.00  0.00    +0.292 HD
ENDBRANCH  29  30
BRANCH  28  32
ATOM     32  O   UNL     1      -4.519  11.632   1.629  0.00  0.00    -0.489 OA
BRANCH  32  33
ATOM     33  C   UNL     1      -5.779  12.022   2.180  0.00  0.00    +0.226 C 
ATOM     34  C   UNL     1      -6.029  13.502   1.884  0.00  0.00    +0.048 C 
ENDBRANCH  32  33
ENDBRANCH  28  32
ENDBRANCH   4  24
TORSDOF 7
