REMARK  Name = ZINC01326722
REMARK  4 active torsions:
REMARK  status: ('A' for Active; 'I' for Inactive)
REMARK    1  A    between atoms: C_6  and  C_7
REMARK    2  A    between atoms: C_10  and  C_31
REMARK    3  A    between atoms: C_16  and  C_18
REMARK    4  A    between atoms: N_20  and  C_21
REMARK                            x       y       z     vdW  Elec       q    Type
REMARK                         _______ _______ _______ _____ _____    ______ ____
ROOT
ATOM      1  C   UNL     1      -1.294  -0.803   0.031  0.00  0.00    +0.113 C 
ATOM      2  C   UNL     1      -1.857  -0.842  -1.391  0.00  0.00    +0.062 C 
ATOM      3  C   UNL     1      -3.207  -1.576  -1.394  0.00  0.00    +0.201 C 
ATOM      4  N   UNL     1      -4.047  -0.945  -0.371  0.00  0.00    -0.226 N 
ATOM      5  C   UNL     1      -3.517  -0.258   0.715  0.00  0.00    +0.114 C 
ATOM      6  N   UNL     1      -2.239  -0.147   0.942  0.00  0.00    -0.365 N 
ATOM      7  C   UNL     1      -4.653   0.257   1.478  0.00  0.00    +0.072 C 
ATOM      8  C   UNL     1      -5.781  -0.151   0.844  0.00  0.00    +0.110 C 
ATOM      9  N   UNL     1      -5.433  -0.892  -0.273  0.00  0.00    -0.258 N 
ATOM     10  H   UNL     1      -6.056  -1.308  -0.889  0.00  0.00    +0.170 HD
ATOM     11  H   UNL     1      -1.917   0.363   1.701  0.00  0.00    +0.161 HD
ENDROOT
BRANCH   1  17
ATOM     12  C   UNL     1      -0.004   1.341   0.041  0.00  0.00    +0.009 A 
ATOM     13  C   UNL     1       1.186   2.044   0.041  0.00  0.00    +0.050 A 
ATOM     14  C   UNL     1       2.393   1.364   0.028  0.00  0.00    +0.166 A 
ATOM     15  C   UNL     1       2.404  -0.029   0.017  0.00  0.00    +0.167 A 
ATOM     16  C   UNL     1       1.208  -0.727   0.017  0.00  0.00    +0.055 A 
ATOM     17  C   UNL     1       0.006  -0.042   0.030  0.00  0.00    -0.021 A 
ATOM     18  O   UNL     1       3.700  -0.455   0.006  0.00  0.00    -0.453 OA
ATOM     19  C   UNL     1       4.477   0.687  -0.402  0.00  0.00    +0.466 C 
ATOM     20  O   UNL     1       3.683   1.810   0.024  0.00  0.00    -0.453 OA
ENDBRANCH   1  17
BRANCH   8  21
ATOM     21  C   UNL     1      -7.162   0.148   1.277  0.00  0.00    +0.264 C 
ATOM     22  O   UNL     1      -8.105  -0.269   0.633  0.00  0.00    -0.268 OA
ATOM     23  N   UNL     1      -7.377   0.884   2.386  0.00  0.00    -0.280 N 
ATOM     24  H   UNL     1      -6.628   1.160   2.937  0.00  0.00    +0.155 HD
BRANCH  23  25
ATOM     25  C   UNL     1      -8.680   1.249   2.743  0.00  0.00    +0.037 A 
ATOM     26  C   UNL     1      -8.919   2.483   3.332  0.00  0.00    +0.027 A 
ATOM     27  C   UNL     1     -10.205   2.843   3.686  0.00  0.00    +0.051 A 
ATOM     28  C   UNL     1     -11.261   1.974   3.453  0.00  0.00    +0.162 A 
ATOM     29  C   UNL     1     -11.025   0.738   2.861  0.00  0.00    +0.164 A 
ATOM     30  C   UNL     1      -9.735   0.379   2.503  0.00  0.00    +0.072 A 
ATOM     31  O   UNL     1     -12.049  -0.124   2.618  0.00  0.00    -0.485 OA
ATOM     32  C   UNL     1     -13.273   0.114   3.321  0.00  0.00    +0.270 C 
ATOM     33  C   UNL     1     -13.600   1.610   3.223  0.00  0.00    +0.270 C 
ATOM     34  O   UNL     1     -12.521   2.345   3.812  0.00  0.00    -0.485 OA
ENDBRANCH  23  25
ENDBRANCH   8  21
BRANCH   3  35
ATOM     35  C   UNL     1      -3.868  -1.445  -2.767  0.00  0.00    +0.410 C 
ATOM     36  F   UNL     1      -3.035  -2.006  -3.741  0.00  0.00    -0.169 F 
ATOM     37  F   UNL     1      -5.095  -2.117  -2.760  0.00  0.00    -0.169 F 
ATOM     38  F   UNL     1      -4.079  -0.093  -3.056  0.00  0.00    -0.169 F 
ENDBRANCH   3  35
TORSDOF 4
