REMARK  Name = ZINC38769075
REMARK  7 active torsions:
REMARK  status: ('A' for Active; 'I' for Inactive)
REMARK    1  A    between atoms: C_6  and  C_7
REMARK    2  A    between atoms: C_11  and  C_13
REMARK    3  A    between atoms: C_16  and  O_20
REMARK    4  A    between atoms: C_18  and  O_19
REMARK    5  A    between atoms: O_20  and  C_21
REMARK    6  A    between atoms: C_21  and  C_22
REMARK    7  A    between atoms: N_24  and  N_25
REMARK                            x       y       z     vdW  Elec       q    Type
REMARK                         _______ _______ _______ _____ _____    ______ ____
ROOT
ATOM      1  C   UNL     1      -0.866  -2.849   1.308  0.00  0.00    +0.022 A 
ATOM      2  C   UNL     1      -1.094  -4.043   0.651  0.00  0.00    +0.013 A 
ATOM      3  C   UNL     1      -0.244  -5.115   0.847  0.00  0.00    +0.046 A 
ATOM      4  C   UNL     1       0.841  -4.994   1.704  0.00  0.00    +0.125 A 
ATOM      5  C   UNL     1       1.072  -3.797   2.364  0.00  0.00    +0.091 A 
ATOM      6  C   UNL     1       0.220  -2.721   2.161  0.00  0.00    +0.126 A 
ENDROOT
BRANCH   1  11
ATOM      7  C   UNL     1      -1.260  -0.761   0.011  0.00  0.00    +0.008 C 
ATOM      8  C   UNL     1      -2.216  -0.805  -0.947  0.00  0.00    +0.139 C 
ATOM      9  N   UNL     1      -3.220  -1.608  -0.573  0.00  0.00    -0.185 NA
ATOM     10  N   UNL     1      -3.082  -2.133   0.533  0.00  0.00    -0.297 N 
ATOM     11  C   UNL     1      -1.796  -1.682   1.093  0.00  0.00    +0.164 C 
ATOM     12  H   UNL     1      -3.708  -2.739   0.960  0.00  0.00    +0.183 HD
BRANCH   7  18
ATOM     13  C   UNL     1      -0.017   1.394   0.010  0.00  0.00    +0.009 A 
ATOM     14  C   UNL     1       1.169   2.096   0.002  0.00  0.00    +0.016 A 
ATOM     15  C   UNL     1       2.378   1.420  -0.013  0.00  0.00    +0.018 A 
ATOM     16  C   UNL     1       2.405   0.035  -0.022  0.00  0.00    +0.016 A 
ATOM     17  C   UNL     1       1.226  -0.680  -0.014  0.00  0.00    +0.009 A 
ATOM     18  C   UNL     1       0.002  -0.004   0.002  0.00  0.00    -0.018 A 
ATOM     19 BR   UNL     1       4.000   2.392  -0.024  0.00  0.00    -0.050 Br
ENDBRANCH   7  18
ENDBRANCH   1  11
BRANCH   6  20
ATOM     20  O   UNL     1       0.447  -1.545   2.802  0.00  0.00    -0.506 OA
ATOM     21  H   UNL     1       0.014  -1.476   3.664  0.00  0.00    +0.292 HD
ENDBRANCH   6  20
BRANCH   4  22
ATOM     22  O   UNL     1       1.677  -6.048   1.895  0.00  0.00    -0.483 OA
BRANCH  22  23
ATOM     23  C   UNL     1       1.378  -7.250   1.183  0.00  0.00    +0.325 C 
BRANCH  23  24
ATOM     24  C   UNL     1       2.405  -8.301   1.519  0.00  0.00    +0.264 C 
ATOM     25  O   UNL     1       3.304  -8.046   2.292  0.00  0.00    -0.271 OA
ATOM     26  N   UNL     1       2.325  -9.525   0.960  0.00  0.00    -0.251 N 
ATOM     27  H   UNL     1       1.606  -9.730   0.342  0.00  0.00    +0.169 HD
BRANCH  26  28
ATOM     28  N   UNL     1       3.255 -10.477   1.265  0.00  0.00    -0.254 NA
ATOM     29  H   UNL     1       3.302 -10.633   2.261  0.00  0.00    +0.140 HD
ATOM     30  H   UNL     1       3.066 -11.338   0.773  0.00  0.00    +0.140 HD
ENDBRANCH  26  28
ENDBRANCH  23  24
ENDBRANCH  22  23
ENDBRANCH   4  22
TORSDOF 7
