REMARK  Name = ZINC65298062
REMARK  8 active torsions:
REMARK  status: ('A' for Active; 'I' for Inactive)
REMARK    1  A    between atoms: C_1  and  C_2
REMARK    2  A    between atoms: C_5  and  C_31
REMARK    3  A    between atoms: C_6  and  C_8
REMARK    4  A    between atoms: N_13  and  C_16
REMARK    5  A    between atoms: C_16  and  C_17
REMARK    6  A    between atoms: C_16  and  C_18
REMARK    7  A    between atoms: C_20  and  C_23
REMARK    8  A    between atoms: C_28  and  O_29
REMARK                            x       y       z     vdW  Elec       q    Type
REMARK                         _______ _______ _______ _____ _____    ______ ____
ROOT
ATOM      1  C   UNL     1      -0.154  -2.487   2.628  0.00  0.00    +0.047 C 
ATOM      2  N   UNL     1      -0.182  -3.759   2.758  0.00  0.00    -0.266 NA
ATOM      3  C   UNL     1      -0.279  -4.451   4.039  0.00  0.00    +0.109 C 
ATOM      4  C   UNL     1      -1.716  -4.944   4.246  0.00  0.00    +0.027 C 
ATOM      5  C   UNL     1      -2.065  -5.952   3.149  0.00  0.00    -0.075 C 
ATOM      6  N   UNL     1      -1.143  -7.092   3.216  0.00  0.00    +0.381 N 
ATOM      7  C   UNL     1       0.229  -6.640   2.953  0.00  0.00    -0.075 C 
ATOM      8  C   UNL     1       0.664  -5.658   4.042  0.00  0.00    +0.027 C 
ATOM      9  N   UNL     1       0.086  -3.548   5.139  0.00  0.00    -0.286 NA
ATOM     10  C   UNL     1      -0.680  -2.294   5.042  0.00  0.00    +0.095 C 
ATOM     11  C   UNL     1      -0.202  -1.541   3.796  0.00  0.00    +0.079 C 
ATOM     12  H   UNL     1      -0.059  -3.992   6.034  0.00  0.00    +0.125 HD
ATOM     13  H   UNL     1      -1.189  -7.507   4.135  0.00  0.00    -0.081 HD
ENDROOT
BRANCH   1  19
ATOM     14  C   UNL     1      -2.152  -1.760  -1.884  0.00  0.00    +0.044 C 
ATOM     15  C   UNL     1      -1.021  -1.569  -0.906  0.00  0.00    -0.050 A 
ATOM     16  C   UNL     1       0.106  -0.861  -1.285  0.00  0.00    +0.003 A 
ATOM     17  C   UNL     1       1.148  -0.680  -0.393  0.00  0.00    +0.004 A 
ATOM     18  C   UNL     1       1.071  -1.206   0.880  0.00  0.00    -0.042 A 
ATOM     19  C   UNL     1      -0.064  -1.921   1.268  0.00  0.00    -0.001 A 
ATOM     20  C   UNL     1      -1.115  -2.095   0.365  0.00  0.00    +0.013 A 
ATOM     21  C   UNL     1       2.208  -1.009   1.849  0.00  0.00    +0.044 C 
ENDBRANCH   1  19
BRANCH  10  22
ATOM     22  C   UNL     1      -0.436  -1.453   6.269  0.00  0.00    +0.013 A 
ATOM     23  C   UNL     1       0.733  -1.606   6.990  0.00  0.00    +0.028 A 
ATOM     24  C   UNL     1       0.958  -0.834   8.116  0.00  0.00    +0.042 A 
ATOM     25  C   UNL     1       0.013   0.092   8.522  0.00  0.00    +0.023 A 
ATOM     26  C   UNL     1      -1.156   0.248   7.804  0.00  0.00    +0.047 A 
ATOM     27  C   UNL     1      -1.381  -0.521   6.671  0.00  0.00    +0.122 A 
ATOM     28 CL   UNL     1       2.426  -1.028   9.021  0.00  0.00    -0.084 Cl
BRANCH  27  29
ATOM     29  O   UNL     1      -2.528  -0.365   5.959  0.00  0.00    -0.506 OA
ATOM     30  H   UNL     1      -3.253  -0.934   6.252  0.00  0.00    +0.292 HD
ENDBRANCH  27  29
ENDBRANCH  10  22
BRANCH   6  31
ATOM     31  C   UNL     1      -1.529  -8.091   2.211  0.00  0.00    -0.075 C 
ATOM     32  C   UNL     1      -0.569  -9.281   2.279  0.00  0.00    -0.014 C 
ATOM     33  C   UNL     1      -2.955  -8.570   2.490  0.00  0.00    -0.014 C 
ENDBRANCH   6  31
TORSDOF 4
