REMARK  Name = ZINC37272717
REMARK  7 active torsions:
REMARK  status: ('A' for Active; 'I' for Inactive)
REMARK    1  A    between atoms: C_3  and  N_9
REMARK    2  A    between atoms: C_6  and  N_7
REMARK    3  A    between atoms: C_10  and  C_12
REMARK    4  A    between atoms: C_12  and  N_13
REMARK    5  A    between atoms: C_18  and  C_20
REMARK    6  A    between atoms: C_20  and  C_21
REMARK    7  A    between atoms: C_21  and  O_22
REMARK                            x       y       z     vdW  Elec       q    Type
REMARK                         _______ _______ _______ _____ _____    ______ ____
ROOT
ATOM      1  N   UNL     1       3.257   2.413   0.511  0.00  0.00    -0.286 N 
ATOM      2  C   UNL     1       3.351   3.740   0.294  0.00  0.00    +0.201 C 
ATOM      3  O   UNL     1       2.366   4.441   0.388  0.00  0.00    -0.278 OA
ATOM      4  H   UNL     1       4.056   1.863   0.505  0.00  0.00    +0.155 HD
ENDROOT
BRANCH   1   7
ATOM      5  C   UNL     1      -0.207   1.956   1.662  0.00  0.00    +0.024 A 
ATOM      6  C   UNL     1       1.027   2.532   1.433  0.00  0.00    +0.026 A 
ATOM      7  C   UNL     1       2.005   1.828   0.744  0.00  0.00    +0.048 A 
ATOM      8  C   UNL     1       1.742   0.543   0.285  0.00  0.00    +0.041 A 
ATOM      9  C   UNL     1       0.508  -0.034   0.515  0.00  0.00    +0.039 A 
ATOM     10  C   UNL     1      -0.470   0.672   1.204  0.00  0.00    +0.026 A 
ATOM     11 BR   UNL     1       3.074  -0.417  -0.653  0.00  0.00    -0.048 Br
BRANCH  10  12
ATOM     12  N   UNL     1      -1.720   0.089   1.436  0.00  0.00    -0.358 N 
ATOM     13  H   UNL     1      -2.403   0.582   1.917  0.00  0.00    +0.142 HD
ATOM     14  H   UNL     1      -1.904  -0.808   1.116  0.00  0.00    +0.142 HD
ENDBRANCH  10  12
ENDBRANCH   1   7
BRANCH   2  15
ATOM     15  C   UNL     1       4.680   4.352  -0.066  0.00  0.00    +0.019 C 
BRANCH  15  16
ATOM     16  N   UNL     1       4.518   5.801  -0.249  0.00  0.00    +0.387 N 
ATOM     17  C   UNL     1       3.669   6.052  -1.420  0.00  0.00    -0.078 C 
ATOM     18  C   UNL     1       3.430   7.556  -1.568  0.00  0.00    -0.019 C 
ATOM     19  C   UNL     1       4.776   8.266  -1.750  0.00  0.00    -0.003 C 
ATOM     20  C   UNL     1       5.680   7.936  -0.559  0.00  0.00    -0.015 C 
ATOM     21  C   UNL     1       5.835   6.418  -0.448  0.00  0.00    -0.066 C 
ATOM     22  H   UNL     1       4.083   6.196   0.571  0.00  0.00    -0.081 HD
BRANCH  21  23
ATOM     23  C   UNL     1       6.739   6.083   0.740  0.00  0.00    +0.012 C 
BRANCH  23  24
ATOM     24  C   UNL     1       8.137   6.654   0.494  0.00  0.00    +0.154 C 
BRANCH  24  25
ATOM     25  O   UNL     1       9.012   6.240   1.546  0.00  0.00    -0.395 OA
ATOM     26  H   UNL     1       9.918   6.566   1.455  0.00  0.00    +0.209 HD
ENDBRANCH  24  25
ENDBRANCH  23  24
ENDBRANCH  21  23
ENDBRANCH  15  16
ENDBRANCH   2  15
TORSDOF 7
