REMARK  Name = ZINC42866639
REMARK  8 active torsions:
REMARK  status: ('A' for Active; 'I' for Inactive)
REMARK    1  A    between atoms: C_1  and  C_2
REMARK    2  A    between atoms: C_8  and  C_10
REMARK    3  A    between atoms: C_10  and  N_11
REMARK    4  A    between atoms: N_11  and  S_12
REMARK    5  A    between atoms: S_12  and  C_15
REMARK    6  A    between atoms: C_15  and  C_16
REMARK    7  A    between atoms: C_20  and  C_22
REMARK    8  A    between atoms: C_22  and  N_23
REMARK                            x       y       z     vdW  Elec       q    Type
REMARK                         _______ _______ _______ _____ _____    ______ ____
ROOT
ATOM      1  S   UNL     1       0.477   0.304   5.147  0.00  0.00    +0.033 S 
ATOM      2  O   UNL     1       1.414  -0.277   6.044  0.00  0.00    -0.158 OA
ATOM      3  O   UNL     1       0.493   1.701   4.888  0.00  0.00    -0.158 OA
ENDROOT
BRANCH   1   4
ATOM      4  N   UNL     1       0.799  -0.401   3.684  0.00  0.00    -0.194 NA
ATOM      5  H   UNL     1       1.500  -1.068   3.611  0.00  0.00    +0.148 HD
BRANCH   4   6
ATOM      6  C   UNL     1       0.026  -0.018   2.500  0.00  0.00    +0.109 C 
BRANCH   6  13
ATOM      7  C   UNL     1      -0.019   1.526   0.010  0.00  0.00    +0.008 C 
ATOM      8  C   UNL     1       0.002  -0.004   0.002  0.00  0.00    -0.010 C 
ATOM      9  C   UNL     1       0.718  -0.497  -1.257  0.00  0.00    +0.003 C 
ATOM     10  C   UNL     1       0.739  -2.027  -1.265  0.00  0.00    +0.000 C 
ATOM     11  C   UNL     1       1.479  -2.534  -0.026  0.00  0.00    +0.000 C 
ATOM     12  C   UNL     1       0.763  -2.041   1.233  0.00  0.00    +0.005 C 
ATOM     13  C   UNL     1       0.742  -0.511   1.242  0.00  0.00    +0.007 C 
ENDBRANCH   6  13
ENDBRANCH   4   6
ENDBRANCH   1   4
BRANCH   1  14
ATOM     14  C   UNL     1      -1.204  -0.235   5.565  0.00  0.00    +0.220 C 
BRANCH  14  15
ATOM     15  C   UNL     1      -1.605   0.354   6.893  0.00  0.00    -0.025 A 
ATOM     16  C   UNL     1      -1.337  -0.332   8.063  0.00  0.00    +0.005 A 
ATOM     17  C   UNL     1      -1.705   0.208   9.281  0.00  0.00    +0.001 A 
ATOM     18  C   UNL     1      -2.340   1.435   9.329  0.00  0.00    +0.002 A 
ATOM     19  C   UNL     1      -2.607   2.121   8.160  0.00  0.00    -0.065 A 
ATOM     20  C   UNL     1      -2.235   1.583   6.942  0.00  0.00    +0.007 A 
BRANCH  19  21
ATOM     21  C   UNL     1      -3.300   3.458   8.212  0.00  0.00    -0.051 C 
BRANCH  21  22
ATOM     22  N   UNL     1      -2.297   4.526   8.321  0.00  0.00    +0.381 N 
ATOM     23  H   UNL     1      -2.761   5.421   8.356  0.00  0.00    -0.090 HD
ATOM     24  H   UNL     1      -1.755   4.394   9.162  0.00  0.00    -0.090 HD
ATOM     25  H   UNL     1      -1.685   4.495   7.519  0.00  0.00    -0.090 HD
ENDBRANCH  21  22
ENDBRANCH  19  21
ENDBRANCH  14  15
ENDBRANCH   1  14
TORSDOF 7
