REMARK  Name = ZINC63686568
REMARK  14 active torsions:
REMARK  status: ('A' for Active; 'I' for Inactive)
REMARK    1  A    between atoms: C_1  and  C_2
REMARK    2  A    between atoms: C_2  and  N_3
REMARK    3  A    between atoms: C_4  and  C_25
REMARK    4  A    between atoms: C_8  and  S_10
REMARK    5  A    between atoms: S_10  and  C_11
REMARK    6  A    between atoms: C_11  and  C_12
REMARK    7  A    between atoms: C_15  and  C_24
REMARK    8  A    between atoms: C_17  and  C_23
REMARK    9  A    between atoms: C_25  and  O_26
REMARK   10  A    between atoms: O_26  and  C_27
REMARK   11  A    between atoms: C_30  and  C_33
REMARK   12  A    between atoms: C_33  and  C_34
REMARK   13  A    between atoms: C_33  and  C_35
REMARK   14  A    between atoms: C_33  and  C_36
REMARK                            x       y       z     vdW  Elec       q    Type
REMARK                         _______ _______ _______ _____ _____    ______ ____
ROOT
ATOM      1  N   UNL     1       0.690  -0.478  -1.207  0.00  0.00    -0.259 NA
ATOM      2  C   UNL     1       0.896  -1.940  -1.159  0.00  0.00    +0.178 C 
ATOM      3  N   UNL     1       0.203  -2.502  -2.341  0.00  0.00    -0.234 NA
ATOM      4  N   UNL     1       0.135  -1.383  -3.294  0.00  0.00    -0.229 NA
ATOM      5  C   UNL     1      -0.120  -0.210  -2.417  0.00  0.00    +0.200 C 
ATOM      6  H   UNL     1      -0.721  -2.826  -2.097  0.00  0.00    +0.142 HD
ATOM      7  H   UNL     1       1.007  -1.280  -3.792  0.00  0.00    +0.143 HD
ENDROOT
BRANCH   1   9
ATOM      8  C   UNL     1      -0.019   1.526   0.010  0.00  0.00    +0.020 C 
ATOM      9  C   UNL     1       0.002  -0.004   0.002  0.00  0.00    +0.085 C 
ENDBRANCH   1   9
BRANCH   5  10
ATOM     10  S   UNL     1       0.430   1.318  -3.225  0.00  0.00    -0.119 S 
BRANCH  10  11
ATOM     11  C   UNL     1       2.167   0.995  -3.638  0.00  0.00    +0.125 C 
BRANCH  11  12
ATOM     12  C   UNL     1       2.753   2.202  -4.323  0.00  0.00    +0.030 A 
ATOM     13  N   UNL     1       2.412   2.449  -5.611  0.00  0.00    -0.357 N 
ATOM     14  C   UNL     1       2.913   3.535  -6.295  0.00  0.00    +0.053 A 
ATOM     15  C   UNL     1       2.556   3.780  -7.617  0.00  0.00    -0.026 A 
ATOM     16  C   UNL     1       3.075   4.875  -8.273  0.00  0.00    +0.008 A 
ATOM     17  C   UNL     1       3.951   5.738  -7.628  0.00  0.00    -0.049 A 
ATOM     18  C   UNL     1       4.314   5.515  -6.329  0.00  0.00    +0.017 A 
ATOM     19  C   UNL     1       3.800   4.412  -5.647  0.00  0.00    +0.045 A 
ATOM     20  C   UNL     1       4.165   4.135  -4.247  0.00  0.00    +0.190 A 
ATOM     21  O   UNL     1       4.931   4.864  -3.638  0.00  0.00    -0.287 OA
ATOM     22  C   UNL     1       3.594   2.997  -3.630  0.00  0.00    +0.073 A 
ATOM     23  C   UNL     1       4.506   6.929  -8.366  0.00  0.00    +0.044 C 
ATOM     24  C   UNL     1       1.607   2.851  -8.330  0.00  0.00    +0.046 C 
ATOM     25  H   UNL     1       1.800   1.847  -6.062  0.00  0.00    +0.166 HD
ENDBRANCH  11  12
ENDBRANCH  10  11
ENDBRANCH   5  10
BRANCH   2  26
ATOM     26  C   UNL     1       2.391  -2.261  -1.226  0.00  0.00    +0.265 C 
BRANCH  26  27
ATOM     27  O   UNL     1       2.934  -1.749  -2.444  0.00  0.00    -0.489 OA
BRANCH  27  28
ATOM     28  C   UNL     1       4.261  -1.951  -2.661  0.00  0.00    +0.121 A 
ATOM     29  C   UNL     1       5.022  -2.632  -1.723  0.00  0.00    +0.046 A 
ATOM     30  C   UNL     1       6.370  -2.837  -1.945  0.00  0.00    +0.008 A 
ATOM     31  C   UNL     1       6.961  -2.362  -3.102  0.00  0.00    -0.042 A 
ATOM     32  C   UNL     1       6.204  -1.681  -4.038  0.00  0.00    +0.008 A 
ATOM     33  C   UNL     1       4.854  -1.480  -3.823  0.00  0.00    +0.046 A 
BRANCH  31  34
ATOM     34  C   UNL     1       8.431  -2.585  -3.342  0.00  0.00    -0.013 C 
ATOM     35  C   UNL     1       8.722  -4.087  -3.368  0.00  0.00    +0.015 C 
ATOM     36  C   UNL     1       8.829  -1.966  -4.683  0.00  0.00    +0.015 C 
ATOM     37  C   UNL     1       9.237  -1.930  -2.219  0.00  0.00    +0.015 C 
ENDBRANCH  31  34
ENDBRANCH  27  28
ENDBRANCH  26  27
ENDBRANCH   2  26
TORSDOF 8
