REMARK  Name = ZINC40757703
REMARK  9 active torsions:
REMARK  status: ('A' for Active; 'I' for Inactive)
REMARK    1  A    between atoms: C_1  and  C_2
REMARK    2  A    between atoms: C_2  and  C_26
REMARK    3  A    between atoms: C_4  and  N_10
REMARK    4  A    between atoms: C_6  and  C_8
REMARK    5  A    between atoms: C_6  and  C_9
REMARK    6  A    between atoms: C_12  and  N_25
REMARK    7  A    between atoms: C_13  and  N_17
REMARK    8  A    between atoms: N_17  and  C_18
REMARK    9  A    between atoms: N_17  and  C_19
REMARK                            x       y       z     vdW  Elec       q    Type
REMARK                         _______ _______ _______ _____ _____    ______ ____
ROOT
ATOM      1  N   UNL     1       2.736  -0.992  -2.497  0.00  0.00    -0.325 N 
ATOM      2  C   UNL     1       3.905  -0.469  -3.037  0.00  0.00    +0.145 A 
ATOM      3  C   UNL     1       4.362  -0.895  -4.285  0.00  0.00    +0.104 A 
ATOM      4  C   UNL     1       5.542  -0.337  -4.781  0.00  0.00    +0.128 A 
ATOM      5  N   UNL     1       6.181   0.574  -4.050  0.00  0.00    -0.333 N 
ATOM      6  C   UNL     1       5.714   0.949  -2.876  0.00  0.00    +0.200 A 
ATOM      7  N   UNL     1       4.602   0.451  -2.374  0.00  0.00    -0.221 NA
ATOM      8  H   UNL     1       2.233  -1.662  -2.987  0.00  0.00    +0.148 HD
ATOM      9  H   UNL     1       7.001   0.967  -4.386  0.00  0.00    +0.168 HD
ENDROOT
BRANCH   1  13
ATOM     10  C   UNL     1       0.214   1.234   0.346  0.00  0.00    -0.010 C 
ATOM     11  C   UNL     1       0.234  -0.297   0.270  0.00  0.00    -0.072 C 
ATOM     12  C   UNL     1       0.750  -0.738  -1.096  0.00  0.00    +0.009 C 
ATOM     13  C   UNL     1       2.262  -0.531  -1.187  0.00  0.00    +0.069 C 
ATOM     14  C   UNL     1       2.923  -1.365  -0.089  0.00  0.00    +0.009 C 
ATOM     15  C   UNL     1       2.424  -0.929   1.284  0.00  0.00    -0.072 C 
ATOM     16  N   UNL     1       0.976  -0.871   1.378  0.00  0.00    +0.386 N 
ATOM     17  C   UNL     1       3.060   0.412   1.665  0.00  0.00    -0.010 C 
ATOM     18  C   UNL     1       2.921  -1.974   2.309  0.00  0.00    -0.010 C 
ATOM     19  C   UNL     1      -1.232  -0.775   0.386  0.00  0.00    -0.010 C 
ATOM     20  H   UNL     1       0.729  -0.357   2.230  0.00  0.00    -0.084 HD
ATOM     21  H   UNL     1       0.627  -1.822   1.538  0.00  0.00    -0.084 HD
ENDBRANCH   1  13
BRANCH   3  22
ATOM     22  N   UNL     1       3.656  -1.859  -5.022  0.00  0.00    -0.353 N 
ATOM     23  H   UNL     1       2.879  -2.292  -4.635  0.00  0.00    +0.143 HD
ATOM     24  H   UNL     1       3.944  -2.093  -5.918  0.00  0.00    +0.143 HD
ENDBRANCH   3  22
BRANCH   4  25
ATOM     25  N   UNL     1       6.042  -0.727  -6.018  0.00  0.00    -0.288 N 
ATOM     26  C   UNL     1       6.889  -1.917  -6.124  0.00  0.00    +0.137 C 
BRANCH  25  27
ATOM     27  C   UNL     1       5.737   0.018  -7.161  0.00  0.00    +0.035 A 
ATOM     28  C   UNL     1       4.857   1.090  -7.079  0.00  0.00    +0.023 A 
ATOM     29  C   UNL     1       4.558   1.823  -8.210  0.00  0.00    +0.002 A 
ATOM     30  C   UNL     1       5.132   1.491  -9.424  0.00  0.00    +0.000 A 
ATOM     31  C   UNL     1       6.008   0.424  -9.509  0.00  0.00    +0.002 A 
ATOM     32  C   UNL     1       6.316  -0.310  -8.380  0.00  0.00    +0.023 A 
ENDBRANCH  25  27
ENDBRANCH   4  25
TORSDOF 4
