REMARK  Name = ZINC43090842
REMARK  9 active torsions:
REMARK  status: ('A' for Active; 'I' for Inactive)
REMARK    1  A    between atoms: C_1  and  C_2
REMARK    2  A    between atoms: C_2  and  C_3
REMARK    3  A    between atoms: C_3  and  C_5
REMARK    4  A    between atoms: C_3  and  N_24
REMARK    5  A    between atoms: C_5  and  C_7
REMARK    6  A    between atoms: C_5  and  N_14
REMARK    7  A    between atoms: C_19  and  C_21
REMARK    8  A    between atoms: C_21  and  C_22
REMARK    9  A    between atoms: C_22  and  O_23
REMARK                            x       y       z     vdW  Elec       q    Type
REMARK                         _______ _______ _______ _____ _____    ______ ____
ROOT
ATOM      1  C   UNL     1      -1.369  -2.213  -0.104  0.00  0.00    +0.074 C 
ENDROOT
BRANCH   1   2
ATOM      2  C   UNL     1      -1.444  -2.734   1.308  0.00  0.00    -0.018 A 
ATOM      3  C   UNL     1      -1.643  -1.858   2.359  0.00  0.00    +0.006 A 
ATOM      4  C   UNL     1      -1.711  -2.337   3.654  0.00  0.00    +0.000 A 
ATOM      5  C   UNL     1      -1.580  -3.691   3.899  0.00  0.00    +0.001 A 
ATOM      6  C   UNL     1      -1.381  -4.567   2.849  0.00  0.00    +0.015 A 
ATOM      7  C   UNL     1      -1.318  -4.090   1.552  0.00  0.00    +0.022 A 
ATOM      8 BR   UNL     1      -1.053  -5.289   0.115  0.00  0.00    -0.050 Br
ENDBRANCH   1   2
BRANCH   1   9
ATOM      9  N   UNL     1      -2.643  -2.471  -0.789  0.00  0.00    -0.294 NA
ATOM     10  C   UNL     1      -3.681  -1.534  -0.341  0.00  0.00    +0.085 C 
ATOM     11  C   UNL     1      -5.024  -1.923  -0.963  0.00  0.00    +0.015 C 
ATOM     12  C   UNL     1      -4.903  -1.889  -2.489  0.00  0.00    +0.003 C 
ATOM     13  C   UNL     1      -3.783  -2.837  -2.926  0.00  0.00    +0.019 C 
ATOM     14  C   UNL     1      -2.476  -2.422  -2.247  0.00  0.00    +0.059 C 
BRANCH  14  15
ATOM     15  C   UNL     1      -1.358  -3.379  -2.665  0.00  0.00    +0.046 C 
BRANCH  15  16
ATOM     16  C   UNL     1      -1.163  -3.304  -4.181  0.00  0.00    +0.157 C 
BRANCH  16  17
ATOM     17  O   UNL     1      -0.180  -4.261  -4.582  0.00  0.00    -0.395 OA
ATOM     18  H   UNL     1       0.051  -4.218  -5.520  0.00  0.00    +0.209 HD
ENDBRANCH  16  17
ENDBRANCH  15  16
ENDBRANCH  14  15
ENDBRANCH   1   9
BRANCH   1  19
ATOM     19  C   UNL     1      -1.101  -0.707  -0.078  0.00  0.00    -0.053 C 
BRANCH  19  20
ATOM     20  N   UNL     1      -1.136  -0.180  -1.449  0.00  0.00    +0.381 N 
ATOM     21  H   UNL     1      -0.645  -0.810  -2.064  0.00  0.00    -0.090 HD
ATOM     22  H   UNL     1      -2.095  -0.093  -1.751  0.00  0.00    -0.090 HD
ATOM     23  H   UNL     1      -0.692   0.726  -1.472  0.00  0.00    -0.090 HD
ENDBRANCH  19  20
BRANCH  19  25
ATOM     24  C   UNL     1       0.485   1.062   0.696  0.00  0.00    +0.002 C 
ATOM     25  C   UNL     1       0.277  -0.445   0.534  0.00  0.00    -0.018 C 
ENDBRANCH  19  25
ENDBRANCH   1  19
TORSDOF 8
