REMARK  Name = ZINC56821242
REMARK  10 active torsions:
REMARK  status: ('A' for Active; 'I' for Inactive)
REMARK    1  A    between atoms: C_1  and  C_2
REMARK    2  A    between atoms: C_2  and  C_28
REMARK    3  A    between atoms: C_4  and  N_10
REMARK    4  A    between atoms: C_6  and  C_8
REMARK    5  A    between atoms: C_6  and  C_9
REMARK    6  A    between atoms: N_13  and  C_14
REMARK    7  A    between atoms: C_14  and  C_15
REMARK    8  A    between atoms: N_18  and  C_20
REMARK    9  A    between atoms: C_23  and  O_26
REMARK   10  A    between atoms: O_26  and  C_27
REMARK                            x       y       z     vdW  Elec       q    Type
REMARK                         _______ _______ _______ _____ _____    ______ ____
ROOT
ATOM      1  N   UNL     1       2.615  -0.819  -2.626  0.00  0.00    -0.297 N 
ATOM      2  C   UNL     1       3.770  -0.334  -3.123  0.00  0.00    +0.300 C 
ATOM      3  O   UNL     1       4.376   0.532  -2.522  0.00  0.00    -0.253 OA
ATOM      4  N   UNL     1       4.255  -0.809  -4.288  0.00  0.00    -0.294 N 
ATOM      5  H   UNL     1       2.133  -1.510  -3.106  0.00  0.00    +0.151 HD
ATOM      6  H   UNL     1       3.772  -1.500  -4.768  0.00  0.00    +0.151 HD
ENDROOT
BRANCH   1  10
ATOM      7  C   UNL     1      -0.019   1.528   0.010  0.00  0.00    -0.010 C 
ATOM      8  C   UNL     1       0.002  -0.004   0.002  0.00  0.00    -0.072 C 
ATOM      9  C   UNL     1       0.573  -0.505  -1.321  0.00  0.00    +0.009 C 
ATOM     10  C   UNL     1       2.088  -0.301  -1.357  0.00  0.00    +0.072 C 
ATOM     11  C   UNL     1       2.703  -1.086  -0.198  0.00  0.00    +0.009 C 
ATOM     12  C   UNL     1       2.147  -0.590   1.133  0.00  0.00    -0.072 C 
ATOM     13  N   UNL     1       0.697  -0.529   1.164  0.00  0.00    +0.386 N 
ATOM     14  C   UNL     1       2.769   0.766   1.481  0.00  0.00    -0.010 C 
ATOM     15  C   UNL     1       2.600  -1.589   2.223  0.00  0.00    -0.010 C 
ATOM     16  C   UNL     1      -1.468  -0.478   0.079  0.00  0.00    -0.010 C 
ATOM     17  H   UNL     1       0.416   0.021   1.982  0.00  0.00    -0.084 HD
ATOM     18  H   UNL     1       0.341  -1.472   1.351  0.00  0.00    -0.084 HD
ENDBRANCH   1  10
BRANCH   4  19
ATOM     19  C   UNL     1       5.510  -0.282  -4.829  0.00  0.00    +0.163 C 
BRANCH  19  20
ATOM     20  C   UNL     1       5.827  -0.976  -6.129  0.00  0.00    +0.080 A 
ATOM     21  C   UNL     1       5.511  -0.504  -7.408  0.00  0.00    +0.046 A 
ATOM     22  C   UNL     1       5.962  -1.408  -8.309  0.00  0.00    +0.115 A 
ATOM     23  N   UNL     1       6.542  -2.418  -7.622  0.00  0.00    -0.240 N 
ATOM     24  N   UNL     1       6.449  -2.120  -6.257  0.00  0.00    -0.170 NA
BRANCH  23  25
ATOM     25  C   UNL     1       7.137  -3.560  -8.180  0.00  0.00    +0.066 A 
ATOM     26  C   UNL     1       7.169  -3.724  -9.558  0.00  0.00    +0.031 A 
ATOM     27  C   UNL     1       7.755  -4.847 -10.106  0.00  0.00    +0.048 A 
ATOM     28  C   UNL     1       8.312  -5.813  -9.280  0.00  0.00    +0.120 A 
ATOM     29  C   UNL     1       8.280  -5.649  -7.902  0.00  0.00    +0.048 A 
ATOM     30  C   UNL     1       7.699  -4.524  -7.353  0.00  0.00    +0.031 A 
BRANCH  28  31
ATOM     31  O   UNL     1       8.888  -6.919  -9.819  0.00  0.00    -0.495 OA
ATOM     32  C   UNL     1       9.441  -7.872  -8.910  0.00  0.00    +0.277 C 
ENDBRANCH  28  31
ENDBRANCH  23  25
ENDBRANCH  19  20
ENDBRANCH   4  19
TORSDOF 5
