REMARK  Name = ZINC63314842
REMARK  8 active torsions:
REMARK  status: ('A' for Active; 'I' for Inactive)
REMARK    1  A    between atoms: C_1  and  C_2
REMARK    2  A    between atoms: C_2  and  C_4
REMARK    3  A    between atoms: C_2  and  N_18
REMARK    4  A    between atoms: N_6  and  C_7
REMARK    5  A    between atoms: C_7  and  C_8
REMARK    6  A    between atoms: C_8  and  C_9
REMARK    7  A    between atoms: C_19  and  C_21
REMARK    8  A    between atoms: C_21  and  C_22
REMARK                            x       y       z     vdW  Elec       q    Type
REMARK                         _______ _______ _______ _____ _____    ______ ____
ROOT
ATOM      1  C   UNL     1      -0.019   1.526   0.010  0.00  0.00    +0.038 C 
ATOM      2  C   UNL     1       0.002  -0.004   0.002  0.00  0.00    +0.156 C 
ENDROOT
BRANCH   2   3
ATOM      3  C   UNL     1       0.731  -0.503   1.223  0.00  0.00    +0.233 C 
ATOM      4  O   UNL     1       1.725  -1.187   1.099  0.00  0.00    -0.274 OA
ATOM      5  N   UNL     1       0.278  -0.191   2.453  0.00  0.00    -0.313 N 
ATOM      6  H   UNL     1      -0.517   0.356   2.553  0.00  0.00    +0.149 HD
BRANCH   5   7
ATOM      7  C   UNL     1       0.986  -0.676   3.640  0.00  0.00    +0.108 C 
BRANCH   7   8
ATOM      8  C   UNL     1       0.270  -0.182   4.899  0.00  0.00    +0.052 C 
BRANCH   8   9
ATOM      9  C   UNL     1       0.999  -0.682   6.120  0.00  0.00    -0.040 C 
ATOM     10  C   UNL     1       1.935  -0.018   6.836  0.00  0.00    -0.001 A 
ATOM     11  C   UNL     1       2.533   1.315   6.697  0.00  0.00    +0.010 A 
ATOM     12  C   UNL     1       3.470   1.710   7.589  0.00  0.00    +0.001 A 
ATOM     13  C   UNL     1       3.884   0.880   8.639  0.00  0.00    +0.002 A 
ATOM     14  C   UNL     1       3.381  -0.358   8.832  0.00  0.00    +0.026 A 
ATOM     15  C   UNL     1       2.389  -0.876   7.954  0.00  0.00    +0.043 A 
ATOM     16  N   UNL     1       1.758  -2.025   7.930  0.00  0.00    -0.380 N 
ATOM     17  C   UNL     1       0.827  -2.023   6.796  0.00  0.00    +0.144 C 
ATOM     18  H   UNL     1       1.883  -2.752   8.559  0.00  0.00    +0.160 HD
ENDBRANCH   8   9
ENDBRANCH   7   8
ENDBRANCH   5   7
ENDBRANCH   2   3
BRANCH   2  19
ATOM     19  N   UNL     1       0.688  -0.476  -1.203  0.00  0.00    -0.304 N 
ATOM     20  C   UNL     1       0.006  -0.608  -2.358  0.00  0.00    +0.220 C 
ATOM     21  O   UNL     1      -1.175  -0.336  -2.400  0.00  0.00    -0.275 OA
ATOM     22  H   UNL     1       1.632  -0.695  -1.170  0.00  0.00    +0.149 HD
BRANCH  20  23
ATOM     23  C   UNL     1       0.712  -1.094  -3.598  0.00  0.00    +0.153 C 
BRANCH  23  24
ATOM     24  C   UNL     1      -0.267  -1.152  -4.743  0.00  0.00    +0.078 A 
ATOM     25  C   UNL     1       0.177  -1.602  -6.063  0.00  0.00    +0.011 A 
ATOM     26  C   UNL     1       1.497  -1.987  -6.304  0.00  0.00    +0.010 A 
ATOM     27  C   UNL     1       1.863  -2.401  -7.555  0.00  0.00    +0.001 A 
ATOM     28  C   UNL     1       0.939  -2.443  -8.591  0.00  0.00    +0.001 A 
ATOM     29  C   UNL     1      -0.370  -2.068  -8.382  0.00  0.00    +0.014 A 
ATOM     30  C   UNL     1      -0.767  -1.644  -7.115  0.00  0.00    +0.050 A 
ATOM     31  C   UNL     1      -2.146  -1.233  -6.827  0.00  0.00    +0.272 A 
ATOM     32  N   UNL     1      -2.458  -0.833  -5.577  0.00  0.00    -0.242 N 
ATOM     33  N   UNL     1      -1.506  -0.807  -4.556  0.00  0.00    -0.175 NA
ATOM     34  O   UNL     1      -2.994  -1.252  -7.702  0.00  0.00    -0.266 OA
ATOM     35  H   UNL     1      -3.368  -0.560  -5.381  0.00  0.00    +0.192 HD
ENDBRANCH  23  24
ENDBRANCH  20  23
ENDBRANCH   2  19
TORSDOF 7
