REMARK  Name = ZINC09871377
REMARK  7 active torsions:
REMARK  status: ('A' for Active; 'I' for Inactive)
REMARK    1  A    between atoms: C_4  and  S_26
REMARK    2  A    between atoms: C_5  and  N_7
REMARK    3  A    between atoms: C_8  and  C_10
REMARK    4  A    between atoms: C_10  and  N_55
REMARK    5  A    between atoms: C_14  and  C_16
REMARK    6  A    between atoms: S_26  and  C_27
REMARK    7  A    between atoms: C_27  and  C_28
REMARK                            x       y       z     vdW  Elec       q    Type
REMARK                         _______ _______ _______ _____ _____    ______ ____
ROOT
ATOM      1  N   UNL     1      -3.221   3.888  -3.796  0.00  0.00    -0.286 N 
ATOM      2  C   UNL     1      -2.856   3.010  -2.841  0.00  0.00    +0.201 C 
ATOM      3  O   UNL     1      -2.971   1.818  -3.037  0.00  0.00    -0.278 OA
ATOM      4  H   UNL     1      -3.190   4.841  -3.617  0.00  0.00    +0.155 HD
ENDROOT
BRANCH   1   9
ATOM      5  C   UNL     1      -4.789   1.790  -6.381  0.00  0.00    +0.002 A 
ATOM      6  C   UNL     1      -4.488   2.507  -7.525  0.00  0.00    +0.001 A 
ATOM      7  C   UNL     1      -3.769   3.683  -7.439  0.00  0.00    +0.016 A 
ATOM      8  C   UNL     1      -3.344   4.148  -6.202  0.00  0.00    +0.030 A 
ATOM      9  C   UNL     1      -3.647   3.425  -5.048  0.00  0.00    +0.047 A 
ATOM     10  C   UNL     1      -4.365   2.243  -5.145  0.00  0.00    +0.024 A 
BRANCH   8  11
ATOM     11  S   UNL     1      -2.427   5.648  -6.089  0.00  0.00    -0.114 S 
BRANCH  11  12
ATOM     12  C   UNL     1      -2.288   6.209  -7.809  0.00  0.00    +0.169 C 
BRANCH  12  13
ATOM     13  C   UNL     1      -1.514   7.501  -7.855  0.00  0.00    +0.221 C 
ATOM     14  O   UNL     1      -1.097   7.995  -6.830  0.00  0.00    -0.275 OA
ATOM     15  N   UNL     1      -1.286   8.107  -9.037  0.00  0.00    -0.329 N 
ATOM     16  H   UNL     1      -1.619   7.712  -9.858  0.00  0.00    +0.145 HD
ATOM     17  H   UNL     1      -0.788   8.939  -9.067  0.00  0.00    +0.145 HD
ENDBRANCH  12  13
ENDBRANCH  11  12
ENDBRANCH   8  11
ENDBRANCH   1   9
BRANCH   2  18
ATOM     18  C   UNL     1      -2.303   3.508  -1.531  0.00  0.00    +0.020 C 
BRANCH  18  23
ATOM     19  C   UNL     1      -0.816   1.618  -1.188  0.00  0.00    -0.077 C 
ATOM     20  C   UNL     1      -0.039   1.087   0.031  0.00  0.00    -0.020 C 
ATOM     21  C   UNL     1      -0.815   1.605   1.264  0.00  0.00    -0.013 C 
ATOM     22  C   UNL     1      -1.599   2.816   0.694  0.00  0.00    -0.037 C 
ATOM     23  N   UNL     1      -1.965   2.349  -0.652  0.00  0.00    +0.390 N 
ATOM     24  H   UNL     1      -2.777   1.723  -0.594  0.00  0.00    -0.080 HD
BRANCH  22  25
ATOM     25  C   UNL     1      -2.825   3.095   1.526  0.00  0.00    -0.057 A 
ATOM     26  C   UNL     1      -3.924   2.262   1.437  0.00  0.00    +0.006 A 
ATOM     27  C   UNL     1      -5.048   2.513   2.201  0.00  0.00    +0.049 A 
ATOM     28  C   UNL     1      -5.080   3.608   3.051  0.00  0.00    +0.162 A 
ATOM     29  C   UNL     1      -3.976   4.447   3.139  0.00  0.00    +0.162 A 
ATOM     30  C   UNL     1      -2.849   4.187   2.372  0.00  0.00    +0.051 A 
ATOM     31  O   UNL     1      -3.982   5.522   3.973  0.00  0.00    -0.485 OA
ATOM     32  C   UNL     1      -5.261   5.963   4.444  0.00  0.00    +0.270 C 
ATOM     33  C   UNL     1      -6.054   4.733   4.906  0.00  0.00    +0.270 C 
ATOM     34  O   UNL     1      -6.198   3.849   3.789  0.00  0.00    -0.485 OA
ENDBRANCH  22  25
ENDBRANCH  18  23
ENDBRANCH   2  18
TORSDOF 7
