REMARK  Name = ZINC58185381
REMARK  7 active torsions:
REMARK  status: ('A' for Active; 'I' for Inactive)
REMARK    1  A    between atoms: C_1  and  C_2
REMARK    2  A    between atoms: C_2  and  C_24
REMARK    3  A    between atoms: N_5  and  C_9
REMARK    4  A    between atoms: C_9  and  C_10
REMARK    5  A    between atoms: C_10  and  C_12
REMARK    6  A    between atoms: C_10  and  O_23
REMARK    7  A    between atoms: C_12  and  N_13
REMARK                            x       y       z     vdW  Elec       q    Type
REMARK                         _______ _______ _______ _____ _____    ______ ____
ROOT
ATOM      1  C   UNL     1      -2.593  -1.987   1.771  0.00  0.00    +0.147 C 
ENDROOT
BRANCH   1   6
ATOM      2  C   UNL     1      -0.019   1.526   0.010  0.00  0.00    +0.050 C 
ATOM      3  C   UNL     1       0.002  -0.004   0.002  0.00  0.00    +0.168 C 
ATOM      4  C   UNL     1      -1.404  -0.557   0.121  0.00  0.00    +0.254 C 
ATOM      5  O   UNL     1      -2.324  -0.392  -0.652  0.00  0.00    -0.272 OA
ATOM      6  N   UNL     1      -1.419  -1.272   1.263  0.00  0.00    -0.221 N 
ATOM      7  C   UNL     1      -0.231  -1.248   1.876  0.00  0.00    +0.310 C 
ATOM      8  O   UNL     1       0.001  -1.819   2.923  0.00  0.00    -0.252 OA
ATOM      9  N   UNL     1       0.679  -0.520   1.204  0.00  0.00    -0.279 N 
ATOM     10  H   UNL     1       1.602  -0.365   1.461  0.00  0.00    +0.152 HD
BRANCH   3  11
ATOM     11  C   UNL     1       0.673  -0.517  -1.246  0.00  0.00    +0.137 A 
ATOM     12  C   UNL     1       1.988  -0.767  -1.386  0.00  0.00    +0.047 A 
ATOM     13  C   UNL     1       2.178  -1.229  -2.709  0.00  0.00    +0.041 A 
ATOM     14  C   UNL     1       0.968  -1.234  -3.297  0.00  0.00    +0.195 A 
ATOM     15  O   UNL     1       0.060  -0.807  -2.405  0.00  0.00    -0.465 OA
ENDBRANCH   3  11
ENDBRANCH   1   6
BRANCH   1  16
ATOM     16  C   UNL     1      -2.601  -3.413   1.217  0.00  0.00    +0.116 C 
BRANCH  16  17
ATOM     17  O   UNL     1      -2.651  -3.369  -0.211  0.00  0.00    -0.392 OA
ATOM     18  H   UNL     1      -3.433  -2.921  -0.563  0.00  0.00    +0.210 HD
ENDBRANCH  16  17
BRANCH  16  19
ATOM     19  C   UNL     1      -3.827  -4.159   1.747  0.00  0.00    -0.045 C 
BRANCH  19  20
ATOM     20  N   UNL     1      -3.772  -5.561   1.313  0.00  0.00    +0.384 N 
ATOM     21  C   UNL     1      -5.001  -6.254   1.730  0.00  0.00    -0.074 C 
ATOM     22  C   UNL     1      -5.067  -7.604   1.014  0.00  0.00    +0.017 C 
ATOM     23  C   UNL     1      -3.767  -8.344   1.201  0.00  0.00    -0.048 A 
ATOM     24  C   UNL     1      -3.732  -9.704   0.938  0.00  0.00    +0.004 A 
ATOM     25  C   UNL     1      -2.559 -10.414   1.095  0.00  0.00    +0.000 A 
ATOM     26  C   UNL     1      -1.413  -9.765   1.517  0.00  0.00    +0.000 A 
ATOM     27  C   UNL     1      -1.447  -8.411   1.781  0.00  0.00    +0.002 A 
ATOM     28  C   UNL     1      -2.626  -7.696   1.625  0.00  0.00    -0.061 A 
ATOM     29  C   UNL     1      -2.619  -6.222   1.932  0.00  0.00    -0.043 C 
ATOM     30  H   UNL     1      -3.685  -5.601   0.309  0.00  0.00    -0.081 HD
ENDBRANCH  19  20
ENDBRANCH  16  19
ENDBRANCH   1  16
TORSDOF 6
