REMARK  Name = ZINC61642344
REMARK  10 active torsions:
REMARK  status: ('A' for Active; 'I' for Inactive)
REMARK    1  A    between atoms: C_1  and  C_2
REMARK    2  A    between atoms: C_2  and  C_4
REMARK    3  A    between atoms: C_2  and  N_23
REMARK    4  A    between atoms: C_4  and  C_6
REMARK    5  A    between atoms: C_4  and  N_12
REMARK    6  A    between atoms: N_15  and  C_18
REMARK    7  A    between atoms: C_18  and  C_19
REMARK    8  A    between atoms: C_19  and  N_20
REMARK    9  A    between atoms: N_20  and  C_21
REMARK   10  A    between atoms: N_20  and  C_22
REMARK                            x       y       z     vdW  Elec       q    Type
REMARK                         _______ _______ _______ _____ _____    ______ ____
ROOT
ATOM      1  C   UNL     1       0.742  -0.511   1.242  0.00  0.00    +0.079 C 
ENDROOT
BRANCH   1   2
ATOM      2  C   UNL     1       0.794  -2.016   1.305  0.00  0.00    +0.006 A 
ATOM      3  C   UNL     1       0.056  -2.864   2.062  0.00  0.00    +0.028 A 
ATOM      4  C   UNL     1       0.279  -4.225   1.954  0.00  0.00    +0.025 A 
ATOM      5  C   UNL     1       1.228  -4.669   1.095  0.00  0.00    +0.060 A 
ATOM      6  S   UNL     1       1.839  -3.143   0.397  0.00  0.00    -0.099 S 
ATOM      7 BR   UNL     1      -0.726  -5.447   2.990  0.00  0.00    -0.050 Br
ENDBRANCH   1   2
BRANCH   1   8
ATOM      8  N   UNL     1       2.101   0.032   1.370  0.00  0.00    -0.294 NA
ATOM      9  C   UNL     1       2.915  -0.302   0.192  0.00  0.00    +0.100 C 
ATOM     10  C   UNL     1       4.294   0.347   0.328  0.00  0.00    +0.099 C 
ATOM     11  N   UNL     1       4.937  -0.128   1.561  0.00  0.00    -0.302 NA
ATOM     12  C   UNL     1       4.124   0.205   2.738  0.00  0.00    +0.099 C 
ATOM     13  C   UNL     1       2.744  -0.444   2.602  0.00  0.00    +0.100 C 
BRANCH  11  14
ATOM     14  C   UNL     1       6.296   0.414   1.689  0.00  0.00    +0.066 C 
BRANCH  14  15
ATOM     15  C   UNL     1       7.020  -0.289   2.838  0.00  0.00    -0.064 C 
BRANCH  15  16
ATOM     16  N   UNL     1       8.379   0.254   2.967  0.00  0.00    +0.377 N 
ATOM     17  C   UNL     1       8.307   1.667   3.360  0.00  0.00    -0.097 C 
ATOM     18  C   UNL     1       9.114  -0.503   3.990  0.00  0.00    -0.097 C 
ATOM     19  H   UNL     1       8.857   0.175   2.082  0.00  0.00    -0.083 HD
ENDBRANCH  15  16
ENDBRANCH  14  15
ENDBRANCH  11  14
ENDBRANCH   1   8
BRANCH   1  21
ATOM     20  C   UNL     1       0.091   1.451  -0.162  0.00  0.00    -0.012 C 
ATOM     21  C   UNL     1       0.144  -0.077  -0.098  0.00  0.00    -0.056 C 
BRANCH  21  22
ATOM     22  N   UNL     1      -1.215  -0.620  -0.226  0.00  0.00    +0.381 N 
ATOM     23  H   UNL     1      -1.789  -0.271   0.527  0.00  0.00    -0.090 HD
ATOM     24  H   UNL     1      -1.610  -0.334  -1.110  0.00  0.00    -0.090 HD
ATOM     25  H   UNL     1      -1.180  -1.627  -0.184  0.00  0.00    -0.090 HD
ENDBRANCH  21  22
ENDBRANCH   1  21
TORSDOF 7
