REMARK  Name = ZINC12318122
REMARK  7 active torsions:
REMARK  status: ('A' for Active; 'I' for Inactive)
REMARK    1  A    between atoms: C_1  and  N_2
REMARK    2  A    between atoms: N_9  and  C_12
REMARK    3  A    between atoms: N_13  and  C1*_15
REMARK    4  A    between atoms: C2*_17  and  O2*_27
REMARK    5  A    between atoms: C3*_19  and  O3*_26
REMARK    6  A    between atoms: C4*_21  and  C5*_24
REMARK    7  A    between atoms: C5*_24  and  O5*_25
REMARK                            x       y       z     vdW  Elec       q    Type
REMARK                         _______ _______ _______ _____ _____    ______ ____
ROOT
ATOM      1  C   UNL     1       2.583   2.034   6.844  0.00  0.00    +0.136 C 
ATOM      2  N   UNL     1       3.027   1.510   5.550  0.00  0.00    -0.266 N 
ATOM      3  C   UNL     1       2.867   2.323   4.335  0.00  0.00    +0.201 C 
ATOM      4  C   UNL     1       3.376   1.683   3.016  0.00  0.00    +0.204 C 
ATOM      5  C   UNL     1       3.974   0.296   3.129  0.00  0.00    +0.247 C 
ATOM      6  O   UNL     1       4.395  -0.274   2.145  0.00  0.00    -0.273 OA
ATOM      7  N   UNL     1       4.017  -0.285   4.357  0.00  0.00    -0.227 N 
ATOM      8  C   UNL     1       3.579   0.290   5.478  0.00  0.00    +0.312 C 
ATOM      9  O   UNL     1       3.689  -0.339   6.512  0.00  0.00    -0.252 OA
ATOM     10  C   UNL     1       4.591  -1.629   4.452  0.00  0.00    +0.143 C 
ATOM     11  N   UNL     1       2.144   1.544   2.222  0.00  0.00    -0.280 N 
ATOM     12  C   UNL     1       1.102   2.032   2.951  0.00  0.00    +0.158 C 
ATOM     13  N   UNL     1       1.418   2.470   4.117  0.00  0.00    -0.359 N 
ATOM     14  H   UNL     1       0.757   2.864   4.797  0.00  0.00    +0.162 HD
ENDROOT
BRANCH  11  15
ATOM     15  C1* UNL     1       2.055   0.981   0.873  0.00  0.00    +0.239 C 
ATOM     16  C2* UNL     1       1.224  -0.317   0.900  0.00  0.00    +0.193 C 
ATOM     17  C3* UNL     1       0.002  -0.004   0.002  0.00  0.00    +0.178 C 
ATOM     18  C4* UNL     1      -0.019   1.546   0.011  0.00  0.00    +0.177 C 
ATOM     19  O4* UNL     1       1.380   1.902  -0.001  0.00  0.00    -0.348 OA
BRANCH  17  20
ATOM     20  O3* UNL     1       0.201  -0.504  -1.322  0.00  0.00    -0.386 OA
ATOM     21  H3* UNL     1      -0.495  -0.256  -1.945  0.00  0.00    +0.210 HD
ENDBRANCH  17  20
BRANCH  16  22
ATOM     22  O2* UNL     1       0.801  -0.615   2.232  0.00  0.00    -0.385 OA
ATOM     23  H2* UNL     1       0.228  -1.391   2.299  0.00  0.00    +0.210 HD
ENDBRANCH  16  22
BRANCH  18  24
ATOM     24  C5* UNL     1      -0.722   2.082  -1.238  0.00  0.00    +0.190 C 
BRANCH  24  25
ATOM     25  O5* UNL     1      -0.830   3.504  -1.150  0.00  0.00    -0.392 OA
ATOM     26  H5* UNL     1      -1.267   3.913  -1.910  0.00  0.00    +0.210 HD
ENDBRANCH  24  25
ENDBRANCH  18  24
ENDBRANCH  11  15
TORSDOF 5
