REMARK  Name = ZINC19800373
REMARK  12 active torsions:
REMARK  status: ('A' for Active; 'I' for Inactive)
REMARK    1  A    between atoms: C_1  and  C_2
REMARK    2  A    between atoms: C_2  and  O_3
REMARK    3  A    between atoms: O_3  and  C_4
REMARK    4  A    between atoms: C_5  and  O_28
REMARK    5  A    between atoms: C_8  and  C_10
REMARK    6  A    between atoms: N_11  and  N_12
REMARK    7  A    between atoms: N_15  and  N_16
REMARK    8  A    between atoms: C_17  and  C_18
REMARK    9  A    between atoms: C_20  and  O_25
REMARK   10  A    between atoms: C_21  and  O_24
REMARK   11  A    between atoms: O_25  and  C_26
REMARK   12  A    between atoms: C_26  and  C_27
REMARK                            x       y       z     vdW  Elec       q    Type
REMARK                         _______ _______ _______ _____ _____    ______ ____
ROOT
ATOM      1  N   UNL     1      -0.646  -7.119   1.244  0.00  0.00    -0.247 N 
ATOM      2  C   UNL     1      -0.537  -8.480   1.074  0.00  0.00    +0.210 C 
ATOM      3  N   UNL     1       0.068  -8.960   0.023  0.00  0.00    -0.369 N 
ATOM      4  N   UNL     1      -1.065  -9.336   2.014  0.00  0.00    -0.247 N 
ATOM      5  H   UNL     1      -1.096  -6.762   2.026  0.00  0.00    +0.192 HD
ATOM      6  H   UNL     1       0.146  -9.919  -0.097  0.00  0.00    +0.159 HD
ATOM      7  H   UNL     1      -1.516  -8.979   2.796  0.00  0.00    +0.192 HD
ATOM      8  H   UNL     1       0.441  -8.357  -0.639  0.00  0.00    +0.159 HD
ENDROOT
BRANCH   1  10
ATOM      9  C   UNL     1      -0.211  -4.964   0.447  0.00  0.00    +0.140 C 
ATOM     10  N   UNL     1      -0.108  -6.248   0.287  0.00  0.00    -0.179 NA
BRANCH   9  15
ATOM     11  C   UNL     1       0.777  -1.811  -1.336  0.00  0.00    +0.162 A 
ATOM     12  C   UNL     1       1.422  -2.329  -2.458  0.00  0.00    +0.158 A 
ATOM     13  C   UNL     1       1.533  -3.701  -2.627  0.00  0.00    +0.050 A 
ATOM     14  C   UNL     1       1.004  -4.560  -1.686  0.00  0.00    +0.013 A 
ATOM     15  C   UNL     1       0.355  -4.048  -0.559  0.00  0.00    -0.002 A 
ATOM     16  C   UNL     1       0.249  -2.665  -0.387  0.00  0.00    +0.059 A 
BRANCH  12  17
ATOM     17  O   UNL     1       1.945  -1.486  -3.388  0.00  0.00    -0.503 OA
ATOM     18  H   UNL     1       2.863  -1.235  -3.220  0.00  0.00    +0.292 HD
ENDBRANCH  12  17
BRANCH  11  19
ATOM     19  O   UNL     1       0.671  -0.465  -1.174  0.00  0.00    -0.489 OA
BRANCH  19  21
ATOM     20  C   UNL     1      -0.019   1.526   0.010  0.00  0.00    +0.048 C 
ATOM     21  C   UNL     1       0.002  -0.004   0.002  0.00  0.00    +0.226 C 
ENDBRANCH  19  21
ENDBRANCH  11  19
ENDBRANCH   9  15
ENDBRANCH   1  10
BRANCH   4  22
ATOM     22  N   UNL     1      -0.954 -10.722   1.841  0.00  0.00    -0.179 NA
ATOM     23  C   UNL     1      -1.453 -11.528   2.727  0.00  0.00    +0.140 C 
BRANCH  23  24
ATOM     24  C   UNL     1      -1.335 -12.987   2.546  0.00  0.00    -0.002 A 
ATOM     25  C   UNL     1      -1.877 -13.857   3.496  0.00  0.00    +0.059 A 
ATOM     26  C   UNL     1      -1.764 -15.223   3.320  0.00  0.00    +0.162 A 
ATOM     27  C   UNL     1      -1.112 -15.730   2.198  0.00  0.00    +0.158 A 
ATOM     28  C   UNL     1      -0.574 -14.867   1.255  0.00  0.00    +0.050 A 
ATOM     29  C   UNL     1      -0.688 -13.502   1.421  0.00  0.00    +0.013 A 
BRANCH  27  30
ATOM     30  O   UNL     1      -1.002 -17.075   2.028  0.00  0.00    -0.503 OA
ATOM     31  H   UNL     1      -1.735 -17.470   1.536  0.00  0.00    +0.292 HD
ENDBRANCH  27  30
BRANCH  26  32
ATOM     32  O   UNL     1      -2.290 -16.073   4.243  0.00  0.00    -0.489 OA
BRANCH  32  33
ATOM     33  C   UNL     1      -2.945 -15.484   5.369  0.00  0.00    +0.226 C 
ATOM     34  C   UNL     1      -3.467 -16.588   6.290  0.00  0.00    +0.048 C 
ENDBRANCH  32  33
ENDBRANCH  26  32
ENDBRANCH  23  24
ENDBRANCH   4  22
TORSDOF 10
