REMARK  Name = ZINC63390158
REMARK  6 active torsions:
REMARK  status: ('A' for Active; 'I' for Inactive)
REMARK    1  A    between atoms: C_6  and  C_11
REMARK    2  A    between atoms: N_13  and  C_14
REMARK    3  A    between atoms: C_14  and  C_15
REMARK    4  A    between atoms: C_15  and  N_16
REMARK    5  A    between atoms: C_17  and  C_19
REMARK    6  A    between atoms: N_21  and  C_22
REMARK                            x       y       z     vdW  Elec       q    Type
REMARK                         _______ _______ _______ _____ _____    ______ ____
ROOT
ATOM      1  C   UNL     1       3.338  -6.180  -2.688  0.00  0.00    +0.123 C 
ENDROOT
BRANCH   1   2
ATOM      2  N   UNL     1       3.813  -6.857  -3.898  0.00  0.00    -0.306 N 
ATOM      3  C   UNL     1       3.517  -8.156  -4.103  0.00  0.00    +0.299 C 
ATOM      4  O   UNL     1       2.857  -8.764  -3.287  0.00  0.00    -0.265 OA
ATOM      5  H   UNL     1       4.341  -6.371  -4.550  0.00  0.00    +0.149 HD
BRANCH   3   6
ATOM      6  C   UNL     1       4.001  -8.846  -5.337  0.00  0.00    +0.299 C 
ATOM      7  O   UNL     1       4.661  -8.238  -6.154  0.00  0.00    -0.265 OA
ATOM      8  N   UNL     1       3.704 -10.145  -5.543  0.00  0.00    -0.303 N 
ATOM      9  H   UNL     1       3.177 -10.631  -4.890  0.00  0.00    +0.149 HD
BRANCH   8  10
ATOM     10  C   UNL     1       4.179 -10.822  -6.753  0.00  0.00    +0.096 C 
ATOM     11  C   UNL     1       3.179 -10.598  -7.899  0.00  0.00    +0.046 C 
ATOM     12  C   UNL     1       3.497 -11.558  -9.071  0.00  0.00    +0.168 C 
ATOM     13  S   UNL     1       4.278 -12.989  -8.220  0.00  0.00    -0.029 S 
ATOM     14  O   UNL     1       3.404 -14.107  -8.298  0.00  0.00    -0.174 OA
ATOM     15  O   UNL     1       5.620 -13.118  -8.670  0.00  0.00    -0.174 OA
ATOM     16  C   UNL     1       4.283 -12.352  -6.492  0.00  0.00    +0.188 C 
ENDBRANCH   8  10
ENDBRANCH   3   6
ENDBRANCH   1   2
BRANCH   1  17
ATOM     17  C   UNL     1       3.809  -4.725  -2.700  0.00  0.00    +0.123 C 
BRANCH  17  20
ATOM     18  C   UNL     1       3.631  -2.749  -1.285  0.00  0.00    +0.239 C 
ATOM     19  O   UNL     1       4.291  -2.141  -2.101  0.00  0.00    -0.273 OA
ATOM     20  N   UNL     1       3.335  -4.048  -1.491  0.00  0.00    -0.312 N 
ATOM     21  H   UNL     1       2.807  -4.534  -0.838  0.00  0.00    +0.149 HD
BRANCH  18  27
ATOM     22  C   UNL     1      -0.016   1.348   0.009  0.00  0.00    +0.001 A 
ATOM     23  C   UNL     1       1.166   2.101   0.002  0.00  0.00    +0.002 A 
ATOM     24  C   UNL     1       2.391   1.535  -0.013  0.00  0.00    +0.026 A 
ATOM     25  C   UNL     1       2.529   0.120  -0.022  0.00  0.00    +0.043 A 
ATOM     26  N   UNL     1       3.587  -0.654  -0.037  0.00  0.00    -0.370 N 
ATOM     27  C   UNL     1       3.143  -2.053  -0.041  0.00  0.00    +0.190 C 
ATOM     28  C   UNL     1       1.631  -2.008  -0.025  0.00  0.00    +0.016 C 
ATOM     29  C   UNL     1       1.295  -0.698  -0.014  0.00  0.00    -0.004 A 
ATOM     30  C   UNL     1       0.002  -0.004   0.002  0.00  0.00    +0.010 A 
ATOM     31  H   UNL     1       4.509  -0.353  -0.045  0.00  0.00    +0.161 HD
ENDBRANCH  18  27
ENDBRANCH  17  20
ENDBRANCH   1  17
TORSDOF 6
