REMARK  Name = ZINC48024706
REMARK  6 active torsions:
REMARK  status: ('A' for Active; 'I' for Inactive)
REMARK    1  A    between atoms: C_3  and  O_9
REMARK    2  A    between atoms: O_9  and  C_10
REMARK    3  A    between atoms: C_10  and  C_11
REMARK    4  A    between atoms: C_11  and  N_12
REMARK    5  A    between atoms: C_15  and  C_18
REMARK    6  A    between atoms: C_18  and  C_19
REMARK                            x       y       z     vdW  Elec       q    Type
REMARK                         _______ _______ _______ _____ _____    ______ ____
ROOT
ATOM      1  N   UNL     1       5.529   3.797  -1.287  0.00  0.00    +0.382 N 
ATOM      2  C   UNL     1       4.816   4.433  -2.402  0.00  0.00    -0.078 C 
ATOM      3  C   UNL     1       5.460   4.018  -3.726  0.00  0.00    -0.015 C 
ATOM      4  C   UNL     1       6.926   4.462  -3.737  0.00  0.00    -0.006 C 
ATOM      5  C   UNL     1       7.642   3.853  -2.528  0.00  0.00    -0.015 C 
ATOM      6  C   UNL     1       6.917   4.274  -1.247  0.00  0.00    -0.078 C 
ATOM      7  H   UNL     1       5.522   2.796  -1.413  0.00  0.00    -0.082 HD
ENDROOT
BRANCH   1   8
ATOM      8  C   UNL     1       4.861   4.136  -0.024  0.00  0.00    -0.037 C 
BRANCH   8   9
ATOM      9  C   UNL     1       3.455   3.532  -0.013  0.00  0.00    +0.210 C 
BRANCH   9  10
ATOM     10  O   UNL     1       3.548   2.106  -0.021  0.00  0.00    -0.493 OA
BRANCH  10  13
ATOM     11  C   UNL     1      -0.017   1.379   0.010  0.00  0.00    +0.023 A 
ATOM     12  C   UNL     1       1.170   2.087   0.002  0.00  0.00    +0.048 A 
ATOM     13  C   UNL     1       2.380   1.411  -0.013  0.00  0.00    +0.134 A 
ATOM     14  C   UNL     1       2.397   0.023  -0.021  0.00  0.00    +0.061 A 
ATOM     15  C   UNL     1       1.209  -0.681  -0.013  0.00  0.00    +0.039 A 
ATOM     16  C   UNL     1       0.002  -0.004   0.002  0.00  0.00    +0.042 A 
ATOM     17 CL   UNL     1      -1.490  -0.891   0.011  0.00  0.00    -0.084 Cl
ATOM     18 BR   UNL     1       4.046  -0.903  -0.042  0.00  0.00    -0.046 Br
ENDBRANCH  10  13
ENDBRANCH   9  10
ENDBRANCH   8   9
ENDBRANCH   1   8
BRANCH   4  19
ATOM     19  C   UNL     1       7.597   3.981  -5.025  0.00  0.00    +0.099 C 
BRANCH  19  20
ATOM     20  C   UNL     1       9.002   4.522  -5.091  0.00  0.00    +0.211 C 
ATOM     21  O   UNL     1       9.425   5.223  -4.196  0.00  0.00    -0.276 OA
ATOM     22  N   UNL     1       9.789   4.226  -6.145  0.00  0.00    -0.329 N 
ATOM     23  H   UNL     1       9.450   3.666  -6.860  0.00  0.00    +0.145 HD
ATOM     24  H   UNL     1      10.693   4.574  -6.187  0.00  0.00    +0.145 HD
ENDBRANCH  19  20
ENDBRANCH   4  19
TORSDOF 6
