REMARK  Name = ZINC34756966
REMARK  6 active torsions:
REMARK  status: ('A' for Active; 'I' for Inactive)
REMARK    1  A    between atoms: C_1  and  C_2
REMARK    2  A    between atoms: C_5  and  O_8
REMARK    3  A    between atoms: O_8  and  C_9
REMARK    4  A    between atoms: N_18  and  C_21
REMARK    5  A    between atoms: N_24  and  S_26
REMARK    6  A    between atoms: S_26  and  C_29
REMARK                            x       y       z     vdW  Elec       q    Type
REMARK                         _______ _______ _______ _____ _____    ______ ____
ROOT
ATOM      1  C   UNL     1       0.187  -4.769   1.167  0.00  0.00    +0.230 A 
ATOM      2  C   UNL     1       0.313  -6.160   1.210  0.00  0.00    +0.052 A 
ATOM      3  C   UNL     1       0.428  -6.776   2.434  0.00  0.00    +0.056 A 
ATOM      4  N   UNL     1       0.403  -6.026   3.534  0.00  0.00    -0.219 NA
ATOM      5  C   UNL     1       0.281  -4.711   3.465  0.00  0.00    +0.221 A 
ATOM      6  N   UNL     1       0.182  -4.083   2.302  0.00  0.00    -0.179 NA
ATOM      7  N   UNL     1       0.261  -3.973   4.635  0.00  0.00    -0.303 N 
ATOM      8  C   UNL     1       0.498  -4.613   5.938  0.00  0.00    +0.089 C 
ATOM      9  C   UNL     1       1.570  -3.813   6.685  0.00  0.00    -0.060 C 
ATOM     10  N   UNL     1       1.160  -2.405   6.768  0.00  0.00    +0.380 N 
ATOM     11  C   UNL     1       1.098  -1.823   5.421  0.00  0.00    -0.060 C 
ATOM     12  C   UNL     1       0.009  -2.524   4.611  0.00  0.00    +0.089 C 
ATOM     13  C   UNL     1       2.132  -1.660   7.578  0.00  0.00    -0.096 C 
ATOM     14  C   UNL     1       0.599  -8.262   2.588  0.00  0.00    +0.073 C 
ATOM     15  C   UNL     1       0.134  -8.995   1.330  0.00  0.00    +0.116 C 
ATOM     16  N   UNL     1       0.720  -8.314   0.163  0.00  0.00    -0.172 NA
ATOM     17  C   UNL     1       0.309  -6.927  -0.086  0.00  0.00    +0.151 C 
ATOM     18  H   UNL     1       0.250  -2.346   7.200  0.00  0.00    -0.082 HD
ENDROOT
BRANCH  16  19
ATOM     19  S   UNL     1       1.800  -9.082  -0.829  0.00  0.00    +0.061 S 
ATOM     20  O   UNL     1       2.567  -8.065  -1.460  0.00  0.00    -0.153 OA
ATOM     21  O   UNL     1       2.396 -10.117  -0.057  0.00  0.00    -0.153 OA
BRANCH  19  22
ATOM     22  C   UNL     1       0.870  -9.873  -2.099  0.00  0.00    +0.106 A 
ATOM     23  C   UNL     1       0.418 -11.167  -1.920  0.00  0.00    +0.031 A 
ATOM     24  C   UNL     1      -0.312 -11.789  -2.916  0.00  0.00    +0.040 A 
ATOM     25  C   UNL     1      -0.590 -11.114  -4.093  0.00  0.00    +0.124 A 
ATOM     26  C   UNL     1      -0.137  -9.818  -4.270  0.00  0.00    +0.040 A 
ATOM     27  C   UNL     1       0.588  -9.197  -3.271  0.00  0.00    +0.031 A 
ATOM     28  F   UNL     1      -1.304 -11.720  -5.067  0.00  0.00    -0.205 F 
ENDBRANCH  19  22
ENDBRANCH  16  19
BRANCH   1  29
ATOM     29  O   UNL     1       0.077  -4.127  -0.021  0.00  0.00    -0.438 OA
BRANCH  29  34
ATOM     30  C   UNL     1       0.086   1.505   0.004  0.00  0.00    +0.044 C 
ATOM     31  C   UNL     1       0.084  -0.002  -0.002  0.00  0.00    -0.050 A 
ATOM     32  C   UNL     1      -1.077  -0.689  -0.305  0.00  0.00    +0.007 A 
ATOM     33  C   UNL     1      -1.082  -2.070  -0.312  0.00  0.00    +0.046 A 
ATOM     34  C   UNL     1       0.080  -2.768  -0.015  0.00  0.00    +0.130 A 
ATOM     35  C   UNL     1       1.244  -2.077   0.288  0.00  0.00    +0.046 A 
ATOM     36  C   UNL     1       1.244  -0.695   0.288  0.00  0.00    +0.007 A 
ENDBRANCH  29  34
ENDBRANCH   1  29
TORSDOF 4
