REMARK  Name = ZINC64048570
REMARK  4 active torsions:
REMARK  status: ('A' for Active; 'I' for Inactive)
REMARK    1  A    between atoms: C_4  and  C_7
REMARK    2  A    between atoms: C_13  and  C_14
REMARK    3  A    between atoms: N_16  and  N_17
REMARK    4  A    between atoms: C_18  and  C_20
REMARK                            x       y       z     vdW  Elec       q    Type
REMARK                         _______ _______ _______ _____ _____    ______ ____
ROOT
ATOM      1  C   UNL     1       2.556  -4.496   1.383  0.00  0.00    +0.254 C 
ATOM      2  O   UNL     1       2.381  -3.538   2.114  0.00  0.00    -0.269 OA
ATOM      3  N   UNL     1       2.120  -5.716   1.755  0.00  0.00    -0.231 N 
ATOM      4  H   UNL     1       2.259  -6.479   1.173  0.00  0.00    +0.173 HD
ENDROOT
BRANCH   1  10
ATOM      5  C   UNL     1       3.920  -0.737   0.168  0.00  0.00    +0.159 C 
ATOM      6  N   UNL     1       3.809  -2.110   0.697  0.00  0.00    -0.331 N 
ATOM      7  C   UNL     1       3.755  -3.135  -0.178  0.00  0.00    +0.020 C 
ATOM      8  C   UNL     1       4.344  -2.852  -1.555  0.00  0.00    +0.121 C 
ATOM      9  S   UNL     1       4.067  -1.025  -1.646  0.00  0.00    -0.128 S 
ATOM     10  C   UNL     1       3.215  -4.329   0.143  0.00  0.00    +0.088 C 
ATOM     11  H   UNL     1       3.775  -2.272   1.652  0.00  0.00    +0.147 HD
BRANCH   5  15
ATOM     12  C   UNL     1       0.413   1.530   1.068  0.00  0.00    +0.000 A 
ATOM     13  C   UNL     1       1.627   2.171   0.899  0.00  0.00    +0.000 A 
ATOM     14  C   UNL     1       2.761   1.437   0.608  0.00  0.00    +0.006 A 
ATOM     15  C   UNL     1       2.683   0.062   0.486  0.00  0.00    -0.017 A 
ATOM     16  C   UNL     1       1.470  -0.579   0.655  0.00  0.00    +0.006 A 
ATOM     17  C   UNL     1       0.335   0.155   0.945  0.00  0.00    +0.000 A 
ENDBRANCH   5  15
ENDBRANCH   1  10
BRANCH   3  18
ATOM     18  N   UNL     1       1.466  -5.882   2.983  0.00  0.00    -0.230 N 
ATOM     19  C   UNL     1       1.031  -7.101   3.356  0.00  0.00    +0.258 C 
ATOM     20  O   UNL     1       1.205  -8.059   2.626  0.00  0.00    -0.269 OA
ATOM     21  H   UNL     1       1.327  -5.118   3.566  0.00  0.00    +0.173 HD
BRANCH  19  22
ATOM     22  C   UNL     1       0.347  -7.275   4.641  0.00  0.00    +0.044 C 
ATOM     23  C   UNL     1      -0.151  -8.447   5.168  0.00  0.00    +0.008 A 
ATOM     24  C   UNL     1      -0.175  -9.783   4.694  0.00  0.00    +0.010 A 
ATOM     25  C   UNL     1      -0.743 -10.758   5.435  0.00  0.00    +0.001 A 
ATOM     26  C   UNL     1      -1.327 -10.509   6.688  0.00  0.00    +0.002 A 
ATOM     27  C   UNL     1      -1.358  -9.272   7.230  0.00  0.00    +0.026 A 
ATOM     28  C   UNL     1      -0.760  -8.151   6.488  0.00  0.00    +0.043 A 
ATOM     29  N   UNL     1      -0.650  -6.882   6.767  0.00  0.00    -0.380 N 
ATOM     30  C   UNL     1       0.046  -6.205   5.668  0.00  0.00    +0.154 C 
ATOM     31  H   UNL     1      -0.975  -6.455   7.575  0.00  0.00    +0.160 HD
ENDBRANCH  19  22
ENDBRANCH   3  18
TORSDOF 4
