REMARK  Name = ZINC67588880
REMARK  14 active torsions:
REMARK  status: ('A' for Active; 'I' for Inactive)
REMARK    1  A    between atoms: C_1  and  C_2
REMARK    2  A    between atoms: C_6  and  C_29
REMARK    3  A    between atoms: C_7  and  O_8
REMARK    4  A    between atoms: O_8  and  C_9
REMARK    5  A    between atoms: C_9  and  C_10
REMARK    6  A    between atoms: C_10  and  C_12
REMARK    7  A    between atoms: C_10  and  O_28
REMARK    8  A    between atoms: C_12  and  N_13
REMARK    9  A    between atoms: N_16  and  C_17
REMARK   10  A    between atoms: C_17  and  C_18
REMARK   11  A    between atoms: C_18  and  C_20
REMARK   12  A    between atoms: C_18  and  N_25
REMARK   13  A    between atoms: N_25  and  C_26
REMARK   14  A    between atoms: N_25  and  C_27
REMARK                            x       y       z     vdW  Elec       q    Type
REMARK                         _______ _______ _______ _____ _____    ______ ____
ROOT
ATOM      1  N   UNL     1      -1.987   2.356   6.095  0.00  0.00    -0.297 N 
ATOM      2  C   UNL     1      -3.084   2.743   6.776  0.00  0.00    +0.300 C 
ATOM      3  O   UNL     1      -4.184   2.363   6.424  0.00  0.00    -0.253 OA
ATOM      4  N   UNL     1      -2.961   3.550   7.848  0.00  0.00    -0.301 N 
ATOM      5  H   UNL     1      -1.110   2.659   6.376  0.00  0.00    +0.150 HD
ATOM      6  H   UNL     1      -2.084   3.853   8.130  0.00  0.00    +0.150 HD
ENDROOT
BRANCH   1   7
ATOM      7  C   UNL     1      -2.120   1.478   4.930  0.00  0.00    +0.140 C 
BRANCH   7   8
ATOM      8  C   UNL     1      -0.736   1.193   4.345  0.00  0.00    +0.169 C 
BRANCH   8   9
ATOM      9  O   UNL     1       0.038   0.452   5.290  0.00  0.00    -0.387 OA
ATOM     10  H   UNL     1      -0.350  -0.400   5.533  0.00  0.00    +0.210 HD
ENDBRANCH   8   9
BRANCH   8  11
ATOM     11  C   UNL     1      -0.884   0.380   3.057  0.00  0.00    +0.261 C 
BRANCH  11  12
ATOM     12  O   UNL     1       0.399   0.214   2.449  0.00  0.00    -0.489 OA
BRANCH  12  19
ATOM     13  C   UNL     1       0.101   1.656   0.038  0.00  0.00    +0.047 C 
ATOM     14  C   UNL     1       0.304   0.164   0.072  0.00  0.00    -0.009 A 
ATOM     15  C   UNL     1       0.357  -0.554  -1.107  0.00  0.00    +0.007 A 
ATOM     16  C   UNL     1       0.543  -1.924  -1.077  0.00  0.00    +0.001 A 
ATOM     17  C   UNL     1       0.677  -2.579   0.134  0.00  0.00    +0.007 A 
ATOM     18  C   UNL     1       0.625  -1.866   1.316  0.00  0.00    -0.009 A 
ATOM     19  C   UNL     1       0.444  -0.490   1.288  0.00  0.00    +0.126 A 
ATOM     20  C   UNL     1       0.772  -2.580   2.635  0.00  0.00    +0.047 C 
ENDBRANCH  12  19
ENDBRANCH  11  12
ENDBRANCH   8  11
ENDBRANCH   7   8
ENDBRANCH   1   7
BRANCH   4  21
ATOM     21  C   UNL     1      -4.153   3.971   8.589  0.00  0.00    +0.095 C 
BRANCH  21  22
ATOM     22  C   UNL     1      -3.732   4.782   9.816  0.00  0.00    -0.014 C 
BRANCH  22  23
ATOM     23  C   UNL     1      -3.056   6.053   9.369  0.00  0.00    -0.022 A 
ATOM     24  C   UNL     1      -1.732   6.334   9.292  0.00  0.00    +0.009 A 
ATOM     25  C   UNL     1      -1.337   7.582   8.848  0.00  0.00    +0.008 A 
ATOM     26  C   UNL     1      -2.284   8.488   8.503  0.00  0.00    +0.045 A 
ATOM     27  S   UNL     1      -3.791   7.577   8.798  0.00  0.00    -0.103 S 
ENDBRANCH  22  23
BRANCH  22  28
ATOM     28  N   UNL     1      -4.919   5.114  10.615  0.00  0.00    +0.382 N 
ATOM     29  C   UNL     1      -5.558   3.875  11.078  0.00  0.00    -0.096 C 
ATOM     30  C   UNL     1      -4.518   5.921  11.775  0.00  0.00    -0.096 C 
ATOM     31  H   UNL     1      -5.570   5.637  10.049  0.00  0.00    -0.082 HD
ENDBRANCH  22  28
ENDBRANCH  21  22
ENDBRANCH   4  21
TORSDOF 10
