REMARK  Name = ZINC07661253
REMARK  9 active torsions:
REMARK  status: ('A' for Active; 'I' for Inactive)
REMARK    1  A    between atoms: C_1  and  C_2
REMARK    2  A    between atoms: C_2  and  C_3
REMARK    3  A    between atoms: C_6  and  C_9
REMARK    4  A    between atoms: C_9  and  C_11
REMARK    5  A    between atoms: C_9  and  N_51
REMARK    6  A    between atoms: C_16  and  C_17
REMARK    7  A    between atoms: C_16  and  N_51
REMARK    8  A    between atoms: N_19  and  C_20
REMARK    9  A    between atoms: C_21  and  C_28
REMARK                            x       y       z     vdW  Elec       q    Type
REMARK                         _______ _______ _______ _____ _____    ______ ____
ROOT
ATOM      1  N   UNL     1       1.921  -2.500   0.858  0.00  0.00    +0.392 N 
ATOM      2  H   UNL     1       2.170  -3.447   0.549  0.00  0.00    -0.084 HD
ATOM      3  H   UNL     1       0.901  -2.382   0.812  0.00  0.00    -0.084 HD
ENDROOT
BRANCH   1   4
ATOM      4  C   UNL     1       2.565  -1.514  -0.030  0.00  0.00    -0.003 C 
BRANCH   4   8
ATOM      5  C   UNL     1       2.682  -3.073  -4.005  0.00  0.00    -0.048 A 
ATOM      6  C   UNL     1       3.762  -2.370  -3.507  0.00  0.00    +0.004 A 
ATOM      7  C   UNL     1       3.724  -1.865  -2.220  0.00  0.00    +0.002 A 
ATOM      8  C   UNL     1       2.606  -2.064  -1.433  0.00  0.00    -0.057 A 
ATOM      9  C   UNL     1       1.527  -2.771  -1.930  0.00  0.00    +0.002 A 
ATOM     10  C   UNL     1       1.563  -3.271  -3.218  0.00  0.00    +0.004 A 
BRANCH   5  12
ATOM     11  C   UNL     1       3.306  -5.037  -5.384  0.00  0.00    +0.009 C 
ATOM     12  C   UNL     1       2.723  -3.623  -5.408  0.00  0.00    +0.032 C 
ENDBRANCH   5  12
ENDBRANCH   4   8
BRANCH   4  13
ATOM     13  C   UNL     1       1.773  -0.232  -0.016  0.00  0.00    -0.020 A 
ATOM     14  C   UNL     1       2.220   1.048  -0.013  0.00  0.00    +0.010 A 
ATOM     15  C   UNL     1       1.300   2.079   0.001  0.00  0.00    +0.008 A 
ATOM     16  C   UNL     1      -0.022   1.781   0.012  0.00  0.00    +0.045 A 
ATOM     17  S   UNL     1       0.002  -0.004   0.002  0.00  0.00    -0.103 S 
ENDBRANCH   4  13
ENDBRANCH   1   4
BRANCH   1  18
ATOM     18  C   UNL     1       2.371  -2.308   2.249  0.00  0.00    +0.016 C 
BRANCH  18  19
ATOM     19  C   UNL     1       1.698  -3.327   3.131  0.00  0.00    +0.201 C 
ATOM     20  O   UNL     1       0.925  -4.129   2.651  0.00  0.00    -0.278 OA
ATOM     21  N   UNL     1       1.955  -3.348   4.454  0.00  0.00    -0.281 N 
ATOM     22  H   UNL     1       2.573  -2.707   4.838  0.00  0.00    +0.155 HD
BRANCH  21  23
ATOM     23  C   UNL     1       1.335  -4.287   5.267  0.00  0.00    +0.090 A 
ATOM     24  C   UNL     1       1.474  -4.468   6.632  0.00  0.00    +0.084 A 
ATOM     25  C   UNL     1       0.697  -5.538   7.256  0.00  0.00    -0.018 A 
ATOM     26  C   UNL     1      -0.075  -6.249   6.413  0.00  0.00    -0.004 A 
ATOM     27  S   UNL     1       0.207  -5.520   4.818  0.00  0.00    -0.077 S 
ATOM     28  C   UNL     1      -0.840  -7.331   7.127  0.00  0.00    +0.043 C 
ATOM     29  C   UNL     1      -0.776  -6.934   8.618  0.00  0.00    +0.010 C 
ATOM     30  C   UNL     1       0.520  -6.101   8.667  0.00  0.00    +0.037 C 
BRANCH  24  31
ATOM     31  C   UNL     1       2.344  -3.635   7.406  0.00  0.00    +0.102 C 
ATOM     32  N   UNL     1       3.034  -2.974   8.020  0.00  0.00    -0.191 NA
ENDBRANCH  24  31
ENDBRANCH  21  23
ENDBRANCH  18  19
ENDBRANCH   1  18
TORSDOF 8
