REMARK  Name = ZINC40700985
REMARK  6 active torsions:
REMARK  status: ('A' for Active; 'I' for Inactive)
REMARK    1  A    between atoms: C_4  and  N_7
REMARK    2  A    between atoms: N_7  and  C_8
REMARK    3  A    between atoms: N_7  and  N_14
REMARK    4  A    between atoms: C_16  and  N_30
REMARK    5  A    between atoms: C_17  and  N_21
REMARK    6  A    between atoms: N_21  and  C_22
REMARK                            x       y       z     vdW  Elec       q    Type
REMARK                         _______ _______ _______ _____ _____    ______ ____
ROOT
ATOM      1  N   UNL     1       5.299  -0.565  -0.583  0.00  0.00    -0.242 N 
ATOM      2  C   UNL     1       6.118   0.018   0.377  0.00  0.00    +0.161 A 
ATOM      3  C   UNL     1       7.133   0.901   0.001  0.00  0.00    +0.105 A 
ATOM      4  C   UNL     1       7.926   1.459   1.004  0.00  0.00    +0.126 A 
ATOM      5  N   UNL     1       7.688   1.131   2.272  0.00  0.00    -0.333 N 
ATOM      6  C   UNL     1       6.720   0.293   2.584  0.00  0.00    +0.200 A 
ATOM      7  N   UNL     1       5.945  -0.252   1.668  0.00  0.00    -0.219 NA
ATOM      8  H   UNL     1       5.433  -0.363  -1.522  0.00  0.00    +0.172 HD
ATOM      9  H   UNL     1       8.234   1.514   2.976  0.00  0.00    +0.168 HD
ENDROOT
BRANCH   3  10
ATOM     10  N   UNL     1       7.349   1.219  -1.350  0.00  0.00    -0.353 N 
ATOM     11  H   UNL     1       6.790   0.823  -2.037  0.00  0.00    +0.143 HD
ATOM     12  H   UNL     1       8.058   1.834  -1.596  0.00  0.00    +0.143 HD
ENDBRANCH   3  10
BRANCH   4  13
ATOM     13  N   UNL     1       8.951   2.344   0.685  0.00  0.00    -0.299 N 
ATOM     14  H   UNL     1       9.059   2.651  -0.229  0.00  0.00    +0.154 HD
BRANCH  13  15
ATOM     15  C   UNL     1       9.824   2.791   1.680  0.00  0.00    +0.035 A 
ATOM     16  C   UNL     1      10.275   1.911   2.656  0.00  0.00    +0.043 A 
ATOM     17  C   UNL     1      11.139   2.356   3.639  0.00  0.00    +0.044 A 
ATOM     18  C   UNL     1      11.554   3.676   3.652  0.00  0.00    +0.040 A 
ATOM     19  C   UNL     1      11.105   4.554   2.682  0.00  0.00    +0.044 A 
ATOM     20  C   UNL     1      10.246   4.114   1.693  0.00  0.00    +0.043 A 
ATOM     21 CL   UNL     1      11.628   6.210   2.703  0.00  0.00    -0.083 Cl
ATOM     22 CL   UNL     1      11.704   1.257   4.859  0.00  0.00    -0.083 Cl
ENDBRANCH  13  15
ENDBRANCH   4  13
BRANCH   1  23
ATOM     23  N   UNL     1       4.281  -1.444  -0.193  0.00  0.00    -0.221 N 
BRANCH  23  27
ATOM     24  C   UNL     1       0.799   0.040   1.543  0.00  0.00    +0.000 A 
ATOM     25  C   UNL     1       1.024  -1.324   1.505  0.00  0.00    +0.002 A 
ATOM     26  C   UNL     1       2.178  -1.820   0.930  0.00  0.00    +0.025 A 
ATOM     27  C   UNL     1       3.112  -0.947   0.389  0.00  0.00    +0.053 A 
ATOM     28  C   UNL     1       2.883   0.423   0.428  0.00  0.00    +0.025 A 
ATOM     29  C   UNL     1       1.727   0.912   1.005  0.00  0.00    +0.002 A 
ENDBRANCH  23  27
BRANCH  23  30
ATOM     30  C   UNL     1       4.434  -2.820  -0.387  0.00  0.00    +0.053 A 
ATOM     31  C   UNL     1       3.437  -3.548  -1.024  0.00  0.00    +0.025 A 
ATOM     32  C   UNL     1       3.592  -4.907  -1.214  0.00  0.00    +0.002 A 
ATOM     33  C   UNL     1       4.737  -5.543  -0.771  0.00  0.00    +0.000 A 
ATOM     34  C   UNL     1       5.731  -4.821  -0.136  0.00  0.00    +0.002 A 
ATOM     35  C   UNL     1       5.585  -3.461   0.053  0.00  0.00    +0.025 A 
ENDBRANCH  23  30
ENDBRANCH   1  23
TORSDOF 6
