REMARK  Name = ZINC50675049
REMARK  10 active torsions:
REMARK  status: ('A' for Active; 'I' for Inactive)
REMARK    1  A    between atoms: C_1  and  C_2
REMARK    2  A    between atoms: C_2  and  C_4
REMARK    3  A    between atoms: C_2  and  N_9
REMARK    4  A    between atoms: C_4  and  C_5
REMARK    5  A    between atoms: C_5  and  N_6
REMARK    6  A    between atoms: N_6  and  C_7
REMARK    7  A    between atoms: N_6  and  C_8
REMARK    8  A    between atoms: N_9  and  S_10
REMARK    9  A    between atoms: S_10  and  C_13
REMARK   10  A    between atoms: C_18  and  N_19
REMARK                            x       y       z     vdW  Elec       q    Type
REMARK                         _______ _______ _______ _____ _____    ______ ____
ROOT
ATOM      1  S   UNL     1       2.237  -0.947   1.049  0.00  0.00    +0.062 S 
ATOM      2  O   UNL     1       2.699  -1.542   2.254  0.00  0.00    -0.153 OA
ATOM      3  O   UNL     1       2.193  -1.655  -0.182  0.00  0.00    -0.153 OA
ENDROOT
BRANCH   1   4
ATOM      4  C   UNL     1       3.238   0.478   0.776  0.00  0.00    +0.146 A 
ATOM      5  C   UNL     1       3.837   0.688  -0.453  0.00  0.00    +0.048 A 
ATOM      6  C   UNL     1       4.617   1.824  -0.624  0.00  0.00    +0.038 A 
ATOM      7  C   UNL     1       4.771   2.704   0.430  0.00  0.00    +0.128 A 
ATOM      8  N   UNL     1       4.188   2.477   1.591  0.00  0.00    -0.238 NA
ATOM      9  C   UNL     1       3.431   1.408   1.791  0.00  0.00    +0.143 A 
ATOM     10 BR   UNL     1       5.460   2.163  -2.283  0.00  0.00    -0.049 Br
BRANCH   9  11
ATOM     11  N   UNL     1       2.830   1.212   3.030  0.00  0.00    -0.342 N 
ATOM     12  H   UNL     1       2.236   0.457   3.166  0.00  0.00    +0.144 HD
ATOM     13  H   UNL     1       3.005   1.829   3.757  0.00  0.00    +0.144 HD
ENDBRANCH   9  11
ENDBRANCH   1   4
BRANCH   1  14
ATOM     14  N   UNL     1       0.697  -0.414   1.344  0.00  0.00    -0.187 NA
ATOM     15  H   UNL     1       0.290  -0.565   2.212  0.00  0.00    +0.148 HD
BRANCH  14  17
ATOM     16  C   UNL     1      -0.296   1.733   0.724  0.00  0.00    +0.025 C 
ATOM     17  C   UNL     1      -0.050   0.285   0.296  0.00  0.00    +0.072 C 
BRANCH  17  18
ATOM     18  C   UNL     1      -1.391  -0.416   0.071  0.00  0.00    +0.001 C 
BRANCH  18  19
ATOM     19  C   UNL     1      -1.146  -1.823  -0.477  0.00  0.00    -0.078 C 
BRANCH  19  20
ATOM     20  N   UNL     1      -2.433  -2.496  -0.692  0.00  0.00    +0.376 N 
ATOM     21  C   UNL     1      -3.182  -1.795  -1.744  0.00  0.00    -0.097 C 
ATOM     22  C   UNL     1      -2.197  -3.886  -1.104  0.00  0.00    -0.097 C 
ATOM     23  H   UNL     1      -2.966  -2.485   0.164  0.00  0.00    -0.083 HD
ENDBRANCH  19  20
ENDBRANCH  18  19
ENDBRANCH  17  18
ENDBRANCH  14  17
ENDBRANCH   1  14
TORSDOF 7
