REMARK  Name = ZINC37318445
REMARK  9 active torsions:
REMARK  status: ('A' for Active; 'I' for Inactive)
REMARK    1  A    between atoms: C_1  and  C_2
REMARK    2  A    between atoms: C_2  and  C_4
REMARK    3  A    between atoms: C_2  and  N_13
REMARK    4  A    between atoms: C_4  and  C_5
REMARK    5  A    between atoms: C_5  and  C_6
REMARK    6  A    between atoms: C_9  and  O_12
REMARK    7  A    between atoms: N_13  and  C_14
REMARK    8  A    between atoms: C_14  and  C_16
REMARK    9  A    between atoms: C_14  and  C_17
REMARK                            x       y       z     vdW  Elec       q    Type
REMARK                         _______ _______ _______ _____ _____    ______ ____
ROOT
ATOM      1  C   UNL     1      -0.019   1.526   0.010  0.00  0.00    -0.014 C 
ATOM      2  C   UNL     1       0.002  -0.004   0.002  0.00  0.00    -0.074 C 
ENDROOT
BRANCH   2   3
ATOM      3  N   UNL     1       0.690  -0.478  -1.207  0.00  0.00    +0.385 N 
ATOM      4  H   UNL     1       1.608  -0.063  -1.256  0.00  0.00    -0.085 HD
ATOM      5  H   UNL     1       0.776  -1.482  -1.172  0.00  0.00    -0.085 HD
BRANCH   3   6
ATOM      6  C   UNL     1      -0.086  -0.093  -2.394  0.00  0.00    -0.044 C 
ATOM      7  C   UNL     1      -1.431  -0.821  -2.382  0.00  0.00    -0.009 C 
BRANCH   6   8
ATOM      8  C   UNL     1       0.679  -0.470  -3.637  0.00  0.00    -0.062 A 
ATOM      9  C   UNL     1       1.361  -1.671  -3.691  0.00  0.00    +0.003 A 
ATOM     10  C   UNL     1       2.062  -2.017  -4.831  0.00  0.00    +0.014 A 
ATOM     11  C   UNL     1       2.081  -1.162  -5.917  0.00  0.00    +0.013 A 
ATOM     12  C   UNL     1       1.398   0.040  -5.863  0.00  0.00    +0.014 A 
ATOM     13  C   UNL     1       0.693   0.383  -4.724  0.00  0.00    +0.003 A 
ATOM     14  I   UNL     1       3.144  -1.685  -7.645  0.00  0.00    -0.044 I 
ENDBRANCH   6   8
ENDBRANCH   3   6
ENDBRANCH   2   3
BRANCH   2  15
ATOM     15  C   UNL     1       0.742  -0.511   1.242  0.00  0.00    -0.011 C 
BRANCH  15  16
ATOM     16  C   UNL     1       0.655  -2.037   1.299  0.00  0.00    +0.033 C 
BRANCH  16  17
ATOM     17  C   UNL     1       1.384  -2.537   2.519  0.00  0.00    -0.047 A 
ATOM     18  C   UNL     1       2.731  -2.841   2.443  0.00  0.00    +0.007 A 
ATOM     19  C   UNL     1       3.401  -3.299   3.561  0.00  0.00    +0.045 A 
ATOM     20  C   UNL     1       2.722  -3.453   4.761  0.00  0.00    +0.117 A 
ATOM     21  C   UNL     1       1.371  -3.147   4.835  0.00  0.00    +0.045 A 
ATOM     22  C   UNL     1       0.707  -2.684   3.716  0.00  0.00    +0.007 A 
BRANCH  20  23
ATOM     23  O   UNL     1       3.379  -3.905   5.861  0.00  0.00    -0.507 OA
ATOM     24  H   UNL     1       3.771  -3.204   6.401  0.00  0.00    +0.292 HD
ENDBRANCH  20  23
ENDBRANCH  16  17
ENDBRANCH  15  16
ENDBRANCH   2  15
TORSDOF 7
