REMARK  Name = ZINC39968865
REMARK  8 active torsions:
REMARK  status: ('A' for Active; 'I' for Inactive)
REMARK    1  A    between atoms: C_1  and  C_2
REMARK    2  A    between atoms: C_2  and  C_3
REMARK    3  A    between atoms: N_5  and  C_6
REMARK    4  A    between atoms: C_10  and  N_12
REMARK    5  A    between atoms: N_12  and  C_13
REMARK    6  A    between atoms: C_13  and  N_15
REMARK    7  A    between atoms: C_20  and  C_27
REMARK    8  A    between atoms: C_22  and  O_23
REMARK                            x       y       z     vdW  Elec       q    Type
REMARK                         _______ _______ _______ _____ _____    ______ ____
ROOT
ATOM      1  C   UNL     1       2.670  -5.890   5.155  0.00  0.00    +0.139 C 
ATOM      2  S   UNL     1       3.105  -4.778   6.382  0.00  0.00    -0.018 S 
ENDROOT
BRANCH   1   3
ATOM      3  N   UNL     1       2.812  -7.194   5.360  0.00  0.00    -0.297 N 
ATOM      4  C   UNL     1       3.173  -7.654   6.585  0.00  0.00    +0.036 A 
ATOM      5  C   UNL     1       2.840  -6.914   7.736  0.00  0.00    +0.024 A 
ATOM      6  C   UNL     1       3.196  -7.363   8.967  0.00  0.00    +0.013 A 
ATOM      7  C   UNL     1       3.900  -8.575   9.097  0.00  0.00    +0.021 A 
ATOM      8  C   UNL     1       4.277  -9.057  10.366  0.00  0.00    -0.033 A 
ATOM      9  C   UNL     1       4.967 -10.252  10.439  0.00  0.00    +0.091 A 
ATOM     10  C   UNL     1       5.272 -10.947   9.279  0.00  0.00    +0.285 A 
ATOM     11  O   UNL     1       4.913 -10.485   8.076  0.00  0.00    -0.425 OA
ATOM     12  C   UNL     1       4.238  -9.324   7.947  0.00  0.00    +0.141 A 
ATOM     13  C   UNL     1       3.867  -8.861   6.698  0.00  0.00    +0.070 A 
ATOM     14  C   UNL     1       3.936  -8.287  11.615  0.00  0.00    +0.045 C 
ATOM     15  H   UNL     1       2.658  -7.819   4.634  0.00  0.00    +0.154 HD
BRANCH  10  16
ATOM     16  O   UNL     1       5.945 -12.111   9.365  0.00  0.00    -0.480 OA
ATOM     17  H   UNL     1       6.117 -12.530   8.510  0.00  0.00    +0.295 HD
ENDBRANCH  10  16
ENDBRANCH   1   3
BRANCH   1  18
ATOM     18  N   UNL     1       2.183  -5.441   3.981  0.00  0.00    -0.297 N 
ATOM     19  H   UNL     1       2.002  -6.066   3.260  0.00  0.00    +0.154 HD
BRANCH  18  24
ATOM     20  C   UNL     1       2.734  -1.813   3.704  0.00  0.00    +0.035 A 
ATOM     21  C   UNL     1       1.441  -1.373   3.445  0.00  0.00    +0.023 A 
ATOM     22  C   UNL     1       0.404  -2.282   3.365  0.00  0.00    +0.004 A 
ATOM     23  C   UNL     1       0.647  -3.630   3.542  0.00  0.00    +0.023 A 
ATOM     24  C   UNL     1       1.937  -4.077   3.802  0.00  0.00    +0.034 A 
ATOM     25  C   UNL     1       2.982  -3.167   3.877  0.00  0.00    +0.046 A 
BRANCH  20  28
ATOM     26  C   UNL     1       5.009  -1.226   3.332  0.00  0.00    +0.217 C 
ATOM     27  O   UNL     1       5.222  -2.351   2.932  0.00  0.00    -0.275 OA
ATOM     28  N   UNL     1       3.784  -0.892   3.784  0.00  0.00    -0.285 N 
ATOM     29  H   UNL     1       3.631  -0.014   4.165  0.00  0.00    +0.155 HD
BRANCH  26  31
ATOM     30  C   UNL     1       7.391  -0.834   2.765  0.00  0.00    +0.013 C 
ATOM     31  C   UNL     1       6.114  -0.202   3.322  0.00  0.00    +0.093 C 
ENDBRANCH  26  31
ENDBRANCH  20  28
ENDBRANCH  18  24
ENDBRANCH   1  18
TORSDOF 6
