REMARK  Name = ZINC21650014
REMARK  8 active torsions:
REMARK  status: ('A' for Active; 'I' for Inactive)
REMARK    1  A    between atoms: C_3  and  C_8
REMARK    2  A    between atoms: C_8  and  N_9
REMARK    3  A    between atoms: C_12  and  C_15
REMARK    4  A    between atoms: C_17  and  C_20
REMARK    5  A    between atoms: C_20  and  C_21
REMARK    6  A    between atoms: C_21  and  C_22
REMARK    7  A    between atoms: N_24  and  C_25
REMARK    8  A    between atoms: C_29  and  C_31
REMARK                            x       y       z     vdW  Elec       q    Type
REMARK                         _______ _______ _______ _____ _____    ______ ____
ROOT
ATOM      1  C   UNL     1       2.409  11.453   1.191  0.00  0.00    +0.198 A 
ATOM      2  N   UNL     1       2.416  10.154   1.569  0.00  0.00    -0.192 NA
ATOM      3  C   UNL     1       2.464   9.464   0.457  0.00  0.00    +0.228 A 
ATOM      4  O   UNL     1       2.492  10.342  -0.551  0.00  0.00    -0.338 OA
ATOM      5  N   UNL     1       2.454  11.475  -0.117  0.00  0.00    -0.056 NA
ENDROOT
BRANCH   1   9
ATOM      6  N   UNL     1       2.661  14.813   3.756  0.00  0.00    +0.385 N 
ATOM      7  C   UNL     1       1.899  15.028   2.514  0.00  0.00    -0.073 C 
ATOM      8  C   UNL     1       2.367  14.002   1.477  0.00  0.00    +0.020 C 
ATOM      9  C   UNL     1       2.361  12.628   2.088  0.00  0.00    -0.007 C 
ATOM     10  C   UNL     1       2.319  12.429   3.386  0.00  0.00    -0.038 C 
ATOM     11  C   UNL     1       2.260  13.549   4.385  0.00  0.00    -0.050 C 
ATOM     12  H   UNL     1       3.730  14.751   3.504  0.00  0.00    -0.081 HD
BRANCH   6  13
ATOM     13  C   UNL     1       2.487  15.940   4.681  0.00  0.00    -0.043 C 
BRANCH  13  16
ATOM     14  C   UNL     1      -0.912  15.646   6.297  0.00  0.00    +0.002 A 
ATOM     15  C   UNL     1       0.433  15.470   6.032  0.00  0.00    +0.002 A 
ATOM     16  C   UNL     1       1.021  16.132   4.970  0.00  0.00    -0.063 A 
ATOM     17  C   UNL     1       0.265  16.975   4.177  0.00  0.00    +0.021 A 
ATOM     18  C   UNL     1      -1.082  17.148   4.439  0.00  0.00    +0.041 A 
ATOM     19  C   UNL     1      -1.670  16.485   5.502  0.00  0.00    +0.020 A 
ATOM     20 CL   UNL     1      -2.033  18.201   3.439  0.00  0.00    -0.084 Cl
ENDBRANCH  13  16
ENDBRANCH   6  13
ENDBRANCH   1   9
BRANCH   3  21
ATOM     21  C   UNL     1       2.491   7.962   0.336  0.00  0.00    +0.108 C 
BRANCH  21  22
ATOM     22  C   UNL     1       1.059   7.433   0.245  0.00  0.00    +0.105 C 
BRANCH  22  23
ATOM     23  C   UNL     1       1.085   5.931   0.123  0.00  0.00    +0.218 C 
ATOM     24  O   UNL     1       2.146   5.342   0.111  0.00  0.00    -0.275 OA
ATOM     25  N   UNL     1      -0.069   5.242   0.029  0.00  0.00    -0.285 N 
ATOM     26  H   UNL     1      -1.026   5.779  -0.047  0.00  0.00    +0.155 HD
BRANCH  25  27
ATOM     27  C   UNL     1      -0.051   3.842   0.028  0.00  0.00    +0.034 A 
ATOM     28  C   UNL     1       0.907   3.158   0.765  0.00  0.00    +0.023 A 
ATOM     29  C   UNL     1       0.922   1.778   0.762  0.00  0.00    +0.002 A 
ATOM     30  C   UNL     1      -0.014   1.076   0.025  0.00  0.00    +0.012 A 
ATOM     31  C   UNL     1      -0.966   1.754  -0.714  0.00  0.00    +0.057 A 
ATOM     32  C   UNL     1      -0.990   3.135  -0.711  0.00  0.00    +0.035 A 
BRANCH  31  33
ATOM     33  C   UNL     1      -1.981   0.985  -1.521  0.00  0.00    +0.417 C 
ATOM     34  F   UNL     1      -1.759  -0.387  -1.363  0.00  0.00    -0.166 F 
ATOM     35  F   UNL     1      -3.268   1.304  -1.076  0.00  0.00    -0.166 F 
ATOM     36  F   UNL     1      -1.857   1.325  -2.872  0.00  0.00    -0.166 F 
ENDBRANCH  31  33
ENDBRANCH  25  27
ENDBRANCH  22  23
ENDBRANCH  21  22
ENDBRANCH   3  21
TORSDOF 8
