REMARK  Name = ZINC22024002
REMARK  6 active torsions:
REMARK  status: ('A' for Active; 'I' for Inactive)
REMARK    1  A    between atoms: C_3  and  C_18
REMARK    2  A    between atoms: C_5  and  S_7
REMARK    3  A    between atoms: S_7  and  N_10
REMARK    4  A    between atoms: N_10  and  C_11
REMARK    5  A    between atoms: N_20  and  C_21
REMARK    6  A    between atoms: C_24  and  N_28
REMARK                            x       y       z     vdW  Elec       q    Type
REMARK                         _______ _______ _______ _____ _____    ______ ____
ROOT
ATOM      1  C   UNL     1      -4.602   1.047   0.301  0.00  0.00    +0.003 A 
ATOM      2  C   UNL     1      -5.237   0.172  -0.556  0.00  0.00    +0.013 A 
ATOM      3  C   UNL     1      -4.597  -1.004  -0.948  0.00  0.00    +0.039 A 
ATOM      4  C   UNL     1      -3.316  -1.287  -0.469  0.00  0.00    +0.042 A 
ATOM      5  C   UNL     1      -2.692  -0.404   0.387  0.00  0.00    +0.109 A 
ATOM      6  C   UNL     1      -3.335   0.758   0.775  0.00  0.00    +0.029 A 
ENDROOT
BRANCH   3   7
ATOM      7  C   UNL     1      -5.271  -1.947  -1.865  0.00  0.00    +0.248 C 
ATOM      8  O   UNL     1      -4.711  -2.971  -2.205  0.00  0.00    -0.270 OA
ATOM      9  N   UNL     1      -6.508  -1.671  -2.325  0.00  0.00    -0.281 N 
ATOM     10  H   UNL     1      -7.047  -0.785  -1.957  0.00  0.00    +0.155 HD
BRANCH   9  11
ATOM     11  C   UNL     1      -7.107  -2.512  -3.272  0.00  0.00    +0.037 A 
ATOM     12  C   UNL     1      -7.930  -1.976  -4.254  0.00  0.00    +0.045 A 
ATOM     13  C   UNL     1      -8.517  -2.805  -5.191  0.00  0.00    +0.065 A 
ATOM     14  C   UNL     1      -8.291  -4.175  -5.145  0.00  0.00    +0.062 A 
ATOM     15  C   UNL     1      -7.472  -4.711  -4.160  0.00  0.00    +0.065 A 
ATOM     16  C   UNL     1      -6.881  -3.881  -3.226  0.00  0.00    +0.045 A 
ATOM     17 CL   UNL     1      -7.189  -6.423  -4.101  0.00  0.00    -0.082 Cl
ATOM     18 CL   UNL     1      -9.540  -2.134  -6.423  0.00  0.00    -0.082 Cl
BRANCH  14  19
ATOM     19  N   UNL     1      -8.889  -5.016  -6.092  0.00  0.00    -0.356 N 
ATOM     20  H   UNL     1      -8.711  -6.100  -6.055  0.00  0.00    +0.142 HD
ATOM     21  H   UNL     1      -9.538  -4.591  -6.873  0.00  0.00    +0.142 HD
ENDBRANCH  14  19
ENDBRANCH   9  11
ENDBRANCH   3   7
BRANCH   5  22
ATOM     22  S   UNL     1      -1.076  -0.759   0.991  0.00  0.00    +0.072 S 
ATOM     23  O   UNL     1      -0.870  -2.152   0.805  0.00  0.00    -0.150 OA
ATOM     24  O   UNL     1      -0.974  -0.137   2.265  0.00  0.00    -0.150 OA
BRANCH  22  25
ATOM     25  N   UNL     1      -0.001   0.016  -0.001  0.00  0.00    -0.216 N 
ATOM     26  H   UNL     1       0.666   0.790   0.407  0.00  0.00    +0.174 HD
BRANCH  25  27
ATOM     27  C   UNL     1       0.060  -0.313  -1.357  0.00  0.00    +0.049 A 
ATOM     28  C   UNL     1       0.098   0.691  -2.317  0.00  0.00    +0.024 A 
ATOM     29  C   UNL     1       0.158   0.363  -3.657  0.00  0.00    +0.003 A 
ATOM     30  C   UNL     1       0.181  -0.965  -4.045  0.00  0.00    +0.020 A 
ATOM     31  C   UNL     1       0.145  -1.968  -3.092  0.00  0.00    +0.043 A 
ATOM     32  C   UNL     1       0.089  -1.645  -1.749  0.00  0.00    +0.044 A 
ATOM     33 CL   UNL     1       0.174  -3.632  -3.584  0.00  0.00    -0.083 Cl
ENDBRANCH  25  27
ENDBRANCH  22  25
ENDBRANCH   5  22
TORSDOF 6
