REMARK  Name = ZINC66854778
REMARK  4 active torsions:
REMARK  status: ('A' for Active; 'I' for Inactive)
REMARK    1  A    between atoms: C_1  and  C_2
REMARK    2  A    between atoms: C_4  and  C_25
REMARK    3  A    between atoms: N_8  and  C_12
REMARK    4  A    between atoms: C_12  and  C_13
REMARK                            x       y       z     vdW  Elec       q    Type
REMARK                         _______ _______ _______ _____ _____    ______ ____
ROOT
ATOM      1  C   UNL     1       0.356  -2.074   3.652  0.00  0.00    +0.201 C 
ENDROOT
BRANCH   1   9
ATOM      2  C   UNL     1      -0.018   1.503   0.010  0.00  0.00    +0.044 C 
ATOM      3  C   UNL     1       0.002  -0.004   0.002  0.00  0.00    -0.048 A 
ATOM      4  C   UNL     1       0.006  -0.690  -1.199  0.00  0.00    +0.007 A 
ATOM      5  C   UNL     1       0.022  -2.071  -1.209  0.00  0.00    -0.045 A 
ATOM      6  C   UNL     1       0.036  -2.779  -0.019  0.00  0.00    -0.023 A 
ATOM      7  C   UNL     1       0.036  -2.092   1.185  0.00  0.00    +0.034 A 
ATOM      8  C   UNL     1       0.023  -0.702   1.193  0.00  0.00    +0.026 A 
ATOM      9  N   UNL     1       0.058  -2.780   2.403  0.00  0.00    -0.321 N 
ATOM     10  C   UNL     1      -0.221  -4.223   2.410  0.00  0.00    +0.106 C 
ATOM     11  C   UNL     1       0.564  -4.857   1.254  0.00  0.00    +0.024 C 
ATOM     12  C   UNL     1       0.048  -4.284  -0.066  0.00  0.00    +0.039 C 
ATOM     13  C   UNL     1       0.025  -2.811  -2.522  0.00  0.00    +0.044 C 
ENDBRANCH   1   9
BRANCH   1  14
ATOM     14  C   UNL     1      -0.926  -1.563   4.257  0.00  0.00    +0.233 C 
ATOM     15  O   UNL     1      -1.984  -1.768   3.701  0.00  0.00    -0.274 OA
ATOM     16  N   UNL     1      -0.896  -0.877   5.418  0.00  0.00    -0.300 N 
ATOM     17  C   UNL     1       0.378  -0.615   6.100  0.00  0.00    +0.113 C 
ATOM     18  C   UNL     1       0.275  -1.114   7.545  0.00  0.00    +0.084 C 
ATOM     19  C   UNL     1      -0.944  -0.477   8.215  0.00  0.00    +0.173 C 
ATOM     20  C   UNL     1      -2.217  -0.879   7.469  0.00  0.00    +0.084 C 
ATOM     21  C   UNL     1      -2.137  -0.372   6.021  0.00  0.00    +0.113 C 
ATOM     22  O   UNL     1      -1.026  -0.915   9.578  0.00  0.00    -0.346 OA
ATOM     23  C   UNL     1      -0.955   0.260  10.410  0.00  0.00    +0.191 C 
ATOM     24  C   UNL     1      -1.381   1.397   9.448  0.00  0.00    +0.191 C 
ATOM     25  O   UNL     1      -0.808   0.953   8.195  0.00  0.00    -0.346 OA
ENDBRANCH   1  14
TORSDOF 2
