REMARK  Name = ZINC32952409
REMARK  13 active torsions:
REMARK  status: ('A' for Active; 'I' for Inactive)
REMARK    1  A    between atoms: C_1  and  C_2
REMARK    2  A    between atoms: C_2  and  N_3
REMARK    3  A    between atoms: N_3  and  C_4
REMARK    4  A    between atoms: N_3  and  C_6
REMARK    5  A    between atoms: C_4  and  C_5
REMARK    6  A    between atoms: C_6  and  C_7
REMARK    7  A    between atoms: C_7  and  N_8
REMARK    8  A    between atoms: C_9  and  N_26
REMARK    9  A    between atoms: C_10  and  C_14
REMARK   10  A    between atoms: N_16  and  C_17
REMARK   11  A    between atoms: C_22  and  O_23
REMARK   12  A    between atoms: O_23  and  C_24
REMARK   13  A    between atoms: C_24  and  C_25
REMARK                            x       y       z     vdW  Elec       q    Type
REMARK                         _______ _______ _______ _____ _____    ______ ____
ROOT
ATOM      1  N   UNL     1      -1.071   2.512   0.076  0.00  0.00    -0.319 N 
ATOM      2  C   UNL     1      -0.885   3.848   0.065  0.00  0.00    +0.117 A 
ATOM      3  C   UNL     1       0.406   4.315   0.073  0.00  0.00    +0.114 A 
ATOM      4  S   UNL     1       1.335   2.791   0.106  0.00  0.00    -0.055 S 
ATOM      5  C   UNL     1      -0.002   1.686   0.106  0.00  0.00    +0.128 A 
ATOM      6  S   UNL     1       0.025  -0.026   0.131  0.00  0.00    -0.025 S 
ENDROOT
BRANCH   3   7
ATOM      7  C   UNL     1       0.875   5.646   0.059  0.00  0.00    +0.258 C 
ATOM      8  O   UNL     1       0.081   6.571   0.036  0.00  0.00    -0.269 OA
ATOM      9  N   UNL     1       2.199   5.895   0.070  0.00  0.00    -0.278 N 
ATOM     10  H   UNL     1       2.914   5.064   0.165  0.00  0.00    +0.155 HD
BRANCH   9  11
ATOM     11  C   UNL     1       2.666   7.211  -0.038  0.00  0.00    +0.076 A 
ATOM     12  C   UNL     1       1.949   8.252   0.534  0.00  0.00    +0.027 A 
ATOM     13  C   UNL     1       2.414   9.549   0.430  0.00  0.00    +0.002 A 
ATOM     14  C   UNL     1       3.587   9.814  -0.252  0.00  0.00    +0.004 A 
ATOM     15  C   UNL     1       4.304   8.783  -0.829  0.00  0.00    +0.047 A 
ATOM     16  C   UNL     1       3.848   7.479  -0.725  0.00  0.00    +0.142 A 
BRANCH  16  17
ATOM     17  O   UNL     1       4.551   6.463  -1.293  0.00  0.00    -0.490 OA
BRANCH  17  18
ATOM     18  C   UNL     1       5.754   6.812  -1.981  0.00  0.00    +0.226 C 
ATOM     19  C   UNL     1       6.402   5.548  -2.549  0.00  0.00    +0.048 C 
ENDBRANCH  17  18
ENDBRANCH  16  17
ENDBRANCH   9  11
ENDBRANCH   3   7
BRANCH   2  20
ATOM     20  N   UNL     1      -1.956   4.714   0.040  0.00  0.00    -0.343 N 
ATOM     21  H   UNL     1      -1.784   5.801   0.031  0.00  0.00    +0.144 HD
ATOM     22  H   UNL     1      -2.983   4.320   0.029  0.00  0.00    +0.144 HD
ENDBRANCH   2  20
BRANCH   1  23
ATOM     23  C   UNL     1      -2.427   1.958   0.060  0.00  0.00    +0.106 C 
BRANCH  23  24
ATOM     24  C   UNL     1      -2.924   1.786   1.497  0.00  0.00    -0.057 C 
BRANCH  24  25
ATOM     25  N   UNL     1      -4.284   1.231   1.481  0.00  0.00    +0.380 N 
ATOM     26  H   UNL     1      -4.897   1.857   0.817  0.00  0.00    -0.082 HD
BRANCH  25  28
ATOM     27  C   UNL     1      -3.504  -1.055   1.883  0.00  0.00    -0.017 C 
ATOM     28  C   UNL     1      -4.288  -0.136   0.945  0.00  0.00    -0.082 C 
ENDBRANCH  25  28
BRANCH  25  29
ATOM     29  C   UNL     1      -4.885   1.272   2.821  0.00  0.00    -0.082 C 
ATOM     30  C   UNL     1      -6.394   1.047   2.711  0.00  0.00    -0.017 C 
ENDBRANCH  25  29
ENDBRANCH  24  25
ENDBRANCH  23  24
ENDBRANCH   1  23
TORSDOF 10
