REMARK  Name = ZINC49560663
REMARK  9 active torsions:
REMARK  status: ('A' for Active; 'I' for Inactive)
REMARK    1  A    between atoms: C_1  and  C_2
REMARK    2  A    between atoms: C_2  and  C_3
REMARK    3  A    between atoms: C_3  and  N_4
REMARK    4  A    between atoms: C_7  and  N_10
REMARK    5  A    between atoms: N_10  and  S_11
REMARK    6  A    between atoms: S_11  and  C_14
REMARK    7  A    between atoms: C_17  and  C_19
REMARK    8  A    between atoms: C_19  and  C_20
REMARK    9  A    between atoms: C_20  and  N_21
REMARK                            x       y       z     vdW  Elec       q    Type
REMARK                         _______ _______ _______ _____ _____    ______ ____
ROOT
ATOM      1  S   UNL     1      -3.192  -7.023   1.618  0.00  0.00    +0.065 S 
ATOM      2  O   UNL     1      -2.838  -8.367   1.320  0.00  0.00    -0.153 OA
ATOM      3  O   UNL     1      -3.382  -6.564   2.949  0.00  0.00    -0.153 OA
ENDROOT
BRANCH   1   4
ATOM      4  C   UNL     1      -4.690  -6.693   0.751  0.00  0.00    +0.143 A 
ATOM      5  C   UNL     1      -5.188  -7.299  -0.354  0.00  0.00    +0.036 A 
ATOM      6  C   UNL     1      -6.397  -6.869  -0.866  0.00  0.00    +0.013 A 
ATOM      7  C   UNL     1      -7.050  -5.854  -0.248  0.00  0.00    -0.010 A 
ATOM      8  S   UNL     1      -5.949  -5.478   1.106  0.00  0.00    -0.074 S 
BRANCH   7   9
ATOM      9  C   UNL     1      -8.366  -5.213  -0.608  0.00  0.00    +0.023 C 
BRANCH   9  10
ATOM     10  C   UNL     1      -9.502  -5.949   0.104  0.00  0.00    -0.081 C 
BRANCH  10  11
ATOM     11  N   UNL     1     -10.785  -5.324  -0.246  0.00  0.00    +0.378 N 
ATOM     12  H   UNL     1     -10.778  -4.357   0.042  0.00  0.00    -0.090 HD
ATOM     13  H   UNL     1     -10.923  -5.377  -1.244  0.00  0.00    -0.090 HD
ATOM     14  H   UNL     1     -11.535  -5.809   0.224  0.00  0.00    -0.090 HD
ENDBRANCH  10  11
ENDBRANCH   9  10
ENDBRANCH   7   9
ENDBRANCH   1   4
BRANCH   1  15
ATOM     15  N   UNL     1      -2.018  -6.065   0.950  0.00  0.00    -0.187 NA
ATOM     16  H   UNL     1      -1.269  -6.469   0.483  0.00  0.00    +0.148 HD
BRANCH  15  20
ATOM     17  N   UNL     1      -1.413  -2.002   0.005  0.00  0.00    +0.380 N 
ATOM     18  C   UNL     1      -0.802  -2.489   1.247  0.00  0.00    -0.077 C 
ATOM     19  C   UNL     1      -0.705  -4.016   1.209  0.00  0.00    +0.002 C 
ATOM     20  C   UNL     1      -2.110  -4.607   1.064  0.00  0.00    +0.073 C 
ATOM     21  C   UNL     1      -2.766  -4.036  -0.196  0.00  0.00    +0.002 C 
ATOM     22  C   UNL     1      -2.787  -2.508  -0.105  0.00  0.00    -0.077 C 
ATOM     23  H   UNL     1      -0.873  -2.326  -0.783  0.00  0.00    -0.082 HD
BRANCH  17  24
ATOM     24  C   UNL     1      -1.433  -0.534   0.013  0.00  0.00    -0.079 C 
BRANCH  24  26
ATOM     25  C   UNL     1      -0.019   1.526   0.010  0.00  0.00    +0.002 C 
ATOM     26  C   UNL     1       0.002  -0.004   0.002  0.00  0.00    -0.022 C 
ENDBRANCH  24  26
ENDBRANCH  17  24
ENDBRANCH  15  20
ENDBRANCH   1  15
TORSDOF 8
