REMARK  Name = ZINC16677869
REMARK  11 active torsions:
REMARK  status: ('A' for Active; 'I' for Inactive)
REMARK    1  A    between atoms: C_1  and  C_2
REMARK    2  A    between atoms: C_2  and  C_3
REMARK    3  A    between atoms: C_3  and  C_4
REMARK    4  A    between atoms: C_5  and  C_20
REMARK    5  A    between atoms: N_8  and  C_11
REMARK    6  A    between atoms: C_14  and  N_17
REMARK    7  A    between atoms: N_21  and  C_22
REMARK    8  A    between atoms: C_24  and  C_30
REMARK    9  A    between atoms: C_24  and  C_31
REMARK   10  A    between atoms: C_26  and  C_28
REMARK   11  A    between atoms: C_26  and  C_29
REMARK                            x       y       z     vdW  Elec       q    Type
REMARK                         _______ _______ _______ _____ _____    ______ ____
ROOT
ATOM      1  C   UNL     1      -1.021  -1.978   0.128  0.00  0.00    +0.047 A 
ATOM      2  C   UNL     1      -1.153  -2.802   1.227  0.00  0.00    +0.079 A 
ATOM      3  C   UNL     1      -1.194  -4.180   0.714  0.00  0.00    +0.281 A 
ATOM      4  O   UNL     1      -1.304  -5.198   1.372  0.00  0.00    -0.265 OA
ATOM      5  N   UNL     1      -1.086  -4.095  -0.628  0.00  0.00    -0.219 N 
ATOM      6  N   UNL     1      -0.986  -2.745  -0.981  0.00  0.00    -0.293 N 
ATOM      7  H   UNL     1      -0.901  -2.411  -1.888  0.00  0.00    +0.187 HD
ENDROOT
BRANCH   5   8
ATOM      8  C   UNL     1      -1.079  -5.174  -1.517  0.00  0.00    +0.067 A 
ATOM      9  C   UNL     1      -0.956  -4.950  -2.883  0.00  0.00    +0.030 A 
ATOM     10  C   UNL     1      -0.950  -6.018  -3.758  0.00  0.00    +0.035 A 
ATOM     11  C   UNL     1      -1.068  -7.309  -3.277  0.00  0.00    +0.126 A 
ATOM     12  C   UNL     1      -1.192  -7.536  -1.919  0.00  0.00    +0.035 A 
ATOM     13  C   UNL     1      -1.192  -6.472  -1.037  0.00  0.00    +0.030 A 
BRANCH  11  14
ATOM     14  N   UNL     1      -1.062  -8.452  -4.218  0.00  0.00    +0.056 N 
ATOM     15  O   UNL     1      -0.954  -8.255  -5.406  0.00  0.00    -0.126 OA
ATOM     16  O   UNL     1      -1.165  -9.581  -3.799  0.00  0.00    -0.126 OA
ENDBRANCH  11  14
ENDBRANCH   5   8
BRANCH   2  17
ATOM     17  C   UNL     1      -1.236  -2.385   2.632  0.00  0.00    +0.120 C 
ATOM     18  N   UNL     1      -1.360  -3.276   3.567  0.00  0.00    -0.288 NA
BRANCH  18  19
ATOM     19  C   UNL     1      -1.443  -2.858   4.972  0.00  0.00    +0.103 C 
ATOM     20  C   UNL     1      -0.307  -3.514   5.759  0.00  0.00    +0.014 C 
ATOM     21  C   UNL     1      -0.387  -3.099   7.228  0.00  0.00    -0.071 C 
ATOM     22  N   UNL     1      -1.696  -3.373   7.804  0.00  0.00    +0.386 N 
ATOM     23  C   UNL     1      -2.867  -2.974   7.040  0.00  0.00    -0.071 C 
ATOM     24  C   UNL     1      -2.771  -3.333   5.561  0.00  0.00    +0.014 C 
ATOM     25  C   UNL     1      -3.163  -1.480   7.196  0.00  0.00    -0.010 C 
ATOM     26  C   UNL     1      -4.082  -3.737   7.620  0.00  0.00    -0.010 C 
ATOM     27  C   UNL     1       0.017  -1.634   7.386  0.00  0.00    -0.010 C 
ATOM     28  C   UNL     1       0.649  -3.947   8.001  0.00  0.00    -0.010 C 
ATOM     29  H   UNL     1      -1.760  -4.376   7.992  0.00  0.00    -0.084 HD
ATOM     30  H   UNL     1      -1.742  -2.925   8.723  0.00  0.00    -0.084 HD
ENDBRANCH  18  19
ENDBRANCH   2  17
BRANCH   1  31
ATOM     31  C   UNL     1      -0.937  -0.473   0.160  0.00  0.00    +0.055 C 
BRANCH  31  33
ATOM     32  C   UNL     1       0.617   1.483   0.182  0.00  0.00    +0.004 C 
ATOM     33  C   UNL     1       0.531  -0.044   0.149  0.00  0.00    +0.003 C 
ENDBRANCH  31  33
ENDBRANCH   1  31
TORSDOF 6
