REMARK  Name = ZINC38670707
REMARK  7 active torsions:
REMARK  status: ('A' for Active; 'I' for Inactive)
REMARK    1  A    between atoms: C_1  and  N_2
REMARK    2  A    between atoms: C_10  and  C_12
REMARK    3  A    between atoms: C_12  and  C_14
REMARK    4  A    between atoms: C_12  and  N_29
REMARK    5  A    between atoms: C_14  and  N_15
REMARK    6  A    between atoms: N_18  and  C_19
REMARK    7  A    between atoms: C_24  and  C_25
REMARK                            x       y       z     vdW  Elec       q    Type
REMARK                         _______ _______ _______ _____ _____    ______ ____
ROOT
ATOM      1  C   UNL     1       4.884  -2.728  -0.427  0.00  0.00    -0.020 C 
ENDROOT
BRANCH   1  11
ATOM      2  C   UNL     1       0.059   1.655  -0.116  0.00  0.00    +0.129 C 
ATOM      3  N   UNL     1       0.029   0.191  -0.133  0.00  0.00    -0.333 N 
ATOM      4  C   UNL     1      -1.250  -0.530  -0.082  0.00  0.00    +0.105 C 
ATOM      5  C   UNL     1      -1.101  -1.679   0.925  0.00  0.00    +0.024 C 
ATOM      6  C   UNL     1      -0.036  -2.648   0.413  0.00  0.00    +0.038 C 
ATOM      7  C   UNL     1       1.226  -1.907   0.060  0.00  0.00    -0.026 A 
ATOM      8  C   UNL     1       1.217  -0.545  -0.204  0.00  0.00    +0.033 A 
ATOM      9  C   UNL     1       2.399   0.108  -0.538  0.00  0.00    +0.023 A 
ATOM     10  C   UNL     1       3.582  -0.598  -0.610  0.00  0.00    +0.004 A 
ATOM     11  C   UNL     1       3.591  -1.956  -0.350  0.00  0.00    -0.059 A 
ATOM     12  C   UNL     1       2.418  -2.608  -0.007  0.00  0.00    +0.007 A 
ENDBRANCH   1  11
BRANCH   1  13
ATOM     13  N   UNL     1       5.970  -1.923   0.148  0.00  0.00    +0.385 N 
ATOM     14  C   UNL     1       5.775  -1.771   1.613  0.00  0.00    -0.078 C 
ATOM     15  C   UNL     1       7.197  -1.433   2.127  0.00  0.00    -0.020 C 
ATOM     16  C   UNL     1       8.104  -2.314   1.238  0.00  0.00    -0.020 C 
ATOM     17  C   UNL     1       7.264  -2.620  -0.016  0.00  0.00    -0.078 C 
ATOM     18  H   UNL     1       6.004  -1.017  -0.295  0.00  0.00    -0.081 HD
ENDBRANCH   1  13
BRANCH   1  19
ATOM     19  C   UNL     1       5.202  -3.044  -1.890  0.00  0.00    +0.095 C 
BRANCH  19  20
ATOM     20  N   UNL     1       4.139  -3.880  -2.452  0.00  0.00    -0.300 N 
ATOM     21  C   UNL     1       4.154  -4.200  -3.761  0.00  0.00    +0.304 C 
ATOM     22  O   UNL     1       5.051  -3.795  -4.475  0.00  0.00    -0.253 OA
ATOM     23  N   UNL     1       3.176  -4.970  -4.278  0.00  0.00    -0.269 N 
ATOM     24  H   UNL     1       3.424  -4.203  -1.882  0.00  0.00    +0.150 HD
ATOM     25  H   UNL     1       2.435  -5.252  -3.719  0.00  0.00    +0.156 HD
BRANCH  23  26
ATOM     26  C   UNL     1       3.230  -5.362  -5.620  0.00  0.00    +0.046 A 
ATOM     27  C   UNL     1       3.921  -4.589  -6.544  0.00  0.00    +0.024 A 
ATOM     28  C   UNL     1       3.973  -4.978  -7.867  0.00  0.00    +0.002 A 
ATOM     29  C   UNL     1       3.336  -6.137  -8.274  0.00  0.00    +0.001 A 
ATOM     30  C   UNL     1       2.647  -6.909  -7.357  0.00  0.00    +0.014 A 
ATOM     31  C   UNL     1       2.597  -6.527  -6.030  0.00  0.00    +0.076 A 
BRANCH  31  32
ATOM     32  C   UNL     1       1.850  -7.372  -5.030  0.00  0.00    +0.419 C 
ATOM     33  F   UNL     1       1.302  -8.485  -5.677  0.00  0.00    -0.166 F 
ATOM     34  F   UNL     1       2.731  -7.800  -4.031  0.00  0.00    -0.166 F 
ATOM     35  F   UNL     1       0.824  -6.616  -4.454  0.00  0.00    -0.166 F 
ENDBRANCH  31  32
ENDBRANCH  23  26
ENDBRANCH  19  20
ENDBRANCH   1  19
TORSDOF 6
