REMARK  Name = ZINC63376240
REMARK  5 active torsions:
REMARK  status: ('A' for Active; 'I' for Inactive)
REMARK    1  A    between atoms: C_7  and  C_10
REMARK    2  A    between atoms: C_10  and  C_11
REMARK    3  A    between atoms: C_11  and  N_12
REMARK    4  A    between atoms: C_13  and  C_15
REMARK    5  A    between atoms: C_15  and  C_16
REMARK                            x       y       z     vdW  Elec       q    Type
REMARK                         _______ _______ _______ _____ _____    ______ ____
ROOT
ATOM      1  N   UNL     1      -0.458  -4.798  -1.460  0.00  0.00    -0.315 N 
ATOM      2  C   UNL     1      -0.811  -5.380  -2.623  0.00  0.00    +0.215 C 
ATOM      3  O   UNL     1      -0.371  -4.957  -3.671  0.00  0.00    -0.276 OA
ATOM      4  H   UNL     1      -0.810  -5.136  -0.622  0.00  0.00    +0.149 HD
ENDROOT
BRANCH   1   5
ATOM      5  C   UNL     1       0.457  -3.653  -1.462  0.00  0.00    +0.108 C 
BRANCH   5   6
ATOM      6  C   UNL     1       0.691  -3.186  -0.024  0.00  0.00    +0.052 C 
BRANCH   6  13
ATOM      7  C   UNL     1      -0.016   1.348   0.009  0.00  0.00    +0.001 A 
ATOM      8  C   UNL     1       1.166   2.101   0.002  0.00  0.00    +0.002 A 
ATOM      9  C   UNL     1       2.391   1.535  -0.013  0.00  0.00    +0.026 A 
ATOM     10  C   UNL     1       2.529   0.120  -0.022  0.00  0.00    +0.043 A 
ATOM     11  N   UNL     1       3.587  -0.654  -0.037  0.00  0.00    -0.380 N 
ATOM     12  C   UNL     1       3.143  -2.053  -0.041  0.00  0.00    +0.144 C 
ATOM     13  C   UNL     1       1.631  -2.008  -0.025  0.00  0.00    -0.040 C 
ATOM     14  C   UNL     1       1.295  -0.698  -0.014  0.00  0.00    -0.001 A 
ATOM     15  C   UNL     1       0.002  -0.004   0.002  0.00  0.00    +0.010 A 
ATOM     16  H   UNL     1       4.509  -0.353  -0.045  0.00  0.00    +0.160 HD
ENDBRANCH   6  13
ENDBRANCH   5   6
ENDBRANCH   1   5
BRANCH   2  17
ATOM     17  C   UNL     1      -1.752  -6.557  -2.622  0.00  0.00    +0.127 C 
BRANCH  17  18
ATOM     18  C   UNL     1      -1.986  -7.025  -4.059  0.00  0.00    +0.168 C 
ATOM     19  C   UNL     1      -2.830  -8.270  -4.053  0.00  0.00    +0.238 C 
ATOM     20  O   UNL     1      -2.410  -9.269  -4.598  0.00  0.00    -0.273 OA
ATOM     21  N   UNL     1      -4.024  -8.307  -3.468  0.00  0.00    -0.283 N 
ATOM     22  C   UNL     1      -4.610  -7.267  -2.768  0.00  0.00    +0.046 A 
ATOM     23  C   UNL     1      -5.287  -7.591  -1.589  0.00  0.00    +0.024 A 
ATOM     24  C   UNL     1      -5.900  -6.612  -0.840  0.00  0.00    +0.002 A 
ATOM     25  C   UNL     1      -5.853  -5.289  -1.250  0.00  0.00    +0.001 A 
ATOM     26  C   UNL     1      -5.190  -4.950  -2.406  0.00  0.00    +0.015 A 
ATOM     27  C   UNL     1      -4.557  -5.937  -3.181  0.00  0.00    +0.058 A 
ATOM     28  C   UNL     1      -3.860  -5.502  -4.397  0.00  0.00    +0.246 C 
ATOM     29  O   UNL     1      -4.390  -4.644  -5.077  0.00  0.00    -0.270 OA
ATOM     30  N   UNL     1      -2.685  -5.980  -4.807  0.00  0.00    -0.300 N 
ATOM     31  H   UNL     1      -4.526  -9.134  -3.537  0.00  0.00    +0.155 HD
ATOM     32  H   UNL     1      -2.285  -5.630  -5.619  0.00  0.00    +0.150 HD
ENDBRANCH  17  18
ENDBRANCH   2  17
TORSDOF 5
