REMARK  Name = ZINC15913888
REMARK  4 active torsions:
REMARK  status: ('A' for Active; 'I' for Inactive)
REMARK    1  A    between atoms: C_1  and  C_2
REMARK    2  A    between atoms: C_7  and  N_8
REMARK    3  A    between atoms: C_14  and  C_15
REMARK    4  A    between atoms: C_14  and  C_17
REMARK                            x       y       z     vdW  Elec       q    Type
REMARK                         _______ _______ _______ _____ _____    ______ ____
ROOT
ATOM      1  N   UNL     1       2.614   4.976  -2.904  0.00  0.00    -0.232 N 
ATOM      2  C   UNL     1       3.010   6.001  -3.640  0.00  0.00    +0.235 C 
ATOM      3  O   UNL     1       2.232   6.673  -4.283  0.00  0.00    -0.274 OA
ATOM      4  C   UNL     1       4.505   6.278  -3.635  0.00  0.00    +0.172 C 
ATOM      5  S   UNL     1       5.081   4.948  -2.507  0.00  0.00    -0.099 S 
ATOM      6  C   UNL     1       3.488   4.213  -2.169  0.00  0.00    +0.098 C 
ATOM      7  C   UNL     1       3.200   3.118  -1.354  0.00  0.00    +0.142 C 
ENDROOT
BRANCH   7   8
ATOM      8  C   UNL     1       1.810   2.765  -1.068  0.00  0.00    +0.259 C 
ATOM      9  O   UNL     1       1.218   1.985  -1.791  0.00  0.00    -0.269 OA
ATOM     10  N   UNL     1       1.184   3.304  -0.003  0.00  0.00    -0.297 N 
ATOM     11  C   UNL     1      -0.240   3.038   0.242  0.00  0.00    +0.108 C 
ATOM     12  C   UNL     1      -0.404   2.506   1.669  0.00  0.00    +0.019 C 
ATOM     13  C   UNL     1       0.229   3.492   2.653  0.00  0.00    +0.003 C 
ATOM     14  C   UNL     1       1.724   3.623   2.356  0.00  0.00    +0.019 C 
ATOM     15  C   UNL     1       1.913   4.168   0.936  0.00  0.00    +0.108 C 
ENDBRANCH   7   8
BRANCH   1  22
ATOM     16  C   UNL     1       1.649   2.978  -4.686  0.00  0.00    +0.045 C 
ATOM     17  C   UNL     1       0.737   3.691  -3.722  0.00  0.00    -0.029 A 
ATOM     18  C   UNL     1      -0.608   3.379  -3.682  0.00  0.00    +0.005 A 
ATOM     19  C   UNL     1      -1.446   4.037  -2.800  0.00  0.00    +0.000 A 
ATOM     20  C   UNL     1      -0.940   5.006  -1.953  0.00  0.00    +0.002 A 
ATOM     21  C   UNL     1       0.405   5.319  -1.985  0.00  0.00    +0.024 A 
ATOM     22  C   UNL     1       1.249   4.660  -2.869  0.00  0.00    +0.045 A 
ENDBRANCH   1  22
BRANCH   7  23
ATOM     23  C   UNL     1       4.266   2.339  -0.799  0.00  0.00    +0.107 C 
ATOM     24  N   UNL     1       5.111   1.721  -0.358  0.00  0.00    -0.191 NA
ENDBRANCH   7  23
TORSDOF 3
