REMARK  Name = ZINC43325286
REMARK  6 active torsions:
REMARK  status: ('A' for Active; 'I' for Inactive)
REMARK    1  A    between atoms: C_1  and  C_2
REMARK    2  A    between atoms: C_5  and  N_9
REMARK    3  A    between atoms: N_12  and  C_13
REMARK    4  A    between atoms: C_13  and  C_14
REMARK    5  A    between atoms: C_14  and  C_16
REMARK    6  A    between atoms: C_14  and  N_21
REMARK                            x       y       z     vdW  Elec       q    Type
REMARK                         _______ _______ _______ _____ _____    ______ ____
ROOT
ATOM      1  N   UNL     1       2.416  -4.978  -4.519  0.00  0.00    -0.267 N 
ATOM      2  C   UNL     1       1.433  -5.280  -3.648  0.00  0.00    +0.304 C 
ATOM      3  O   UNL     1       0.656  -4.418  -3.285  0.00  0.00    -0.253 OA
ATOM      4  N   UNL     1       1.311  -6.538  -3.180  0.00  0.00    -0.300 N 
ATOM      5  H   UNL     1       2.986  -5.680  -4.870  0.00  0.00    +0.156 HD
ATOM      6  H   UNL     1       1.930  -7.226  -3.470  0.00  0.00    +0.150 HD
ENDROOT
BRANCH   1  11
ATOM      7  C   UNL     1       3.223   0.404  -6.132  0.00  0.00    +0.044 C 
ATOM      8  C   UNL     1       3.009  -1.025  -5.705  0.00  0.00    -0.048 A 
ATOM      9  C   UNL     1       2.390  -1.299  -4.499  0.00  0.00    +0.005 A 
ATOM     10  C   UNL     1       2.192  -2.608  -4.104  0.00  0.00    +0.026 A 
ATOM     11  C   UNL     1       2.615  -3.650  -4.918  0.00  0.00    +0.070 A 
ATOM     12  C   UNL     1       3.237  -3.372  -6.130  0.00  0.00    +0.145 A 
ATOM     13  C   UNL     1       3.427  -2.059  -6.522  0.00  0.00    +0.043 A 
ATOM     14  F   UNL     1       3.651  -4.382  -6.926  0.00  0.00    -0.204 F 
ENDBRANCH   1  11
BRANCH   4  15
ATOM     15  C   UNL     1       0.242  -6.866  -2.234  0.00  0.00    +0.095 C 
BRANCH  15  16
ATOM     16  C   UNL     1       0.400  -8.315  -1.769  0.00  0.00    -0.013 C 
BRANCH  16  17
ATOM     17  N   UNL     1      -0.588  -8.604  -0.721  0.00  0.00    +0.386 N 
ATOM     18  C   UNL     1      -0.328  -9.939  -0.125  0.00  0.00    -0.078 C 
ATOM     19  C   UNL     1      -1.026  -9.854   1.256  0.00  0.00    -0.020 C 
ATOM     20  C   UNL     1      -0.749  -8.397   1.693  0.00  0.00    -0.020 C 
ATOM     21  C   UNL     1      -0.454  -7.634   0.388  0.00  0.00    -0.078 C 
ATOM     22  H   UNL     1      -1.522  -8.568  -1.103  0.00  0.00    -0.081 HD
ENDBRANCH  16  17
BRANCH  16  23
ATOM     23  C   UNL     1       0.181  -9.244  -2.935  0.00  0.00    -0.022 A 
ATOM     24  C   UNL     1       1.099  -9.879  -3.705  0.00  0.00    +0.009 A 
ATOM     25  C   UNL     1       0.663 -10.693  -4.733  0.00  0.00    +0.008 A 
ATOM     26  C   UNL     1      -0.669 -10.833  -4.941  0.00  0.00    +0.045 A 
ATOM     27  S   UNL     1      -1.354  -9.799  -3.657  0.00  0.00    -0.103 S 
ENDBRANCH  16  23
ENDBRANCH  15  16
ENDBRANCH   4  15
TORSDOF 5
