REMARK  Name = ZINC22039061
REMARK  9 active torsions:
REMARK  status: ('A' for Active; 'I' for Inactive)
REMARK    1  A    between atoms: C_4  and  C_7
REMARK    2  A    between atoms: C_7  and  C_8
REMARK    3  A    between atoms: C_7  and  N_14
REMARK    4  A    between atoms: N_17  and  C_20
REMARK    5  A    between atoms: C_20  and  C_21
REMARK    6  A    between atoms: C_21  and  C_23
REMARK    7  A    between atoms: C_21  and  O_36
REMARK    8  A    between atoms: C_23  and  O_24
REMARK    9  A    between atoms: O_24  and  C_25
REMARK                            x       y       z     vdW  Elec       q    Type
REMARK                         _______ _______ _______ _____ _____    ______ ____
ROOT
ATOM      1  N   UNL     1       4.502   0.761   0.127  0.00  0.00    +0.389 N 
ATOM      2  C   UNL     1       4.673   2.105  -0.443  0.00  0.00    -0.062 C 
ATOM      3  C   UNL     1       5.339   3.014   0.592  0.00  0.00    +0.066 C 
ATOM      4  N   UNL     1       6.635   2.442   0.982  0.00  0.00    -0.303 NA
ATOM      5  C   UNL     1       6.465   1.098   1.551  0.00  0.00    +0.066 C 
ATOM      6  C   UNL     1       5.799   0.189   0.516  0.00  0.00    -0.062 C 
ATOM      7  H   UNL     1       3.885   0.852   1.032  0.00  0.00    -0.080 HD
ENDROOT
BRANCH   1   8
ATOM      8  C   UNL     1       3.797  -0.123  -0.811  0.00  0.00    -0.007 C 
BRANCH   8  12
ATOM      9  C   UNL     1       3.329  -3.986   0.951  0.00  0.00    +0.000 A 
ATOM     10  C   UNL     1       3.050  -2.851   1.689  0.00  0.00    +0.000 A 
ATOM     11  C   UNL     1       3.201  -1.601   1.119  0.00  0.00    +0.002 A 
ATOM     12  C   UNL     1       3.632  -1.486  -0.190  0.00  0.00    -0.057 A 
ATOM     13  C   UNL     1       3.912  -2.620  -0.928  0.00  0.00    +0.002 A 
ATOM     14  C   UNL     1       3.760  -3.870  -0.357  0.00  0.00    +0.000 A 
ENDBRANCH   8  12
BRANCH   8  15
ATOM     15  C   UNL     1       2.441   0.455  -1.123  0.00  0.00    -0.057 A 
ATOM     16  C   UNL     1       1.641   0.931  -0.101  0.00  0.00    +0.002 A 
ATOM     17  C   UNL     1       0.399   1.466  -0.387  0.00  0.00    +0.000 A 
ATOM     18  C   UNL     1      -0.048   1.515  -1.694  0.00  0.00    +0.000 A 
ATOM     19  C   UNL     1       0.749   1.034  -2.715  0.00  0.00    +0.000 A 
ATOM     20  C   UNL     1       1.994   0.504  -2.430  0.00  0.00    +0.002 A 
ENDBRANCH   8  15
ENDBRANCH   1   8
BRANCH   4  21
ATOM     21  C   UNL     1       7.341   3.326   1.919  0.00  0.00    +0.117 C 
BRANCH  21  22
ATOM     22  C   UNL     1       8.831   2.980   1.923  0.00  0.00    +0.154 C 
BRANCH  22  23
ATOM     23  O   UNL     1       9.369   3.176   0.614  0.00  0.00    -0.388 OA
ATOM     24  H   UNL     1      10.433   2.977   0.421  0.00  0.00    +0.210 HD
ENDBRANCH  22  23
BRANCH  22  25
ATOM     25  C   UNL     1       9.562   3.886   2.916  0.00  0.00    +0.193 C 
BRANCH  25  26
ATOM     26  O   UNL     1      10.931   3.487   3.006  0.00  0.00    -0.369 OA
BRANCH  26  27
ATOM     27  C   UNL     1      11.682   4.202   3.990  0.00  0.00    +0.149 C 
ATOM     28  C   UNL     1      12.242   5.479   3.366  0.00  0.00    +0.037 C 
ATOM     29  C   UNL     1      13.215   6.117   4.364  0.00  0.00    +0.007 C 
ATOM     30  C   UNL     1      14.458   5.234   4.457  0.00  0.00    +0.035 C 
ATOM     31  C   UNL     1      14.072   3.801   4.715  0.00  0.00    -0.042 A 
ATOM     32  C   UNL     1      12.798   3.326   4.496  0.00  0.00    -0.016 A 
ATOM     33  C   UNL     1      12.509   1.991   4.747  0.00  0.00    +0.006 A 
ATOM     34  C   UNL     1      13.487   1.139   5.216  0.00  0.00    +0.000 A 
ATOM     35  C   UNL     1      14.765   1.616   5.440  0.00  0.00    +0.000 A 
ATOM     36  C   UNL     1      15.054   2.942   5.190  0.00  0.00    +0.004 A 
ENDBRANCH  26  27
ENDBRANCH  25  26
ENDBRANCH  22  25
ENDBRANCH  21  22
ENDBRANCH   4  21
TORSDOF 9
