REMARK  Name = ZINC49207973
REMARK  11 active torsions:
REMARK  status: ('A' for Active; 'I' for Inactive)
REMARK    1  A    between atoms: C_1  and  C_2
REMARK    2  A    between atoms: C_4  and  C_28
REMARK    3  A    between atoms: N_6  and  C_8
REMARK    4  A    between atoms: C_8  and  C_9
REMARK    5  A    between atoms: C_9  and  N_10
REMARK    6  A    between atoms: N_13  and  C_14
REMARK    7  A    between atoms: C_14  and  C_15
REMARK    8  A    between atoms: C_18  and  N_21
REMARK    9  A    between atoms: N_24  and  C_25
REMARK   10  A    between atoms: C_25  and  C_26
REMARK   11  A    between atoms: C_25  and  C_27
REMARK                            x       y       z     vdW  Elec       q    Type
REMARK                         _______ _______ _______ _____ _____    ______ ____
ROOT
ATOM      1  N   UNL     1       1.224  -2.579   4.883  0.00  0.00    -0.301 N 
ATOM      2  C   UNL     1       0.643  -2.347   6.076  0.00  0.00    +0.300 C 
ATOM      3  O   UNL     1      -0.411  -1.742   6.132  0.00  0.00    -0.253 OA
ATOM      4  N   UNL     1       1.229  -2.785   7.208  0.00  0.00    -0.295 N 
ATOM      5  H   UNL     1       2.064  -3.061   4.838  0.00  0.00    +0.150 HD
ATOM      6  H   UNL     1       2.069  -3.268   7.163  0.00  0.00    +0.151 HD
ENDROOT
BRANCH   1   7
ATOM      7  C   UNL     1       0.587  -2.102   3.652  0.00  0.00    +0.087 C 
BRANCH   7   8
ATOM      8  C   UNL     1       1.446  -2.494   2.448  0.00  0.00    -0.060 C 
BRANCH   8  14
ATOM      9  C   UNL     1       0.009   1.483  -0.019  0.00  0.00    +0.005 C 
ATOM     10  C   UNL     1       0.039  -0.047  -0.025  0.00  0.00    -0.031 C 
ATOM     11  C   UNL     1       0.769  -0.540  -1.277  0.00  0.00    +0.003 C 
ATOM     12  C   UNL     1       0.861  -2.068  -1.234  0.00  0.00    -0.031 C 
ATOM     13  C   UNL     1       1.567  -2.494   0.054  0.00  0.00    -0.076 C 
ATOM     14  N   UNL     1       0.807  -2.016   1.215  0.00  0.00    +0.381 N 
ATOM     15  C   UNL     1       0.775  -0.548   1.219  0.00  0.00    -0.076 C 
ATOM     16  C   UNL     1       1.657  -2.566  -2.442  0.00  0.00    +0.005 C 
ATOM     17  H   UNL     1      -0.137  -2.371   1.168  0.00  0.00    -0.082 HD
ENDBRANCH   8  14
ENDBRANCH   7   8
ENDBRANCH   1   7
BRANCH   4  18
ATOM     18  C   UNL     1       0.597  -2.533   8.505  0.00  0.00    +0.141 C 
BRANCH  18  19
ATOM     19  C   UNL     1       1.448  -3.122   9.601  0.00  0.00    -0.030 A 
ATOM     20  C   UNL     1       1.242  -4.427  10.008  0.00  0.00    +0.007 A 
ATOM     21  C   UNL     1       2.020  -4.970  11.012  0.00  0.00    +0.023 A 
ATOM     22  C   UNL     1       3.009  -4.202  11.613  0.00  0.00    +0.035 A 
ATOM     23  C   UNL     1       3.213  -2.892  11.202  0.00  0.00    +0.023 A 
ATOM     24  C   UNL     1       2.436  -2.357  10.193  0.00  0.00    +0.007 A 
BRANCH  22  25
ATOM     25  N   UNL     1       3.799  -4.749  12.631  0.00  0.00    -0.269 N 
ATOM     26  C   UNL     1       3.262  -5.625  13.504  0.00  0.00    +0.304 C 
ATOM     27  O   UNL     1       2.117  -6.005  13.357  0.00  0.00    -0.253 OA
ATOM     28  N   UNL     1       3.996  -6.080  14.539  0.00  0.00    -0.297 N 
ATOM     29  H   UNL     1       4.732  -4.497  12.709  0.00  0.00    +0.156 HD
ATOM     30  H   UNL     1       4.910  -5.777  14.656  0.00  0.00    +0.151 HD
BRANCH  28  31
ATOM     31  C   UNL     1       3.412  -7.032  15.487  0.00  0.00    +0.068 C 
ATOM     32  C   UNL     1       4.529  -7.846  16.145  0.00  0.00    +0.027 C 
ATOM     33  C   UNL     1       2.635  -6.270  16.562  0.00  0.00    +0.027 C 
ENDBRANCH  28  31
ENDBRANCH  22  25
ENDBRANCH  18  19
ENDBRANCH   4  18
TORSDOF 7
