REMARK  Name = ZINC42806760
REMARK  6 active torsions:
REMARK  status: ('A' for Active; 'I' for Inactive)
REMARK    1  A    between atoms: C_1  and  C_2
REMARK    2  A    between atoms: C_2  and  C_4
REMARK    3  A    between atoms: C_2  and  N_12
REMARK    4  A    between atoms: N_15  and  N_16
REMARK    5  A    between atoms: C_17  and  O_19
REMARK    6  A    between atoms: O_19  and  C_20
REMARK                            x       y       z     vdW  Elec       q    Type
REMARK                         _______ _______ _______ _____ _____    ______ ____
ROOT
ATOM      1  N   UNL     1       0.688  -0.476  -1.203  0.00  0.00    -0.292 N 
ATOM      2  C   UNL     1       0.006  -0.608  -2.358  0.00  0.00    +0.316 C 
ATOM      3  O   UNL     1      -1.178  -0.335  -2.400  0.00  0.00    -0.251 OA
ATOM      4  N   UNL     1       0.637  -1.043  -3.467  0.00  0.00    -0.216 N 
ATOM      5  H   UNL     1       1.632  -0.695  -1.170  0.00  0.00    +0.151 HD
ATOM      6  H   UNL     1       0.146  -1.137  -4.299  0.00  0.00    +0.174 HD
ENDROOT
BRANCH   4   7
ATOM      7  N   UNL     1       2.001  -1.358  -3.419  0.00  0.00    -0.198 N 
ATOM      8  C   UNL     1       2.632  -1.792  -4.528  0.00  0.00    +0.417 C 
ATOM      9  O   UNL     1       3.815  -2.066  -4.486  0.00  0.00    -0.225 OA
ATOM     10  H   UNL     1       2.492  -1.263  -2.588  0.00  0.00    +0.176 HD
BRANCH   8  11
ATOM     11  O   UNL     1       1.951  -1.924  -5.682  0.00  0.00    -0.453 OA
ATOM     12  C   UNL     1       2.683  -2.390  -6.818  0.00  0.00    +0.282 C 
ENDBRANCH   8  11
ENDBRANCH   4   7
BRANCH   1  14
ATOM     13  C   UNL     1      -0.019   1.526   0.010  0.00  0.00    +0.033 C 
ATOM     14  C   UNL     1       0.002  -0.004   0.002  0.00  0.00    +0.104 C 
BRANCH  14  15
ATOM     15  C   UNL     1       0.731  -0.503   1.223  0.00  0.00    +0.008 A 
ATOM     16  C   UNL     1       2.077  -0.808   1.147  0.00  0.00    +0.011 A 
ATOM     17  C   UNL     1       2.747  -1.265   2.266  0.00  0.00    +0.039 A 
ATOM     18  C   UNL     1       2.070  -1.419   3.465  0.00  0.00    +0.126 A 
ATOM     19  C   UNL     1       0.722  -1.115   3.541  0.00  0.00    +0.077 A 
ATOM     20  C   UNL     1       0.053  -0.651   2.421  0.00  0.00    +0.131 A 
ATOM     21  F   UNL     1      -1.261  -0.348   2.496  0.00  0.00    -0.205 F 
ATOM     22  F   UNL     1       2.725  -1.868   4.558  0.00  0.00    -0.205 F 
ENDBRANCH  14  15
ENDBRANCH   1  14
TORSDOF 4
