REMARK  Name = ZINC12499388
REMARK  7 active torsions:
REMARK  status: ('A' for Active; 'I' for Inactive)
REMARK    1  A    between atoms: C_1  and  C_2
REMARK    2  A    between atoms: C_5  and  N_8
REMARK    3  A    between atoms: N_8  and  C_9
REMARK    4  A    between atoms: C_9  and  N_11
REMARK    5  A    between atoms: N_11  and  C_12
REMARK    6  A    between atoms: C_22  and  C_23
REMARK    7  A    between atoms: C_22  and  N_53
REMARK                            x       y       z     vdW  Elec       q    Type
REMARK                         _______ _______ _______ _____ _____    ______ ____
ROOT
ATOM      1  C   UNL     1      -3.637  -0.660   4.267  0.00  0.00    +0.069 C 
ATOM      2  C   UNL     1      -4.466  -0.239   3.061  0.00  0.00    +0.007 C 
ATOM      3  C   UNL     1      -3.829  -0.654   1.740  0.00  0.00    -0.066 C 
ATOM      4  C   UNL     1      -3.888  -2.162   1.541  0.00  0.00    -0.015 C 
ATOM      5  C   UNL     1      -2.974  -2.909   2.504  0.00  0.00    -0.003 C 
ATOM      6  C   UNL     1      -1.588  -2.287   2.588  0.00  0.00    -0.015 C 
ATOM      7  C   UNL     1      -1.633  -0.773   2.723  0.00  0.00    -0.066 C 
ATOM      8  C   UNL     1      -2.155  -0.354   4.093  0.00  0.00    +0.007 C 
ATOM      9  N   UNL     1      -2.458  -0.114   1.694  0.00  0.00    +0.387 N 
ATOM     10  H   UNL     1      -2.496   0.891   1.899  0.00  0.00    -0.081 HD
ENDROOT
BRANCH   1  11
ATOM     11  N   UNL     1      -4.129   0.076   5.449  0.00  0.00    -0.324 N 
ATOM     12  H   UNL     1      -3.675   0.882   5.742  0.00  0.00    +0.148 HD
BRANCH  11  13
ATOM     13  C   UNL     1      -5.207  -0.372   6.122  0.00  0.00    +0.135 C 
ATOM     14  S   UNL     1      -6.007  -1.795   5.605  0.00  0.00    -0.019 S 
BRANCH  13  15
ATOM     15  N   UNL     1      -5.656   0.299   7.200  0.00  0.00    -0.297 N 
ATOM     16  H   UNL     1      -5.167   1.070   7.529  0.00  0.00    +0.154 HD
BRANCH  15  21
ATOM     17  C   UNL     1     -10.400  -1.380   9.818  0.00  0.00    +0.044 C 
ATOM     18  C   UNL     1      -9.140  -0.934   9.122  0.00  0.00    -0.050 A 
ATOM     19  C   UNL     1      -8.186  -1.866   8.759  0.00  0.00    +0.005 A 
ATOM     20  C   UNL     1      -7.029  -1.461   8.121  0.00  0.00    +0.023 A 
ATOM     21  C   UNL     1      -6.826  -0.115   7.845  0.00  0.00    +0.033 A 
ATOM     22  C   UNL     1      -7.784   0.820   8.216  0.00  0.00    +0.023 A 
ATOM     23  C   UNL     1      -8.941   0.407   8.849  0.00  0.00    +0.005 A 
ENDBRANCH  15  21
ENDBRANCH  13  15
ENDBRANCH  11  13
ENDBRANCH   1  11
BRANCH   9  24
ATOM     24  C   UNL     1      -1.863  -0.292   0.344  0.00  0.00    -0.035 C 
BRANCH  24  25
ATOM     25  C   UNL     1      -0.551   0.447   0.304  0.00  0.00    -0.027 A 
ATOM     26  C   UNL     1       0.695  -0.008   0.585  0.00  0.00    +0.009 A 
ATOM     27  C   UNL     1       1.766   0.858   0.474  0.00  0.00    +0.008 A 
ATOM     28  C   UNL     1       1.539   2.138   0.091  0.00  0.00    +0.045 A 
ATOM     29  S   UNL     1      -0.233   2.151  -0.124  0.00  0.00    -0.103 S 
ENDBRANCH  24  25
ENDBRANCH   9  24
TORSDOF 6
