REMARK  Name = ZINC09134419
REMARK  9 active torsions:
REMARK  status: ('A' for Active; 'I' for Inactive)
REMARK    1  A    between atoms: C_1  and  C_2
REMARK    2  A    between atoms: N_4  and  C_5
REMARK    3  A    between atoms: C_8  and  N_11
REMARK    4  A    between atoms: C_19  and  C_25
REMARK    5  A    between atoms: N_27  and  C_28
REMARK    6  A    between atoms: C_30  and  C_35
REMARK    7  A    between atoms: C_30  and  C_36
REMARK    8  A    between atoms: C_31  and  C_33
REMARK    9  A    between atoms: C_31  and  C_34
REMARK                            x       y       z     vdW  Elec       q    Type
REMARK                         _______ _______ _______ _____ _____    ______ ____
ROOT
ATOM      1  N   UNL     1       4.063   3.875   1.197  0.00  0.00    -0.268 N 
ATOM      2  C   UNL     1       4.939   2.842   1.801  0.00  0.00    +0.153 C 
ATOM      3  C   UNL     1       4.277   1.550   1.439  0.00  0.00    +0.116 C 
ATOM      4  C   UNL     1       4.983   0.250   1.293  0.00  0.00    +0.008 C 
ATOM      5  C   UNL     1       3.989  -0.645   1.219  0.00  0.00    +0.004 C 
ATOM      6  C   UNL     1       2.671   0.125   1.363  0.00  0.00    +0.155 C 
ATOM      7  O   UNL     1       3.105   1.230   2.237  0.00  0.00    -0.359 OA
ATOM      8  C   UNL     1       2.454   0.907   0.028  0.00  0.00    +0.122 C 
ATOM      9  C   UNL     1       3.637   1.892   0.043  0.00  0.00    +0.127 C 
ATOM     10  C   UNL     1       3.260   3.332   0.248  0.00  0.00    +0.227 C 
ATOM     11  O   UNL     1       2.376   3.917  -0.342  0.00  0.00    -0.275 OA
ENDROOT
BRANCH   1  15
ATOM     12  C   UNL     1       4.067   7.904   2.272  0.00  0.00    +0.033 A 
ATOM     13  C   UNL     1       3.203   7.450   1.285  0.00  0.00    +0.025 A 
ATOM     14  C   UNL     1       3.201   6.116   0.929  0.00  0.00    +0.025 A 
ATOM     15  C   UNL     1       4.064   5.229   1.558  0.00  0.00    +0.036 A 
ATOM     16  C   UNL     1       4.925   5.682   2.550  0.00  0.00    +0.025 A 
ATOM     17  C   UNL     1       4.930   7.017   2.901  0.00  0.00    +0.025 A 
BRANCH  12  21
ATOM     18  C   UNL     1       5.206  11.280   3.491  0.00  0.00    +0.109 C 
ATOM     19  C   UNL     1       5.221   9.859   2.988  0.00  0.00    +0.214 C 
ATOM     20  O   UNL     1       6.271   9.257   2.904  0.00  0.00    -0.276 OA
ATOM     21  N   UNL     1       4.069   9.258   2.633  0.00  0.00    -0.286 N 
ATOM     22  H   UNL     1       3.240   9.763   2.626  0.00  0.00    +0.155 HD
ENDBRANCH  12  21
ENDBRANCH   1  15
BRANCH   8  23
ATOM     23  C   UNL     1       1.140   1.644   0.042  0.00  0.00    +0.220 C 
ATOM     24  O   UNL     1       0.635   1.964   1.097  0.00  0.00    -0.275 OA
ATOM     25  N   UNL     1       0.524   1.947  -1.119  0.00  0.00    -0.312 N 
ATOM     26  H   UNL     1       0.928   1.690  -1.963  0.00  0.00    +0.149 HD
BRANCH  25  27
ATOM     27  C   UNL     1      -0.754   2.670  -1.105  0.00  0.00    +0.070 C 
ATOM     28  C   UNL     1      -1.898   1.666  -0.969  0.00  0.00    +0.009 C 
ATOM     29  C   UNL     1      -3.243   2.390  -0.973  0.00  0.00    -0.072 C 
ATOM     30  C   UNL     1      -2.254   4.164  -2.449  0.00  0.00    -0.072 C 
ATOM     31  C   UNL     1      -0.921   3.421  -2.426  0.00  0.00    +0.009 C 
ATOM     32  C   UNL     1      -2.161   5.411  -1.561  0.00  0.00    -0.010 C 
ATOM     33  C   UNL     1      -2.489   4.652  -3.897  0.00  0.00    -0.010 C 
ATOM     34  C   UNL     1      -3.458   3.078   0.380  0.00  0.00    -0.010 C 
ATOM     35  C   UNL     1      -4.347   1.319  -1.123  0.00  0.00    -0.010 C 
ATOM     36  N   UNL     1      -3.440   3.336  -2.103  0.00  0.00    +0.386 N 
ATOM     37  H   UNL     1      -4.209   3.970  -1.856  0.00  0.00    -0.084 HD
ATOM     38  H   UNL     1      -3.700   2.791  -2.933  0.00  0.00    -0.084 HD
ENDBRANCH  25  27
ENDBRANCH   8  23
TORSDOF 4
