REMARK  Name = ZINC64713619
REMARK  9 active torsions:
REMARK  status: ('A' for Active; 'I' for Inactive)
REMARK    1  A    between atoms: C_1  and  O_2
REMARK    2  A    between atoms: O_2  and  C_3
REMARK    3  A    between atoms: C_6  and  C_11
REMARK    4  A    between atoms: C_8  and  O_9
REMARK    5  A    between atoms: O_9  and  C_10
REMARK    6  A    between atoms: N_13  and  C_14
REMARK    7  A    between atoms: C_14  and  C_15
REMARK    8  A    between atoms: C_15  and  C_17
REMARK    9  A    between atoms: C_15  and  C_24
REMARK                            x       y       z     vdW  Elec       q    Type
REMARK                         _______ _______ _______ _____ _____    ______ ____
ROOT
ATOM      1  C   UNL     1       4.353  -1.395   7.355  0.00  0.00    +0.066 C 
ENDROOT
BRANCH   1   2
ATOM      2  C   UNL     1       4.937  -2.071   8.569  0.00  0.00    -0.033 C 
ATOM      3  C   UNL     1       4.545  -1.915   9.854  0.00  0.00    -0.000 A 
ATOM      4  C   UNL     1       3.498  -1.101  10.483  0.00  0.00    +0.010 A 
ATOM      5  C   UNL     1       3.341  -1.156  11.825  0.00  0.00    +0.001 A 
ATOM      6  C   UNL     1       4.152  -1.969  12.629  0.00  0.00    +0.002 A 
ATOM      7  C   UNL     1       5.135  -2.745  12.124  0.00  0.00    +0.026 A 
ATOM      8  C   UNL     1       5.387  -2.766  10.725  0.00  0.00    +0.043 A 
ATOM      9  N   UNL     1       6.266  -3.421  10.006  0.00  0.00    -0.380 N 
ATOM     10  C   UNL     1       6.077  -3.065   8.596  0.00  0.00    +0.145 C 
ATOM     11  H   UNL     1       6.929  -4.041  10.349  0.00  0.00    +0.160 HD
ENDBRANCH   1   2
BRANCH   1  12
ATOM     12  C   UNL     1       5.423  -0.590   6.664  0.00  0.00    -0.020 A 
ATOM     13  C   UNL     1       6.555  -1.218   6.178  0.00  0.00    +0.006 A 
ATOM     14  C   UNL     1       7.537  -0.480   5.545  0.00  0.00    +0.000 A 
ATOM     15  C   UNL     1       7.388   0.886   5.396  0.00  0.00    +0.001 A 
ATOM     16  C   UNL     1       6.257   1.515   5.881  0.00  0.00    +0.020 A 
ATOM     17  C   UNL     1       5.271   0.776   6.511  0.00  0.00    +0.045 A 
ATOM     18 CL   UNL     1       3.848   1.565   7.115  0.00  0.00    -0.083 Cl
ENDBRANCH   1  12
BRANCH   1  19
ATOM     19  C   UNL     1       3.810  -2.454   6.394  0.00  0.00    +0.117 C 
BRANCH  19  22
ATOM     20  C   UNL     1       2.577  -2.534   4.293  0.00  0.00    +0.244 C 
ATOM     21  O   UNL     1       2.632  -3.748   4.342  0.00  0.00    -0.270 OA
ATOM     22  N   UNL     1       3.136  -1.795   5.272  0.00  0.00    -0.310 N 
ATOM     23  H   UNL     1       3.093  -0.827   5.233  0.00  0.00    +0.149 HD
BRANCH  20  27
ATOM     24  C   UNL     1       0.625  -0.618   1.041  0.00  0.00    +0.162 A 
ATOM     25  C   UNL     1       1.201   0.142   2.050  0.00  0.00    +0.050 A 
ATOM     26  C   UNL     1       1.835  -0.476   3.106  0.00  0.00    +0.017 A 
ATOM     27  C   UNL     1       1.898  -1.871   3.163  0.00  0.00    +0.040 A 
ATOM     28  C   UNL     1       1.318  -2.636   2.148  0.00  0.00    +0.062 A 
ATOM     29  C   UNL     1       0.680  -2.010   1.094  0.00  0.00    +0.162 A 
BRANCH  24  31
ATOM     30  C   UNL     1      -0.017   1.425   0.010  0.00  0.00    +0.277 C 
ATOM     31  O   UNL     1       0.002  -0.004   0.002  0.00  0.00    -0.491 OA
ENDBRANCH  24  31
BRANCH  29  32
ATOM     32  O   UNL     1       0.111  -2.752   0.107  0.00  0.00    -0.491 OA
ATOM     33  C   UNL     1       0.205  -4.172   0.226  0.00  0.00    +0.277 C 
ENDBRANCH  29  32
ENDBRANCH  20  27
ENDBRANCH  19  22
ENDBRANCH   1  19
TORSDOF 7
