REMARK  Name = ZINC40727901
REMARK  7 active torsions:
REMARK  status: ('A' for Active; 'I' for Inactive)
REMARK    1  A    between atoms: C_1  and  O_2
REMARK    2  A    between atoms: O_2  and  C_3
REMARK    3  A    between atoms: C_6  and  N_9
REMARK    4  A    between atoms: C_16  and  N_35
REMARK    5  A    between atoms: C_17  and  N_21
REMARK    6  A    between atoms: N_21  and  C_22
REMARK    7  A    between atoms: C_22  and  C_23
REMARK                            x       y       z     vdW  Elec       q    Type
REMARK                         _______ _______ _______ _____ _____    ______ ____
ROOT
ATOM      1  N   UNL     1      -5.394  -1.566  -1.145  0.00  0.00    -0.327 N 
ATOM      2  C   UNL     1      -6.101  -1.825  -2.407  0.00  0.00    +0.124 C 
ATOM      3  C   UNL     1      -6.411  -3.325  -2.496  0.00  0.00    +0.125 C 
ATOM      4  N   UNL     1      -7.033  -3.752  -1.235  0.00  0.00    -0.311 N 
ATOM      5  C   UNL     1      -6.326  -3.492   0.027  0.00  0.00    +0.125 C 
ATOM      6  C   UNL     1      -6.014  -1.998   0.116  0.00  0.00    +0.124 C 
ATOM      7  C   UNL     1      -8.269  -4.388  -1.235  0.00  0.00    +0.147 A 
ATOM      8  C   UNL     1      -8.348  -5.782  -1.222  0.00  0.00    +0.104 A 
ATOM      9  C   UNL     1      -9.613  -6.371  -1.223  0.00  0.00    +0.130 A 
ATOM     10  N   UNL     1     -10.689  -5.586  -1.237  0.00  0.00    -0.332 N 
ATOM     11  C   UNL     1     -10.570  -4.274  -1.250  0.00  0.00    +0.200 A 
ATOM     12  N   UNL     1      -9.394  -3.679  -1.243  0.00  0.00    -0.221 NA
ATOM     13  H   UNL     1     -11.572  -5.987  -1.238  0.00  0.00    +0.168 HD
ENDROOT
BRANCH   9  14
ATOM     14  N   UNL     1      -9.749  -7.755  -1.210  0.00  0.00    -0.266 N 
ATOM     15  C   UNL     1      -9.916  -8.449  -2.405  0.00  0.00    +0.127 A 
ATOM     16  C   UNL     1      -9.748  -7.786  -3.616  0.00  0.00    +0.044 A 
ATOM     17  C   UNL     1      -9.917  -8.487  -4.796  0.00  0.00    +0.005 A 
ATOM     18  C   UNL     1     -10.250  -9.834  -4.725  0.00  0.00    +0.020 A 
ATOM     19  C   UNL     1     -10.401 -10.428  -3.488  0.00  0.00    +0.113 A 
ATOM     20  N   UNL     1     -10.228  -9.735  -2.378  0.00  0.00    -0.240 NA
BRANCH  14  21
ATOM     21  C   UNL     1      -9.715  -8.483   0.061  0.00  0.00    +0.149 C 
BRANCH  21  22
ATOM     22  C   UNL     1     -11.113  -8.593   0.613  0.00  0.00    -0.030 A 
ATOM     23  C   UNL     1     -11.605  -7.609   1.449  0.00  0.00    +0.005 A 
ATOM     24  C   UNL     1     -12.887  -7.710   1.956  0.00  0.00    +0.000 A 
ATOM     25  C   UNL     1     -13.677  -8.796   1.627  0.00  0.00    +0.000 A 
ATOM     26  C   UNL     1     -13.185  -9.780   0.790  0.00  0.00    +0.000 A 
ATOM     27  C   UNL     1     -11.904  -9.676   0.280  0.00  0.00    +0.005 A 
ENDBRANCH  21  22
ENDBRANCH  14  21
ENDBRANCH   9  14
BRANCH   1  31
ATOM     28  C   UNL     1      -1.688   0.343  -1.143  0.00  0.00    +0.120 A 
ATOM     29  C   UNL     1      -2.319   0.052   0.058  0.00  0.00    +0.047 A 
ATOM     30  C   UNL     1      -3.547  -0.581   0.058  0.00  0.00    +0.027 A 
ATOM     31  C   UNL     1      -4.150  -0.925  -1.144  0.00  0.00    +0.030 A 
ATOM     32  C   UNL     1      -3.518  -0.633  -2.346  0.00  0.00    +0.027 A 
ATOM     33  C   UNL     1      -2.293   0.004  -2.345  0.00  0.00    +0.047 A 
BRANCH  28  35
ATOM     34  C   UNL     1       0.085   1.285   0.131  0.00  0.00    +0.277 C 
ATOM     35  O   UNL     1      -0.479   0.965  -1.143  0.00  0.00    -0.495 OA
ENDBRANCH  28  35
ENDBRANCH   1  31
BRANCH   8  36
ATOM     36  N   UNL     1      -7.186  -6.571  -1.208  0.00  0.00    -0.353 N 
ATOM     37  H   UNL     1      -6.315  -6.150  -1.134  0.00  0.00    +0.143 HD
ATOM     38  H   UNL     1      -7.254  -7.536  -1.272  0.00  0.00    +0.143 HD
ENDBRANCH   8  36
TORSDOF 6
