REMARK  Name = ZINC29126141
REMARK  11 active torsions:
REMARK  status: ('A' for Active; 'I' for Inactive)
REMARK    1  A    between atoms: C_1  and  C_2
REMARK    2  A    between atoms: C_4  and  C_33
REMARK    3  A    between atoms: C_10  and  C_14
REMARK    4  A    between atoms: N_16  and  C_17
REMARK    5  A    between atoms: C_17  and  C_19
REMARK    6  A    between atoms: C_17  and  C_26
REMARK    7  A    between atoms: C_19  and  C_20
REMARK    8  A    between atoms: C_20  and  C_21
REMARK    9  A    between atoms: C_21  and  N_22
REMARK   10  A    between atoms: C_26  and  C_28
REMARK   11  A    between atoms: C_33  and  C_34
REMARK                            x       y       z     vdW  Elec       q    Type
REMARK                         _______ _______ _______ _____ _____    ______ ____
ROOT
ATOM      1  C   UNL     1      -0.306   7.765  -5.968  0.00  0.00    +0.235 C 
ATOM      2  O   UNL     1       0.531   6.903  -5.803  0.00  0.00    -0.274 OA
ATOM      3  N   UNL     1      -0.397   8.398  -7.155  0.00  0.00    -0.304 N 
ATOM      4  H   UNL     1      -1.156   9.179  -7.305  0.00  0.00    +0.149 HD
ENDROOT
BRANCH   1  13
ATOM      5  C   UNL     1       1.515   7.732  -3.412  0.00  0.00    +0.044 C 
ATOM      6  C   UNL     1       0.113   7.911  -2.827  0.00  0.00    +0.082 C 
ATOM      7  C   UNL     1       0.014   7.389  -1.403  0.00  0.00    +0.041 C 
ATOM      8  C   UNL     1      -0.091   5.865  -1.409  0.00  0.00    +0.005 C 
ATOM      9  C   UNL     1      -1.398   5.446  -2.082  0.00  0.00    +0.100 C 
ATOM     10  C   UNL     1      -1.518   6.105  -3.427  0.00  0.00    +0.218 C 
ATOM     11  O   UNL     1      -2.156   5.557  -4.301  0.00  0.00    -0.276 OA
ATOM     12  N   UNL     1      -0.929   7.293  -3.684  0.00  0.00    -0.275 N 
ATOM     13  C   UNL     1      -1.245   8.128  -4.847  0.00  0.00    +0.173 C 
ATOM     14  C   UNL     1      -1.132   9.645  -4.581  0.00  0.00    +0.103 C 
ATOM     15  S   UNL     1      -0.436   9.671  -2.873  0.00  0.00    -0.133 S 
BRANCH   8  16
ATOM     16  C   UNL     1      -0.070   5.347   0.031  0.00  0.00    +0.039 C 
BRANCH  16  17
ATOM     17  C   UNL     1      -0.050   3.840   0.023  0.00  0.00    -0.047 A 
ATOM     18  C   UNL     1       1.156   3.165   0.008  0.00  0.00    +0.003 A 
ATOM     19  C   UNL     1       1.175   1.783   0.000  0.00  0.00    +0.000 A 
ATOM     20  C   UNL     1      -0.013   1.076   0.008  0.00  0.00    +0.000 A 
ATOM     21  C   UNL     1      -1.219   1.751   0.017  0.00  0.00    +0.000 A 
ATOM     22  C   UNL     1      -1.238   3.133   0.030  0.00  0.00    +0.003 A 
ENDBRANCH  16  17
ENDBRANCH   8  16
ENDBRANCH   1  13
BRANCH   3  23
ATOM     23  C   UNL     1       0.516   8.045  -8.245  0.00  0.00    +0.146 C 
BRANCH  23  24
ATOM     24  C   UNL     1       1.801   8.818  -8.094  0.00  0.00    +0.208 C 
ATOM     25  O   UNL     1       1.851   9.773  -7.347  0.00  0.00    -0.288 OA
BRANCH  24  26
ATOM     26  C   UNL     1       2.990   8.416  -8.847  0.00  0.00    +0.145 A 
ATOM     27  N   UNL     1       3.146   7.408  -9.702  0.00  0.00    -0.244 NA
ATOM     28  C   UNL     1       4.298   7.218 -10.281  0.00  0.00    +0.119 A 
ATOM     29  C   UNL     1       5.346   8.048  -9.998  0.00  0.00    +0.067 A 
ATOM     30  S   UNL     1       4.622   9.142  -8.860  0.00  0.00    -0.073 S 
ENDBRANCH  24  26
ENDBRANCH  23  24
BRANCH  23  31
ATOM     31  C   UNL     1      -0.133   8.392  -9.586  0.00  0.00    +0.032 C 
BRANCH  31  32
ATOM     32  C   UNL     1      -1.370   7.516  -9.795  0.00  0.00    +0.023 C 
BRANCH  32  33
ATOM     33  C   UNL     1      -2.019   7.863 -11.137  0.00  0.00    +0.115 C 
BRANCH  33  34
ATOM     34  N   UNL     1      -3.204   7.025 -11.337  0.00  0.00    -0.358 N 
ATOM     35  C   UNL     1      -3.955   7.159 -12.481  0.00  0.00    +0.166 C 
ATOM     36  N   UNL     1      -5.009   6.413 -12.659  0.00  0.00    -0.372 N 
ATOM     37  N   UNL     1      -3.594   8.079 -13.436  0.00  0.00    -0.372 N 
ATOM     38  H   UNL     1      -3.492   6.289 -10.572  0.00  0.00    +0.162 HD
ATOM     39  H   UNL     1      -5.610   6.520 -13.574  0.00  0.00    +0.159 HD
ATOM     40  H   UNL     1      -4.196   8.186 -14.351  0.00  0.00    +0.159 HD
ATOM     41  H   UNL     1      -2.705   8.708 -13.286  0.00  0.00    +0.159 HD
ATOM     42  H   UNL     1      -5.298   5.677 -11.894  0.00  0.00    +0.159 HD
ENDBRANCH  33  34
ENDBRANCH  32  33
ENDBRANCH  31  32
ENDBRANCH  23  31
ENDBRANCH   3  23
TORSDOF 10
