REMARK  Name = ZINC48193283
REMARK  13 active torsions:
REMARK  status: ('A' for Active; 'I' for Inactive)
REMARK    1  A    between atoms: C_1  and  C_2
REMARK    2  A    between atoms: C_2  and  C_3
REMARK    3  A    between atoms: C_3  and  N_4
REMARK    4  A    between atoms: C_5  and  C_7
REMARK    5  A    between atoms: C_11  and  C_13
REMARK    6  A    between atoms: C_13  and  N_14
REMARK    7  A    between atoms: N_17  and  C_18
REMARK    8  A    between atoms: C_18  and  C_19
REMARK    9  A    between atoms: C_19  and  C_20
REMARK   10  A    between atoms: C_20  and  N_21
REMARK   11  A    between atoms: N_21  and  C_22
REMARK   12  A    between atoms: N_21  and  C_23
REMARK   13  A    between atoms: C_23  and  C_24
REMARK                            x       y       z     vdW  Elec       q    Type
REMARK                         _______ _______ _______ _____ _____    ______ ____
ROOT
ATOM      1  N   UNL     1       1.634  -7.165  -5.534  0.00  0.00    -0.295 N 
ATOM      2  C   UNL     1       1.997  -7.821  -6.654  0.00  0.00    +0.300 C 
ATOM      3  O   UNL     1       3.144  -8.202  -6.790  0.00  0.00    -0.253 OA
ATOM      4  N   UNL     1       1.090  -8.054  -7.623  0.00  0.00    -0.299 N 
ATOM      5  H   UNL     1       0.719  -6.861  -5.425  0.00  0.00    +0.151 HD
ATOM      6  H   UNL     1       0.175  -7.750  -7.514  0.00  0.00    +0.150 HD
ENDROOT
BRANCH   1   7
ATOM      7  C   UNL     1       2.620  -6.911  -4.481  0.00  0.00    +0.141 C 
BRANCH   7  12
ATOM      8  C   UNL     1       1.341  -4.101  -2.293  0.00  0.00    +0.037 A 
ATOM      9  C   UNL     1       0.752  -4.816  -1.249  0.00  0.00    +0.013 A 
ATOM     10  C   UNL     1       0.774  -6.195  -1.262  0.00  0.00    +0.001 A 
ATOM     11  C   UNL     1       1.378  -6.870  -2.308  0.00  0.00    +0.005 A 
ATOM     12  C   UNL     1       1.964  -6.168  -3.346  0.00  0.00    -0.030 A 
ATOM     13  C   UNL     1       1.944  -4.788  -3.348  0.00  0.00    +0.018 A 
BRANCH   8  15
ATOM     14  N   UNL     1       0.738  -1.962  -1.265  0.00  0.00    -0.311 N 
ATOM     15  C   UNL     1       1.321  -2.623  -2.285  0.00  0.00    +0.244 C 
ATOM     16  O   UNL     1       1.830  -2.003  -3.198  0.00  0.00    -0.270 OA
ATOM     17  H   UNL     1       0.332  -2.457  -0.536  0.00  0.00    +0.149 HD
BRANCH  14  18
ATOM     18  C   UNL     1       0.718  -0.497  -1.257  0.00  0.00    +0.104 C 
BRANCH  18  20
ATOM     19  C   UNL     1      -0.019   1.526   0.010  0.00  0.00    +0.005 C 
ATOM     20  C   UNL     1       0.002  -0.004   0.002  0.00  0.00    +0.015 C 
ENDBRANCH  18  20
ENDBRANCH  14  18
ENDBRANCH   8  15
ENDBRANCH   7  12
ENDBRANCH   1   7
BRANCH   4  21
ATOM     21  C   UNL     1       1.485  -8.768  -8.840  0.00  0.00    +0.104 C 
BRANCH  21  22
ATOM     22  C   UNL     1       0.276  -8.899  -9.769  0.00  0.00    +0.000 C 
BRANCH  22  23
ATOM     23  C   UNL     1       0.689  -9.644 -11.040  0.00  0.00    -0.077 C 
BRANCH  23  24
ATOM     24  N   UNL     1      -0.472  -9.770 -11.932  0.00  0.00    +0.381 N 
ATOM     25  C   UNL     1      -0.891  -8.436 -12.382  0.00  0.00    -0.096 C 
ATOM     26  H   UNL     1      -1.231 -10.211 -11.435  0.00  0.00    -0.082 HD
BRANCH  24  27
ATOM     27  C   UNL     1      -0.107 -10.587 -13.097  0.00  0.00    -0.043 C 
BRANCH  27  28
ATOM     28  C   UNL     1      -1.328 -10.819 -13.949  0.00  0.00    -0.064 A 
ATOM     29  C   UNL     1      -2.136 -11.917 -13.716  0.00  0.00    +0.002 A 
ATOM     30  C   UNL     1      -3.256 -12.130 -14.498  0.00  0.00    +0.000 A 
ATOM     31  C   UNL     1      -3.568 -11.245 -15.513  0.00  0.00    +0.000 A 
ATOM     32  C   UNL     1      -2.761 -10.147 -15.746  0.00  0.00    +0.000 A 
ATOM     33  C   UNL     1      -1.644  -9.932 -14.961  0.00  0.00    +0.002 A 
ENDBRANCH  27  28
ENDBRANCH  24  27
ENDBRANCH  23  24
ENDBRANCH  22  23
ENDBRANCH  21  22
ENDBRANCH   4  21
TORSDOF 11
