REMARK  Name = ZINC09323448
REMARK  8 active torsions:
REMARK  status: ('A' for Active; 'I' for Inactive)
REMARK    1  A    between atoms: C_1  and  O_2
REMARK    2  A    between atoms: O_2  and  C_3
REMARK    3  A    between atoms: C_5  and  C_20
REMARK    4  A    between atoms: C_8  and  O_9
REMARK    5  A    between atoms: O_9  and  C_10
REMARK    6  A    between atoms: C_10  and  C_11
REMARK    7  A    between atoms: C_15  and  C_17
REMARK    8  A    between atoms: N_24  and  C_28
REMARK                            x       y       z     vdW  Elec       q    Type
REMARK                         _______ _______ _______ _____ _____    ______ ____
ROOT
ATOM      1  C   UNL     1      -0.623   3.143   1.796  0.00  0.00    +0.164 A 
ATOM      2  C   UNL     1      -0.259   3.869   0.679  0.00  0.00    +0.057 A 
ATOM      3  C   UNL     1      -0.199   5.266   0.745  0.00  0.00    -0.018 A 
ATOM      4  C   UNL     1      -0.509   5.920   1.944  0.00  0.00    +0.032 A 
ATOM      5  C   UNL     1      -0.872   5.187   3.054  0.00  0.00    +0.087 A 
ATOM      6  C   UNL     1      -0.936   3.800   2.984  0.00  0.00    +0.181 A 
ATOM      7 CL   UNL     1      -1.256   5.998   4.540  0.00  0.00    -0.080 Cl
ENDROOT
BRANCH   3   8
ATOM      8  C   UNL     1       0.187   6.044  -0.439  0.00  0.00    +0.036 C 
ATOM      9  C   UNL     1      -0.442   7.213  -0.718  0.00  0.00    +0.099 C 
ATOM     10  C   UNL     1      -1.627   7.771  -0.049  0.00  0.00    +0.273 C 
ATOM     11  O   UNL     1      -2.249   7.275   0.872  0.00  0.00    -0.268 OA
ATOM     12  N   UNL     1      -1.885   8.945  -0.661  0.00  0.00    -0.189 N 
ATOM     13  C   UNL     1      -0.989   9.158  -1.636  0.00  0.00    +0.318 C 
ATOM     14  O   UNL     1      -0.978  10.135  -2.360  0.00  0.00    -0.251 OA
ATOM     15  N   UNL     1      -0.105   8.147  -1.708  0.00  0.00    -0.264 N 
ATOM     16  H   UNL     1       0.634   8.077  -2.332  0.00  0.00    +0.157 HD
BRANCH  12  17
ATOM     17  C   UNL     1      -2.938   9.811  -0.331  0.00  0.00    +0.047 A 
ATOM     18  C   UNL     1      -3.112  10.994  -1.036  0.00  0.00    +0.024 A 
ATOM     19  C   UNL     1      -4.149  11.845  -0.710  0.00  0.00    +0.003 A 
ATOM     20  C   UNL     1      -5.014  11.521   0.319  0.00  0.00    +0.020 A 
ATOM     21  C   UNL     1      -4.844  10.342   1.023  0.00  0.00    +0.043 A 
ATOM     22  C   UNL     1      -3.811   9.484   0.697  0.00  0.00    +0.044 A 
ATOM     23 CL   UNL     1      -5.933   9.938   2.313  0.00  0.00    -0.083 Cl
ENDBRANCH  12  17
ENDBRANCH   3   8
BRANCH   1  25
ATOM     24  C   UNL     1      -0.354   1.178   0.483  0.00  0.00    +0.277 C 
ATOM     25  O   UNL     1      -0.682   1.786   1.734  0.00  0.00    -0.491 OA
ENDBRANCH   1  25
BRANCH   6  26
ATOM     26  O   UNL     1      -1.300   3.083   4.079  0.00  0.00    -0.482 OA
BRANCH  26  27
ATOM     27  C   UNL     1      -0.255   2.671   4.962  0.00  0.00    +0.264 C 
BRANCH  27  28
ATOM     28  C   UNL     1      -0.844   1.894   6.111  0.00  0.00    -0.010 A 
ATOM     29  C   UNL     1      -0.988   0.521   6.013  0.00  0.00    +0.007 A 
ATOM     30  C   UNL     1      -1.528  -0.201   7.062  0.00  0.00    +0.001 A 
ATOM     31  C   UNL     1      -1.927   0.445   8.215  0.00  0.00    +0.015 A 
ATOM     32  C   UNL     1      -1.785   1.830   8.320  0.00  0.00    +0.064 A 
ATOM     33  C   UNL     1      -1.233   2.551   7.259  0.00  0.00    +0.022 A 
BRANCH  32  34
ATOM     34  C   UNL     1      -2.209   2.528   9.550  0.00  0.00    +0.387 C 
ATOM     35  O   UNL     1      -2.084   3.733   9.639  0.00  0.00    -0.241 OA
ATOM     36  O   UNL     1      -2.735   1.829  10.575  0.00  0.00    -0.241 OA
ENDBRANCH  32  34
ENDBRANCH  27  28
ENDBRANCH  26  27
ENDBRANCH   6  26
TORSDOF 7
