REMARK  Name = ZINC33485388
REMARK  6 active torsions:
REMARK  status: ('A' for Active; 'I' for Inactive)
REMARK    1  A    between atoms: C_1  and  C_2
REMARK    2  A    between atoms: C_4  and  C_25
REMARK    3  A    between atoms: C_6  and  O_8
REMARK    4  A    between atoms: O_8  and  C_9
REMARK    5  A    between atoms: C_12  and  C_15
REMARK    6  A    between atoms: C_18  and  C_22
REMARK                            x       y       z     vdW  Elec       q    Type
REMARK                         _______ _______ _______ _____ _____    ______ ____
ROOT
ATOM      1  C   UNK     1      -5.821   3.808  -1.128  0.00  0.00    +0.128 A 
ATOM      2  C   UNK     1      -4.890   4.429  -1.948  0.00  0.00    +0.046 A 
ATOM      3  C   UNK     1      -3.540   4.229  -1.734  0.00  0.00    +0.006 A 
ATOM      4  C   UNK     1      -3.116   3.411  -0.703  0.00  0.00    -0.052 A 
ATOM      5  C   UNK     1      -4.042   2.786   0.112  0.00  0.00    +0.006 A 
ATOM      6  C   UNK     1      -5.393   2.987  -0.095  0.00  0.00    +0.046 A 
ENDROOT
BRANCH   4   7
ATOM      7  C   UNK     1      -1.643   3.195  -0.472  0.00  0.00    +0.020 C 
ATOM      8  N   UNK     1      -1.383   2.830   0.939  0.00  0.00    +0.399 N 
ATOM      9  C   UNK     1      -0.905   1.465   1.170  0.00  0.00    +0.055 C 
ATOM     10  C   UNK     1      -0.055   0.966  -0.035  0.00  0.00    +0.063 C 
ATOM     11  S   UNK     1      -1.047   1.719  -1.401  0.00  0.00    -0.173 S 
ATOM     12  H   UNK     1      -0.615   3.498   1.354  0.00  0.00    -0.083 HD
ATOM     13  H   UNK     1      -2.311   2.933   1.520  0.00  0.00    -0.083 HD
BRANCH   9  14
ATOM     14  C   UNK     1      -0.061   1.438   2.418  0.00  0.00    +0.343 C 
ATOM     15  O   UNK     1       0.441   2.457   2.830  0.00  0.00    -0.248 OA
ATOM     16  O   UNK     1       0.132   0.282   3.073  0.00  0.00    -0.248 OA
ENDBRANCH   9  14
ENDBRANCH   4   7
BRANCH   1  17
ATOM     17  O   UNK     1      -7.149   4.004  -1.337  0.00  0.00    -0.456 OA
BRANCH  17  23
ATOM     18  C   UNK     1      -7.177   6.614   2.787  0.00  0.00    +0.044 C 
ATOM     19  C   UNK     1      -7.897   5.976   1.628  0.00  0.00    -0.047 A 
ATOM     20  C   UNK     1      -9.271   6.089   1.521  0.00  0.00    +0.007 A 
ATOM     21  C   UNK     1      -9.935   5.505   0.458  0.00  0.00    -0.047 A 
ATOM     22  C   UNK     1      -9.227   4.806  -0.500  0.00  0.00    +0.049 A 
ATOM     23  C   UNK     1      -7.848   4.690  -0.395  0.00  0.00    +0.129 A 
ATOM     24  C   UNK     1      -7.185   5.273   0.675  0.00  0.00    +0.049 A 
ATOM     25  C   UNK     1     -11.433   5.631   0.345  0.00  0.00    +0.044 C 
ENDBRANCH  17  23
ENDBRANCH   1  17
TORSDOF 4
