REMARK  Name = ZINC32913422
REMARK  8 active torsions:
REMARK  status: ('A' for Active; 'I' for Inactive)
REMARK    1  A    between atoms: C_1  and  C_2
REMARK    2  A    between atoms: C_7  and  N_8
REMARK    3  A    between atoms: C_9  and  C_11
REMARK    4  A    between atoms: C_11  and  N_12
REMARK    5  A    between atoms: N_12  and  C_13
REMARK    6  A    between atoms: N_12  and  C_14
REMARK    7  A    between atoms: C_14  and  C_15
REMARK    8  A    between atoms: N_17  and  C_18
REMARK                            x       y       z     vdW  Elec       q    Type
REMARK                         _______ _______ _______ _____ _____    ______ ____
ROOT
ATOM      1  N   UNL     1       0.211  -0.717   0.092  0.00  0.00    +0.389 N 
ATOM      2  C   UNL     1       0.277   0.719  -0.212  0.00  0.00    -0.095 C 
ATOM      3  H   UNL     1       0.782  -1.253  -0.680  0.00  0.00    -0.081 HD
ENDROOT
BRANCH   1   4
ATOM      4  C   UNL     1      -1.175  -1.202   0.046  0.00  0.00    +0.019 C 
BRANCH   4   6
ATOM      5  N   UNL     1      -2.950  -1.504  -1.651  0.00  0.00    -0.287 N 
ATOM      6  C   UNL     1      -1.692  -1.111  -1.367  0.00  0.00    +0.201 C 
ATOM      7  O   UNL     1      -0.976  -0.684  -2.248  0.00  0.00    -0.278 OA
ATOM      8  H   UNL     1      -3.624  -1.818  -0.841  0.00  0.00    +0.155 HD
BRANCH   5  15
ATOM      9  C   UNL     1      -4.966  -3.375  -2.377  0.00  0.00    +0.046 C 
ATOM     10  C   UNL     1      -4.381  -2.409  -3.374  0.00  0.00    -0.028 A 
ATOM     11  C   UNL     1      -4.825  -2.410  -4.682  0.00  0.00    +0.020 A 
ATOM     12  C   UNL     1      -4.283  -1.528  -5.599  0.00  0.00    +0.018 A 
ATOM     13  C   UNL     1      -3.299  -0.637  -5.208  0.00  0.00    +0.017 A 
ATOM     14  C   UNL     1      -2.855  -0.627  -3.900  0.00  0.00    +0.024 A 
ATOM     15  C   UNL     1      -3.397  -1.512  -2.977  0.00  0.00    +0.036 A 
ATOM     16 BR   UNL     1      -4.889  -1.538  -7.390  0.00  0.00    -0.050 Br
ENDBRANCH   5  15
ENDBRANCH   4   6
ENDBRANCH   1   4
BRANCH   1  17
ATOM     17  C   UNL     1       0.827  -1.008   1.393  0.00  0.00    +0.019 C 
BRANCH  17  18
ATOM     18  C   UNL     1       2.305  -0.724   1.324  0.00  0.00    +0.197 C 
ATOM     19  O   UNL     1       2.797  -0.319   0.292  0.00  0.00    -0.278 OA
ATOM     20  N   UNL     1       3.081  -0.920   2.409  0.00  0.00    -0.306 N 
ATOM     21  H   UNL     1       2.635  -1.288   3.345  0.00  0.00    +0.149 HD
BRANCH  20  22
ATOM     22  C   UNL     1       4.518  -0.644   2.341  0.00  0.00    +0.159 C 
ATOM     23  C   UNL     1       5.079  -0.489   3.757  0.00  0.00    +0.032 C 
ATOM     24  C   UNL     1       4.368  -1.421   4.722  0.00  0.00    +0.004 C 
ATOM     25  C   UNL     1       4.632  -2.892   4.460  0.00  0.00    +0.019 C 
ATOM     26  C   UNL     1       4.018  -3.328   3.128  0.00  0.00    +0.104 C 
ATOM     27  N   UNL     1       4.982  -3.053   2.052  0.00  0.00    -0.314 N 
ATOM     28  C   UNL     1       5.227  -1.799   1.668  0.00  0.00    +0.233 C 
ATOM     29  O   UNL     1       6.020  -1.584   0.776  0.00  0.00    -0.274 OA
ATOM     30  H   UNL     1       5.507  -3.884   1.558  0.00  0.00    +0.149 HD
ENDBRANCH  20  22
ENDBRANCH  17  18
ENDBRANCH   1  17
TORSDOF 6
