REMARK  Name = ZINC41488538
REMARK  12 active torsions:
REMARK  status: ('A' for Active; 'I' for Inactive)
REMARK    1  A    between atoms: C_1  and  C_2
REMARK    2  A    between atoms: C_3  and  C_27
REMARK    3  A    between atoms: C_7  and  N_8
REMARK    4  A    between atoms: C_9  and  C_11
REMARK    5  A    between atoms: N_13  and  C_14
REMARK    6  A    between atoms: C_14  and  C_15
REMARK    7  A    between atoms: C_20  and  C_21
REMARK    8  A    between atoms: C_21  and  N_22
REMARK    9  A    between atoms: N_22  and  C_23
REMARK   10  A    between atoms: N_22  and  C_24
REMARK   11  A    between atoms: C_24  and  C_25
REMARK   12  A    between atoms: C_24  and  C_26
REMARK                            x       y       z     vdW  Elec       q    Type
REMARK                         _______ _______ _______ _____ _____    ______ ____
ROOT
ATOM      1  C   UNL     1       1.041   1.249   4.681  0.00  0.00    +0.300 C 
ATOM      2  O   UNL     1       1.203   2.444   4.818  0.00  0.00    -0.265 OA
ATOM      3  N   UNL     1       1.048   0.440   5.760  0.00  0.00    -0.303 N 
ATOM      4  H   UNL     1       0.918  -0.515   5.650  0.00  0.00    +0.149 HD
ENDROOT
BRANCH   1   6
ATOM      5  N   UNL     1       0.826   1.484   2.240  0.00  0.00    -0.277 N 
ATOM      6  C   UNL     1       0.833   0.675   3.318  0.00  0.00    +0.303 C 
ATOM      7  O   UNL     1       0.671  -0.520   3.182  0.00  0.00    -0.265 OA
ATOM      8  H   UNL     1       0.890   2.445   2.354  0.00  0.00    +0.155 HD
BRANCH   5  15
ATOM      9  C   UNL     1      -0.192   3.130   0.158  0.00  0.00    +0.046 C 
ATOM     10  C   UNL     1       0.236   1.705  -0.087  0.00  0.00    -0.017 A 
ATOM     11  C   UNL     1       0.144   1.157  -1.366  0.00  0.00    +0.041 A 
ATOM     12  C   UNL     1       0.543  -0.163  -1.585  0.00  0.00    +0.013 A 
ATOM     13  C   UNL     1       1.025  -0.921  -0.538  0.00  0.00    +0.003 A 
ATOM     14  C   UNL     1       1.116  -0.378   0.730  0.00  0.00    +0.023 A 
ATOM     15  C   UNL     1       0.727   0.937   0.958  0.00  0.00    +0.037 A 
BRANCH  11  16
ATOM     16  C   UNL     1      -0.374   1.971  -2.487  0.00  0.00    +0.242 C 
ATOM     17  O   UNL     1      -0.623   3.149  -2.318  0.00  0.00    -0.270 OA
ATOM     18  N   UNL     1      -0.569   1.407  -3.695  0.00  0.00    -0.325 N 
ATOM     19  H   UNL     1      -0.370   0.468  -3.830  0.00  0.00    +0.145 HD
ATOM     20  H   UNL     1      -0.909   1.942  -4.430  0.00  0.00    +0.145 HD
ENDBRANCH  11  16
ENDBRANCH   5  15
ENDBRANCH   1   6
BRANCH   3  21
ATOM     21  C   UNL     1       1.251   1.004   7.096  0.00  0.00    +0.140 C 
BRANCH  21  22
ATOM     22  C   UNL     1       1.336  -0.113   8.105  0.00  0.00    -0.029 A 
ATOM     23  C   UNL     1       0.222  -0.464   8.844  0.00  0.00    +0.005 A 
ATOM     24  C   UNL     1       0.299  -1.488   9.768  0.00  0.00    +0.000 A 
ATOM     25  C   UNL     1       1.492  -2.163   9.954  0.00  0.00    +0.000 A 
ATOM     26  C   UNL     1       2.606  -1.813   9.214  0.00  0.00    +0.002 A 
ATOM     27  C   UNL     1       2.527  -0.791   8.286  0.00  0.00    -0.059 A 
BRANCH  27  28
ATOM     28  C   UNL     1       3.740  -0.413   7.476  0.00  0.00    -0.043 C 
BRANCH  28  29
ATOM     29  N   UNL     1       3.667  -1.054   6.156  0.00  0.00    +0.382 N 
ATOM     30  C   UNL     1       3.754  -2.512   6.314  0.00  0.00    -0.095 C 
ATOM     31  H   UNL     1       2.791  -0.816   5.715  0.00  0.00    -0.081 HD
BRANCH  29  32
ATOM     32  C   UNL     1       4.780  -0.584   5.321  0.00  0.00    -0.075 C 
ATOM     33  C   UNL     1       4.703  -1.252   3.947  0.00  0.00    -0.014 C 
ATOM     34  C   UNL     1       4.689   0.934   5.157  0.00  0.00    -0.014 C 
ENDBRANCH  29  32
ENDBRANCH  28  29
ENDBRANCH  27  28
ENDBRANCH  21  22
ENDBRANCH   3  21
TORSDOF 8
