REMARK  Name = ZINC14945654
REMARK  8 active torsions:
REMARK  status: ('A' for Active; 'I' for Inactive)
REMARK    1  A    between atoms: C_1  and  N_2
REMARK    2  A    between atoms: N_2  and  C_3
REMARK    3  A    between atoms: N_2  and  S_4
REMARK    4  A    between atoms: S_4  and  C_7
REMARK    5  A    between atoms: C_10  and  N_13
REMARK    6  A    between atoms: C_17  and  C_21
REMARK    7  A    between atoms: C_18  and  N_20
REMARK    8  A    between atoms: C_21  and  C_23
REMARK                            x       y       z     vdW  Elec       q    Type
REMARK                         _______ _______ _______ _____ _____    ______ ____
ROOT
ATOM      1  N   UNL     1      -2.974  -1.501  -5.786  0.00  0.00    -0.301 N 
ATOM      2  C   UNL     1      -2.479  -2.632  -6.416  0.00  0.00    +0.102 A 
ATOM      3  C   UNL     1      -1.693  -3.530  -5.694  0.00  0.00    +0.042 A 
ATOM      4  C   UNL     1      -1.202  -4.647  -6.314  0.00  0.00    +0.018 A 
ATOM      5  C   UNL     1      -1.510  -4.854  -7.667  0.00  0.00    +0.063 A 
ATOM      6  C   UNL     1      -2.308  -3.908  -8.336  0.00  0.00    +0.106 A 
ATOM      7  N   UNL     1      -2.764  -2.845  -7.692  0.00  0.00    -0.331 N 
ATOM      8  H   UNL     1      -3.631  -0.946  -6.234  0.00  0.00    +0.154 HD
ATOM      9  H   UNL     1      -3.317  -2.205  -8.168  0.00  0.00    +0.168 HD
ENDROOT
BRANCH   1  13
ATOM     10  C   UNL     1      -1.640  -0.488  -1.974  0.00  0.00    +0.106 A 
ATOM     11  C   UNL     1      -0.741  -0.944  -2.920  0.00  0.00    +0.030 A 
ATOM     12  C   UNL     1      -1.180  -1.281  -4.185  0.00  0.00    +0.025 A 
ATOM     13  C   UNL     1      -2.526  -1.161  -4.507  0.00  0.00    +0.032 A 
ATOM     14  C   UNL     1      -3.426  -0.703  -3.553  0.00  0.00    +0.025 A 
ATOM     15  C   UNL     1      -2.982  -0.373  -2.288  0.00  0.00    +0.030 A 
BRANCH  10  16
ATOM     16  S   UNL     1      -1.075  -0.059  -0.360  0.00  0.00    +0.060 S 
ATOM     17  O   UNL     1      -2.026   0.852   0.173  0.00  0.00    -0.153 OA
ATOM     18  O   UNL     1       0.303   0.264  -0.485  0.00  0.00    -0.153 OA
BRANCH  16  20
ATOM     19  C   UNL     1      -0.010  -2.333   0.643  0.00  0.00    +0.131 C 
ATOM     20  N   UNL     1      -1.159  -1.428   0.568  0.00  0.00    -0.183 NA
ATOM     21  C   UNL     1      -2.382  -1.734   1.313  0.00  0.00    +0.131 C 
ENDBRANCH  16  20
ENDBRANCH  10  16
ENDBRANCH   1  13
BRANCH   6  22
ATOM     22  N   UNL     1      -2.623  -4.093  -9.669  0.00  0.00    -0.344 N 
ATOM     23  H   UNL     1      -2.214  -4.817 -10.168  0.00  0.00    +0.144 HD
ATOM     24  H   UNL     1      -3.252  -3.498 -10.106  0.00  0.00    +0.144 HD
ENDBRANCH   6  22
BRANCH   5  25
ATOM     25  C   UNL     1      -1.005  -6.041  -8.376  0.00  0.00    +0.231 C 
ATOM     26  O   UNL     1      -1.177  -6.152  -9.577  0.00  0.00    -0.283 OA
BRANCH  25  27
ATOM     27  C   UNL     1      -0.295  -7.090  -7.636  0.00  0.00    +0.175 A 
ATOM     28  C   UNL     1       0.324  -8.179  -8.183  0.00  0.00    +0.053 A 
ATOM     29  C   UNL     1       0.868  -8.910  -7.116  0.00  0.00    +0.042 A 
ATOM     30  C   UNL     1       0.562  -8.245  -5.980  0.00  0.00    +0.196 A 
ATOM     31  O   UNL     1      -0.134  -7.146  -6.298  0.00  0.00    -0.460 OA
ENDBRANCH  25  27
ENDBRANCH   5  25
TORSDOF 6
