REMARK  Name = ZINC37918409
REMARK  8 active torsions:
REMARK  status: ('A' for Active; 'I' for Inactive)
REMARK    1  A    between atoms: C_1  and  C_2
REMARK    2  A    between atoms: C_7  and  N_12
REMARK    3  A    between atoms: C_9  and  C_11
REMARK    4  A    between atoms: N_12  and  S_13
REMARK    5  A    between atoms: S_13  and  C_16
REMARK    6  A    between atoms: C_16  and  C_17
REMARK    7  A    between atoms: C_21  and  C_23
REMARK    8  A    between atoms: C_23  and  N_24
REMARK                            x       y       z     vdW  Elec       q    Type
REMARK                         _______ _______ _______ _____ _____    ______ ____
ROOT
ATOM      1  S   UNL     1       0.980  -3.921   3.166  0.00  0.00    +0.034 S 
ATOM      2  O   UNL     1       1.859  -4.070   4.271  0.00  0.00    -0.158 OA
ATOM      3  O   UNL     1      -0.416  -3.750   3.369  0.00  0.00    -0.158 OA
ENDROOT
BRANCH   1   4
ATOM      4  N   UNL     1       1.471  -2.526   2.420  0.00  0.00    -0.191 NA
ATOM      5  H   UNL     1       2.229  -2.030   2.769  0.00  0.00    +0.148 HD
BRANCH   4  11
ATOM      6  C   UNL     1      -0.019   1.526   0.010  0.00  0.00    +0.008 C 
ATOM      7  C   UNL     1       0.002  -0.004   0.002  0.00  0.00    -0.010 C 
ATOM      8  C   UNL     1       0.718  -0.497  -1.257  0.00  0.00    +0.003 C 
ATOM      9  C   UNL     1       0.739  -2.027  -1.265  0.00  0.00    +0.002 C 
ATOM     10  C   UNL     1       1.479  -2.534  -0.026  0.00  0.00    +0.020 C 
ATOM     11  C   UNL     1       0.763  -2.041   1.233  0.00  0.00    +0.079 C 
ATOM     12  C   UNL     1       0.742  -0.511   1.242  0.00  0.00    +0.007 C 
ATOM     13  C   UNL     1       0.026  -0.018   2.500  0.00  0.00    +0.009 C 
ENDBRANCH   4  11
ENDBRANCH   1   4
BRANCH   1  14
ATOM     14  C   UNL     1       1.278  -5.231   1.947  0.00  0.00    +0.220 C 
BRANCH  14  15
ATOM     15  C   UNL     1       0.862  -6.559   2.525  0.00  0.00    -0.025 A 
ATOM     16  C   UNL     1       1.773  -7.321   3.233  0.00  0.00    +0.005 A 
ATOM     17  C   UNL     1       1.391  -8.539   3.763  0.00  0.00    +0.001 A 
ATOM     18  C   UNL     1       0.098  -8.995   3.586  0.00  0.00    +0.002 A 
ATOM     19  C   UNL     1      -0.813  -8.233   2.880  0.00  0.00    -0.065 A 
ATOM     20  C   UNL     1      -0.432  -7.013   2.353  0.00  0.00    +0.007 A 
BRANCH  19  21
ATOM     21  C   UNL     1      -2.222  -8.730   2.687  0.00  0.00    -0.051 C 
BRANCH  21  22
ATOM     22  N   UNL     1      -3.063  -8.262   3.796  0.00  0.00    +0.381 N 
ATOM     23  H   UNL     1      -3.062  -7.254   3.817  0.00  0.00    -0.090 HD
ATOM     24  H   UNL     1      -4.006  -8.595   3.667  0.00  0.00    -0.090 HD
ATOM     25  H   UNL     1      -2.698  -8.617   4.668  0.00  0.00    -0.090 HD
ENDBRANCH  21  22
ENDBRANCH  19  21
ENDBRANCH  14  15
ENDBRANCH   1  14
TORSDOF 6
