REMARK  Name = ZINC08952674
REMARK  15 active torsions:
REMARK  status: ('A' for Active; 'I' for Inactive)
REMARK    1  A    between atoms: C_1  and  C_2
REMARK    2  A    between atoms: C_2  and  C_4
REMARK    3  A    between atoms: C_2  and  C_5
REMARK    4  A    between atoms: C_5  and  C_7
REMARK    5  A    between atoms: C_5  and  N_19
REMARK    6  A    between atoms: N_9  and  C_10
REMARK    7  A    between atoms: C_10  and  C_12
REMARK    8  A    between atoms: C_10  and  C_13
REMARK    9  A    between atoms: C_20  and  C_22
REMARK   10  A    between atoms: C_28  and  C_30
REMARK   11  A    between atoms: C_30  and  C_32
REMARK   12  A    between atoms: C_30  and  N_70
REMARK   13  A    between atoms: C_32  and  C_33
REMARK   14  A    between atoms: C_33  and  S_34
REMARK   15  A    between atoms: S_34  and  C_35
REMARK                            x       y       z     vdW  Elec       q    Type
REMARK                         _______ _______ _______ _____ _____    ______ ____
ROOT
ATOM      1  N   UNL     1       4.667   0.403   1.236  0.00  0.00    -0.304 N 
ATOM      2  C   UNL     1       5.972   0.308   0.913  0.00  0.00    +0.217 C 
ATOM      3  O   UNL     1       6.437   1.023   0.051  0.00  0.00    -0.275 OA
ATOM      4  H   UNL     1       4.294  -0.169   1.925  0.00  0.00    +0.149 HD
ENDROOT
BRANCH   2   5
ATOM      5  C   UNL     1       6.853  -0.687   1.624  0.00  0.00    +0.078 C 
ATOM      6  C   UNL     1       6.862  -0.380   3.123  0.00  0.00    +0.032 C 
ATOM      7  C   UNL     1       7.731  -1.414   3.847  0.00  0.00    +0.108 C 
ATOM      8  N   UNL     1       9.062  -1.430   3.226  0.00  0.00    -0.303 N 
ATOM      9  C   UNL     1       9.162  -1.628   1.773  0.00  0.00    +0.108 C 
ATOM     10  C   UNL     1       8.277  -0.591   1.073  0.00  0.00    +0.032 C 
ATOM     11  C   UNL     1      10.171  -1.268   3.974  0.00  0.00    +0.201 C 
ATOM     12  O   UNL     1      11.265  -1.284   3.450  0.00  0.00    -0.277 OA
BRANCH  11  13
ATOM     13  C   UNL     1      10.053  -1.067   5.463  0.00  0.00    +0.014 C 
BRANCH  13  16
ATOM     14  H   UNL     1      11.565  -2.364   5.982  0.00  0.00    -0.089 HD
ATOM     15  H   UNL     1      12.072  -0.797   5.756  0.00  0.00    -0.089 HD
ATOM     16  N   UNL     1      11.328  -1.384   6.129  0.00  0.00    +0.386 N 
ATOM     17  H   UNL     1      11.236  -1.209   7.136  0.00  0.00    -0.089 HD
ENDBRANCH  13  16
BRANCH  13  18
ATOM     18  C   UNL     1       9.690   0.391   5.753  0.00  0.00    +0.003 C 
BRANCH  18  19
ATOM     19  C   UNL     1       9.447   0.567   7.254  0.00  0.00    +0.068 C 
BRANCH  19  20
ATOM     20  S   UNL     1       9.017   2.295   7.598  0.00  0.00    -0.164 S 
ATOM     21  C   UNL     1       8.764   2.335   9.394  0.00  0.00    +0.084 C 
ENDBRANCH  19  20
ENDBRANCH  18  19
ENDBRANCH  13  18
ENDBRANCH  11  13
ENDBRANCH   2   5
BRANCH   1  22
ATOM     22  C   UNL     1       3.810   1.370   0.545  0.00  0.00    +0.161 C 
BRANCH  22  23
ATOM     23  C   UNL     1       2.378   0.903   0.600  0.00  0.00    +0.234 C 
ATOM     24  O   UNL     1       1.998   0.223   1.529  0.00  0.00    -0.274 OA
ATOM     25  N   UNL     1       1.521   1.240  -0.384  0.00  0.00    -0.307 N 
ATOM     26  H   UNL     1       1.804   1.844  -1.088  0.00  0.00    +0.149 HD
BRANCH  25  27
ATOM     27  C   UNL     1       0.161   0.695  -0.389  0.00  0.00    +0.100 C 
ATOM     28  C   UNL     1      -0.739   1.562   0.493  0.00  0.00    +0.033 C 
BRANCH  27  29
ATOM     29  C   UNL     1      -0.372   0.689  -1.799  0.00  0.00    -0.027 A 
ATOM     30  C   UNL     1      -0.117   1.757  -2.639  0.00  0.00    +0.005 A 
ATOM     31  C   UNL     1      -0.602   1.749  -3.933  0.00  0.00    +0.000 A 
ATOM     32  C   UNL     1      -1.350   0.678  -4.385  0.00  0.00    +0.000 A 
ATOM     33  C   UNL     1      -1.609  -0.388  -3.543  0.00  0.00    +0.000 A 
ATOM     34  C   UNL     1      -1.120  -0.382  -2.250  0.00  0.00    +0.005 A 
ENDBRANCH  27  29
ENDBRANCH  25  27
ENDBRANCH  22  23
BRANCH  22  36
ATOM     35  C   UNL     1       5.360   3.254   1.087  0.00  0.00    +0.009 C 
ATOM     36  C   UNL     1       3.927   2.735   1.228  0.00  0.00    +0.012 C 
ATOM     37  C   UNL     1       2.961   3.720   0.568  0.00  0.00    +0.009 C 
ENDBRANCH  22  36
ENDBRANCH   1  22
TORSDOF 11
