REMARK  Name = ZINC43564135
REMARK  10 active torsions:
REMARK  status: ('A' for Active; 'I' for Inactive)
REMARK    1  A    between atoms: C_1  and  C_2
REMARK    2  A    between atoms: C_5  and  N_8
REMARK    3  A    between atoms: C_9  and  C_11
REMARK    4  A    between atoms: C_11  and  N_12
REMARK    5  A    between atoms: N_12  and  C_13
REMARK    6  A    between atoms: N_12  and  C_14
REMARK    7  A    between atoms: C_14  and  C_16
REMARK    8  A    between atoms: C_14  and  C_17
REMARK    9  A    between atoms: N_22  and  C_23
REMARK   10  A    between atoms: C_26  and  C_29
REMARK                            x       y       z     vdW  Elec       q    Type
REMARK                         _______ _______ _______ _____ _____    ______ ____
ROOT
ATOM      1  C   UNL     1       0.633  -8.334   2.348  0.00  0.00    +0.017 C 
ATOM      2  C   UNL     1       0.513  -8.164   3.864  0.00  0.00    -0.004 C 
ENDROOT
BRANCH   1   3
ATOM      3  C   UNL     1      -0.638  -8.938   1.809  0.00  0.00    +0.207 C 
ATOM      4  O   UNL     1      -1.492  -8.224   1.329  0.00  0.00    -0.277 OA
ATOM      5  N   UNL     1      -0.825 -10.271   1.859  0.00  0.00    -0.241 N 
ATOM      6  C   UNL     1      -1.962 -10.812   1.377  0.00  0.00    +0.310 C 
ATOM      7  O   UNL     1      -2.818 -10.096   0.896  0.00  0.00    -0.252 OA
ATOM      8  N   UNL     1      -2.148 -12.145   1.427  0.00  0.00    -0.269 N 
ATOM      9  H   UNL     1      -0.141 -10.843   2.243  0.00  0.00    +0.159 HD
ATOM     10  H   UNL     1      -1.500 -12.709   1.878  0.00  0.00    +0.156 HD
BRANCH   8  11
ATOM     11  C   UNL     1      -3.276 -12.717   0.828  0.00  0.00    +0.035 A 
ATOM     12  C   UNL     1      -3.844 -13.864   1.367  0.00  0.00    +0.023 A 
ATOM     13  C   UNL     1      -4.958 -14.426   0.773  0.00  0.00    +0.005 A 
ATOM     14  C   UNL     1      -5.507 -13.847  -0.356  0.00  0.00    -0.050 A 
ATOM     15  C   UNL     1      -4.944 -12.705  -0.895  0.00  0.00    +0.005 A 
ATOM     16  C   UNL     1      -3.834 -12.135  -0.303  0.00  0.00    +0.023 A 
ATOM     17  C   UNL     1      -6.722 -14.463  -1.001  0.00  0.00    +0.044 C 
ENDBRANCH   8  11
ENDBRANCH   1   3
BRANCH   1  18
ATOM     18  N   UNL     1       0.855  -7.022   1.725  0.00  0.00    +0.391 N 
ATOM     19  C   UNL     1       2.027  -6.382   2.336  0.00  0.00    -0.094 C 
ATOM     20  H   UNL     1       0.043  -6.441   1.866  0.00  0.00    -0.080 HD
BRANCH  18  21
ATOM     21  C   UNL     1       1.088  -7.198   0.285  0.00  0.00    +0.020 C 
BRANCH  21  23
ATOM     22  N   UNL     1       1.375  -5.761  -1.708  0.00  0.00    -0.287 N 
ATOM     23  C   UNL     1       1.165  -5.848  -0.380  0.00  0.00    +0.201 C 
ATOM     24  O   UNL     1       1.038  -4.838   0.281  0.00  0.00    -0.278 OA
ATOM     25  H   UNL     1       1.408  -6.567  -2.247  0.00  0.00    +0.155 HD
BRANCH  22  30
ATOM     26  C   UNL     1       2.065  -0.686  -4.146  0.00  0.00    +0.044 C 
ATOM     27  C   UNL     1       1.882  -2.034  -3.499  0.00  0.00    -0.050 A 
ATOM     28  C   UNL     1       0.996  -2.179  -2.447  0.00  0.00    +0.005 A 
ATOM     29  C   UNL     1       0.826  -3.414  -1.851  0.00  0.00    +0.023 A 
ATOM     30  C   UNL     1       1.545  -4.510  -2.310  0.00  0.00    +0.033 A 
ATOM     31  C   UNL     1       2.433  -4.361  -3.367  0.00  0.00    +0.023 A 
ATOM     32  C   UNL     1       2.595  -3.125  -3.961  0.00  0.00    +0.005 A 
ENDBRANCH  22  30
ENDBRANCH  21  23
ENDBRANCH  18  21
ENDBRANCH   1  18
TORSDOF 6
