REMARK  Name = ZINC08435660
REMARK  7 active torsions:
REMARK  status: ('A' for Active; 'I' for Inactive)
REMARK    1  A    between atoms: C_4  and  C_7
REMARK    2  A    between atoms: C_7  and  N_8
REMARK    3  A    between atoms: N_16  and  N_17
REMARK    4  A    between atoms: C_18  and  S_20
REMARK    5  A    between atoms: S_20  and  C_21
REMARK    6  A    between atoms: C_21  and  C_22
REMARK    7  A    between atoms: N_24  and  C_25
REMARK                            x       y       z     vdW  Elec       q    Type
REMARK                         _______ _______ _______ _____ _____    ______ ____
ROOT
ATOM      1  N   UNL     1       4.580  -1.076   1.185  0.00  0.00    -0.261 N 
ATOM      2  C   UNL     1       5.332  -0.196   1.955  0.00  0.00    +0.046 A 
ATOM      3  C   UNL     1       5.840   1.070   1.685  0.00  0.00    +0.024 A 
ATOM      4  C   UNL     1       6.570   1.742   2.645  0.00  0.00    +0.002 A 
ATOM      5  C   UNL     1       6.805   1.168   3.883  0.00  0.00    +0.001 A 
ATOM      6  C   UNL     1       6.309  -0.088   4.170  0.00  0.00    +0.012 A 
ATOM      7  C   UNL     1       5.572  -0.774   3.210  0.00  0.00    +0.029 A 
ATOM      8  C   UNL     1       4.915  -2.099   3.191  0.00  0.00    +0.155 C 
ATOM      9  N   UNL     1       4.883  -2.995   4.165  0.00  0.00    -0.167 NA
ATOM     10  C   UNL     1       4.303  -2.203   1.862  0.00  0.00    +0.272 C 
ATOM     11  O   UNL     1       3.657  -3.148   1.443  0.00  0.00    -0.268 OA
ENDROOT
BRANCH   9  12
ATOM     12  N   UNL     1       5.580  -2.811   5.234  0.00  0.00    -0.258 N 
ATOM     13  C   UNL     1       5.462  -3.652   6.260  0.00  0.00    +0.146 C 
ATOM     14  N   UNL     1       4.604  -4.710   6.178  0.00  0.00    -0.338 N 
ATOM     15  H   UNL     1       4.080  -4.849   5.374  0.00  0.00    +0.144 HD
ATOM     16  H   UNL     1       4.518  -5.323   6.925  0.00  0.00    +0.144 HD
ATOM     17  H   UNL     1       6.190  -2.059   5.292  0.00  0.00    +0.191 HD
BRANCH  13  18
ATOM     18  S   UNL     1       6.359  -3.415   7.636  0.00  0.00    -0.082 S 
BRANCH  18  19
ATOM     19  C   UNL     1       5.867  -4.783   8.721  0.00  0.00    +0.173 C 
BRANCH  19  20
ATOM     20  C   UNL     1       6.619  -4.685  10.024  0.00  0.00    +0.227 C 
ATOM     21  O   UNL     1       7.408  -3.782  10.203  0.00  0.00    -0.275 OA
ATOM     22  N   UNL     1       6.413  -5.602  10.991  0.00  0.00    -0.285 N 
ATOM     23  H   UNL     1       5.840  -6.366  10.821  0.00  0.00    +0.155 HD
BRANCH  22  24
ATOM     24  C   UNL     1       7.026  -5.451  12.239  0.00  0.00    +0.033 A 
ATOM     25  C   UNL     1       7.437  -6.570  12.952  0.00  0.00    +0.023 A 
ATOM     26  C   UNL     1       8.042  -6.418  14.185  0.00  0.00    +0.002 A 
ATOM     27  C   UNL     1       8.239  -5.153  14.709  0.00  0.00    +0.000 A 
ATOM     28  C   UNL     1       7.830  -4.037  14.002  0.00  0.00    +0.002 A 
ATOM     29  C   UNL     1       7.230  -4.182  12.766  0.00  0.00    +0.023 A 
ENDBRANCH  22  24
ENDBRANCH  19  20
ENDBRANCH  18  19
ENDBRANCH  13  18
ENDBRANCH   9  12
BRANCH   1  30
ATOM     30  C   UNL     1       4.141  -0.805  -0.186  0.00  0.00    +0.149 C 
BRANCH  30  34
ATOM     31  C   UNL     1       0.336   1.134  -0.107  0.00  0.00    +0.000 A 
ATOM     32  C   UNL     1       1.495   1.886  -0.083  0.00  0.00    +0.000 A 
ATOM     33  C   UNL     1       2.727   1.259  -0.108  0.00  0.00    +0.005 A 
ATOM     34  C   UNL     1       2.798  -0.121  -0.157  0.00  0.00    -0.030 A 
ATOM     35  C   UNL     1       1.639  -0.873  -0.180  0.00  0.00    +0.005 A 
ATOM     36  C   UNL     1       0.407  -0.245  -0.157  0.00  0.00    +0.000 A 
ENDBRANCH  30  34
ENDBRANCH   1  30
TORSDOF 7
