REMARK  Name = ZINC00827347
REMARK  6 active torsions:
REMARK  status: ('A' for Active; 'I' for Inactive)
REMARK    1  A    between atoms: C_4  and  C_7
REMARK    2  A    between atoms: C_8  and  C_21
REMARK    3  A    between atoms: C_11  and  C_13
REMARK    4  A    between atoms: C_16  and  O_20
REMARK    5  A    between atoms: C_17  and  O_19
REMARK    6  A    between atoms: C_33  and  N_35
REMARK                            x       y       z     vdW  Elec       q    Type
REMARK                         _______ _______ _______ _____ _____    ______ ____
ROOT
ATOM      1  C   UNL     1       3.713  -0.640  -0.088  0.00  0.00    +0.072 A 
ATOM      2  C   UNL     1       4.021  -1.898  -0.819  0.00  0.00    +0.072 A 
ATOM      3  N   UNL     1       5.304  -2.215  -0.465  0.00  0.00    -0.339 N 
ATOM      4  H   UNL     1       5.810  -2.984  -0.770  0.00  0.00    +0.167 HD
ATOM      5  C   UNL     1       5.743  -1.246   0.401  0.00  0.00    +0.117 A 
ATOM      6  N   UNL     1       4.797  -0.332   0.603  0.00  0.00    -0.339 N 
ATOM      7  H   UNL     1       4.889   0.446   1.175  0.00  0.00    +0.167 HD
ENDROOT
BRANCH   2   8
ATOM      8  C   UNL     1       3.175  -2.610  -1.688  0.00  0.00    +0.001 A 
ATOM      9  C   UNL     1       2.458  -1.927  -2.697  0.00  0.00    +0.010 A 
ATOM     10  C   UNL     1       1.636  -2.614  -3.542  0.00  0.00    +0.010 A 
ATOM     11  C   UNL     1       1.492  -4.000  -3.420  0.00  0.00    -0.006 A 
ATOM     12  C   UNL     1       2.205  -4.698  -2.414  0.00  0.00    +0.031 A 
ATOM     13  C   UNL     1       3.042  -4.013  -1.560  0.00  0.00    +0.022 A 
ATOM     14  C   UNL     1       1.856  -6.134  -2.527  0.00  0.00    +0.194 C 
ATOM     15  O   UNL     1       2.275  -7.036  -1.831  0.00  0.00    -0.287 OA
ATOM     16  C   UNL     1       0.899  -6.261  -3.652  0.00  0.00    +0.032 A 
ATOM     17  C   UNL     1       0.683  -4.974  -4.186  0.00  0.00    -0.006 A 
ATOM     18  C   UNL     1      -0.184  -4.817  -5.264  0.00  0.00    +0.011 A 
ATOM     19  C   UNL     1      -0.827  -5.920  -5.802  0.00  0.00    +0.033 A 
ATOM     20  C   UNL     1      -0.614  -7.180  -5.277  0.00  0.00    +0.127 A 
ATOM     21  C   UNL     1       0.247  -7.356  -4.203  0.00  0.00    +0.045 A 
BRANCH  20  22
ATOM     22  N   UNL     1      -1.308  -8.349  -5.862  0.00  0.00    +0.056 N 
ATOM     23  O   UNL     1      -2.126  -8.186  -6.882  0.00  0.00    -0.126 OA
ATOM     24  O   UNL     1      -1.108  -9.551  -5.364  0.00  0.00    -0.126 OA
ENDBRANCH  20  22
ENDBRANCH   2   8
BRANCH   1  28
ATOM     25  C   UNL     1       0.077   1.540  -0.211  0.00  0.00    +0.000 A 
ATOM     26  C   UNL     1       1.284   2.206  -0.351  0.00  0.00    +0.001 A 
ATOM     27  C   UNL     1       2.470   1.507  -0.312  0.00  0.00    +0.010 A 
ATOM     28  C   UNL     1       2.453   0.116  -0.130  0.00  0.00    +0.000 A 
ATOM     29  C   UNL     1       1.226  -0.550   0.011  0.00  0.00    +0.010 A 
ATOM     30  C   UNL     1       0.050   0.166  -0.031  0.00  0.00    +0.001 A 
ENDBRANCH   1  28
BRANCH   5  31
ATOM     31  C   UNL     1       7.070  -1.218   1.013  0.00  0.00    +0.019 A 
ATOM     32  C   UNL     1       8.004  -2.231   0.722  0.00  0.00    +0.015 A 
ATOM     33  C   UNL     1       9.241  -2.205   1.294  0.00  0.00    +0.050 A 
ATOM     34  C   UNL     1       9.590  -1.176   2.168  0.00  0.00    +0.158 A 
ATOM     35  C   UNL     1       8.671  -0.160   2.466  0.00  0.00    +0.159 A 
ATOM     36  C   UNL     1       7.421  -0.175   1.890  0.00  0.00    +0.060 A 
BRANCH  35  37
ATOM     37  O   UNL     1       9.016   0.841   3.318  0.00  0.00    -0.503 OA
ATOM     38  H   UNL     1       9.420   1.605   2.885  0.00  0.00    +0.292 HD
ENDBRANCH  35  37
BRANCH  34  39
ATOM     39  O   UNL     1      10.822  -1.158   2.732  0.00  0.00    -0.503 OA
ATOM     40  H   UNL     1      11.484  -0.679   2.215  0.00  0.00    +0.292 HD
ENDBRANCH  34  39
ENDBRANCH   5  31
TORSDOF 6
