REMARK  Name = ZINC22362063
REMARK  11 active torsions:
REMARK  status: ('A' for Active; 'I' for Inactive)
REMARK    1  A    between atoms: C_1  and  C_2
REMARK    2  A    between atoms: C_2  and  C_3
REMARK    3  A    between atoms: N_9  and  C_10
REMARK    4  A    between atoms: C_10  and  C_11
REMARK    5  A    between atoms: C_11  and  C_12
REMARK    6  A    between atoms: C_12  and  N_13
REMARK    7  A    between atoms: C_14  and  C_16
REMARK    8  A    between atoms: C_16  and  N_17
REMARK    9  A    between atoms: N_17  and  C_18
REMARK   10  A    between atoms: N_17  and  S_25
REMARK   11  A    between atoms: S_25  and  C_28
REMARK                            x       y       z     vdW  Elec       q    Type
REMARK                         _______ _______ _______ _____ _____    ______ ____
ROOT
ATOM      1  N   UNL     1       0.953   4.126   2.706  0.00  0.00    -0.194 N 
ENDROOT
BRANCH   1   2
ATOM      2  C   UNL     1       2.121   4.298   3.452  0.00  0.00    +0.053 A 
ATOM      3  C   UNL     1       2.068   4.911   4.698  0.00  0.00    +0.025 A 
ATOM      4  C   UNL     1       3.224   5.080   5.433  0.00  0.00    +0.003 A 
ATOM      5  C   UNL     1       4.436   4.641   4.931  0.00  0.00    +0.020 A 
ATOM      6  C   UNL     1       4.493   4.030   3.690  0.00  0.00    +0.043 A 
ATOM      7  C   UNL     1       3.338   3.853   2.952  0.00  0.00    +0.044 A 
ATOM      8 CL   UNL     1       6.016   3.480   3.064  0.00  0.00    -0.083 Cl
ENDBRANCH   1   2
BRANCH   1   9
ATOM      9  S   UNL     1       1.029   4.047   1.054  0.00  0.00    +0.075 S 
ATOM     10  O   UNL     1       2.249   4.670   0.673  0.00  0.00    -0.150 OA
ATOM     11  O   UNL     1      -0.233   4.483   0.568  0.00  0.00    -0.150 OA
BRANCH   9  12
ATOM     12  C   UNL     1       1.176   2.346   0.620  0.00  0.00    +0.109 A 
ATOM     13  C   UNL     1       0.046   1.554   0.535  0.00  0.00    +0.030 A 
ATOM     14  C   UNL     1       0.161   0.220   0.195  0.00  0.00    +0.022 A 
ATOM     15  C   UNL     1       1.407  -0.324  -0.062  0.00  0.00    +0.041 A 
ATOM     16  C   UNL     1       2.538   0.469   0.022  0.00  0.00    +0.022 A 
ATOM     17  C   UNL     1       2.422   1.803   0.363  0.00  0.00    +0.030 A 
ATOM     18 CL   UNL     1       1.552  -2.000  -0.490  0.00  0.00    -0.084 Cl
ENDBRANCH   9  12
ENDBRANCH   1   9
BRANCH   1  19
ATOM     19  C   UNL     1      -0.340   4.015   3.386  0.00  0.00    +0.227 C 
BRANCH  19  21
ATOM     20  N   UNL     1      -1.699   2.243   4.449  0.00  0.00    -0.314 N 
ATOM     21  C   UNL     1      -0.567   2.584   3.803  0.00  0.00    +0.232 C 
ATOM     22  O   UNL     1       0.269   1.741   3.557  0.00  0.00    -0.274 OA
ATOM     23  H   UNL     1      -2.457   3.008   4.673  0.00  0.00    +0.149 HD
BRANCH  20  24
ATOM     24  C   UNL     1      -1.920   0.852   4.855  0.00  0.00    +0.102 C 
BRANCH  24  25
ATOM     25  C   UNL     1      -3.270   0.736   5.565  0.00  0.00    +0.000 C 
BRANCH  25  26
ATOM     26  C   UNL     1      -3.501  -0.716   5.988  0.00  0.00    -0.077 C 
BRANCH  26  32
ATOM     27  C   UNL     1      -5.179  -2.234   6.848  0.00  0.00    -0.069 C 
ATOM     28  C   UNL     1      -6.457  -2.315   7.686  0.00  0.00    -0.015 C 
ATOM     29  C   UNL     1      -7.576  -1.549   6.976  0.00  0.00    -0.003 C 
ATOM     30  C   UNL     1      -7.134  -0.099   6.759  0.00  0.00    -0.019 C 
ATOM     31  C   UNL     1      -5.837  -0.082   5.948  0.00  0.00    -0.078 C 
ATOM     32  N   UNL     1      -4.797  -0.827   6.670  0.00  0.00    +0.382 N 
ATOM     33  H   UNL     1      -4.695  -0.379   7.669  0.00  0.00    -0.081 HD
BRANCH  27  35
ATOM     34  C   UNL     1      -4.394  -4.471   7.636  0.00  0.00    +0.002 C 
ATOM     35  C   UNL     1      -4.052  -2.982   7.563  0.00  0.00    -0.019 C 
ENDBRANCH  27  35
ENDBRANCH  26  32
ENDBRANCH  25  26
ENDBRANCH  24  25
ENDBRANCH  20  24
ENDBRANCH  19  21
ENDBRANCH   1  19
TORSDOF 10
