REMARK  Name = ZINC66566520
REMARK  9 active torsions:
REMARK  status: ('A' for Active; 'I' for Inactive)
REMARK    1  A    between atoms: C_1  and  C_2
REMARK    2  A    between atoms: C_7  and  N_10
REMARK    3  A    between atoms: C_11  and  C_13
REMARK    4  A    between atoms: C_13  and  N_14
REMARK    5  A    between atoms: N_17  and  C_20
REMARK    6  A    between atoms: C_20  and  C_21
REMARK    7  A    between atoms: C_21  and  C_22
REMARK    8  A    between atoms: C_22  and  S_23
REMARK    9  A    between atoms: S_23  and  N_26
REMARK                            x       y       z     vdW  Elec       q    Type
REMARK                         _______ _______ _______ _____ _____    ______ ____
ROOT
ATOM      1  N   UNL     1      -2.306  -5.648   2.322  0.00  0.00    -0.298 NA
ATOM      2  C   UNL     1      -1.594  -6.601   1.459  0.00  0.00    +0.066 C 
ATOM      3  C   UNL     1      -1.586  -7.979   2.124  0.00  0.00    -0.063 C 
ATOM      4  N   UNL     1      -2.968  -8.427   2.340  0.00  0.00    +0.381 N 
ATOM      5  C   UNL     1      -3.659  -7.478   3.224  0.00  0.00    -0.063 C 
ATOM      6  C   UNL     1      -3.684  -6.096   2.568  0.00  0.00    +0.066 C 
ATOM      7  H   UNL     1      -3.449  -8.473   1.455  0.00  0.00    -0.082 HD
ENDROOT
BRANCH   1   8
ATOM      8  C   UNL     1      -2.287  -4.298   1.743  0.00  0.00    +0.180 C 
BRANCH   8  10
ATOM      9  N   UNL     1      -0.612  -2.548   1.244  0.00  0.00    -0.311 N 
ATOM     10  C   UNL     1      -0.873  -3.776   1.733  0.00  0.00    +0.227 C 
ATOM     11  O   UNL     1       0.030  -4.462   2.164  0.00  0.00    -0.274 OA
ATOM     12  H   UNL     1      -1.333  -2.000   0.898  0.00  0.00    +0.149 HD
BRANCH   9  18
ATOM     13  C   UNL     1      -0.019   1.526   0.010  0.00  0.00    +0.007 C 
ATOM     14  C   UNL     1       0.002  -0.004   0.002  0.00  0.00    -0.012 C 
ATOM     15  C   UNL     1       0.718  -0.497  -1.257  0.00  0.00    +0.003 C 
ATOM     16  C   UNL     1       0.739  -2.027  -1.265  0.00  0.00    +0.002 C 
ATOM     17  C   UNL     1       1.479  -2.534  -0.026  0.00  0.00    +0.022 C 
ATOM     18  C   UNL     1       0.763  -2.041   1.233  0.00  0.00    +0.073 C 
ATOM     19  C   UNL     1       0.742  -0.511   1.242  0.00  0.00    +0.025 C 
ENDBRANCH   9  18
ENDBRANCH   8  10
ENDBRANCH   1   8
BRANCH   4  20
ATOM     20  C   UNL     1      -2.959  -9.758   2.962  0.00  0.00    -0.077 C 
BRANCH  20  21
ATOM     21  C   UNL     1      -4.394 -10.277   3.074  0.00  0.00    +0.006 C 
BRANCH  21  22
ATOM     22  C   UNL     1      -4.385 -11.663   3.722  0.00  0.00    +0.183 C 
BRANCH  22  23
ATOM     23  S   UNL     1      -6.086 -12.280   3.854  0.00  0.00    +0.027 S 
ATOM     24  O   UNL     1      -6.817 -11.501   4.791  0.00  0.00    -0.158 OA
ATOM     25  O   UNL     1      -6.614 -12.541   2.561  0.00  0.00    -0.158 OA
BRANCH  23  26
ATOM     26  N   UNL     1      -5.945 -13.770   4.563  0.00  0.00    -0.208 NA
ATOM     27  H   UNL     1      -5.070 -14.112   4.802  0.00  0.00    +0.144 HD
ATOM     28  H   UNL     1      -6.738 -14.300   4.738  0.00  0.00    +0.144 HD
ENDBRANCH  23  26
ENDBRANCH  22  23
ENDBRANCH  21  22
ENDBRANCH  20  21
ENDBRANCH   4  20
TORSDOF 8
