REMARK  Name = ZINC09542603
REMARK  12 active torsions:
REMARK  status: ('A' for Active; 'I' for Inactive)
REMARK    1  A    between atoms: C_1  and  C_2
REMARK    2  A    between atoms: C_2  and  O_3
REMARK    3  A    between atoms: O_3  and  C_4
REMARK    4  A    between atoms: C_7  and  C_10
REMARK    5  A    between atoms: C_12  and  C_27
REMARK    6  A    between atoms: C_14  and  C_17
REMARK    7  A    between atoms: C_21  and  O_24
REMARK    8  A    between atoms: C_22  and  O_23
REMARK    9  A    between atoms: O_24  and  C_25
REMARK   10  A    between atoms: C_25  and  C_26
REMARK   11  A    between atoms: C_30  and  O_34
REMARK   12  A    between atoms: O_34  and  C_35
REMARK                            x       y       z     vdW  Elec       q    Type
REMARK                         _______ _______ _______ _____ _____    ______ ____
ROOT
ATOM      1  C   UNL     1       2.030   1.401  -1.360  0.00  0.00    +0.040 C 
ATOM      2  N   UNL     1       1.336   1.121  -2.399  0.00  0.00    -0.299 NA
ATOM      3  C   UNL     1      -0.114   0.970  -2.399  0.00  0.00    +0.081 C 
ATOM      4  C   UNL     1      -0.013   1.086   0.008  0.00  0.00    -0.028 C 
ATOM      5  C   UNL     1       1.422   1.622  -0.003  0.00  0.00    +0.044 C 
ATOM      6  N   UNL     1      -0.702   1.584  -1.199  0.00  0.00    +0.401 N 
ATOM      7  H   UNL     1      -1.698   1.342  -1.146  0.00  0.00    -0.081 HD
ATOM      8  H   UNL     1      -0.599   2.604  -1.253  0.00  0.00    -0.081 HD
ENDROOT
BRANCH   3   9
ATOM      9  C   UNL     1      -0.682   1.641  -3.623  0.00  0.00    -0.039 A 
ATOM     10  C   UNL     1      -1.955   2.182  -3.585  0.00  0.00    +0.007 A 
ATOM     11  C   UNL     1      -2.477   2.802  -4.704  0.00  0.00    +0.047 A 
ATOM     12  C   UNL     1      -1.728   2.873  -5.869  0.00  0.00    +0.134 A 
ATOM     13  C   UNL     1      -0.453   2.325  -5.907  0.00  0.00    +0.060 A 
ATOM     14  C   UNL     1       0.067   1.711  -4.783  0.00  0.00    +0.022 A 
ATOM     15 BR   UNL     1       0.572   2.420  -7.493  0.00  0.00    -0.047 Br
BRANCH  12  16
ATOM     16  O   UNL     1      -2.242   3.478  -6.973  0.00  0.00    -0.494 OA
ATOM     17  C   UNL     1      -3.560   4.019  -6.861  0.00  0.00    +0.277 C 
ENDBRANCH  12  16
ENDBRANCH   3   9
BRANCH   1  21
ATOM     18  C   UNL     1       6.243   1.725  -1.767  0.00  0.00    +0.121 A 
ATOM     19  C   UNL     1       5.462   1.420  -2.874  0.00  0.00    +0.046 A 
ATOM     20  C   UNL     1       4.094   1.314  -2.747  0.00  0.00    +0.013 A 
ATOM     21  C   UNL     1       3.493   1.513  -1.501  0.00  0.00    -0.004 A 
ATOM     22  C   UNL     1       4.282   1.824  -0.391  0.00  0.00    +0.013 A 
ATOM     23  C   UNL     1       5.650   1.924  -0.526  0.00  0.00    +0.046 A 
BRANCH  18  24
ATOM     24  O   UNL     1       7.590   1.829  -1.897  0.00  0.00    -0.492 OA
BRANCH  24  26
ATOM     25  C   UNL     1       9.823   2.219  -1.058  0.00  0.00    +0.048 C 
ATOM     26  C   UNL     1       8.334   2.144  -0.718  0.00  0.00    +0.225 C 
ENDBRANCH  24  26
ENDBRANCH  18  24
ENDBRANCH   1  21
BRANCH   4  27
ATOM     27  C   UNL     1      -0.730   1.578   1.239  0.00  0.00    -0.016 A 
ATOM     28  C   UNL     1      -1.578   2.667   1.156  0.00  0.00    +0.006 A 
ATOM     29  C   UNL     1      -2.241   3.118   2.281  0.00  0.00    +0.004 A 
ATOM     30  C   UNL     1      -2.052   2.488   3.498  0.00  0.00    +0.049 A 
ATOM     31  C   UNL     1      -1.200   1.399   3.589  0.00  0.00    +0.162 A 
ATOM     32  C   UNL     1      -0.536   0.942   2.454  0.00  0.00    +0.160 A 
BRANCH  32  33
ATOM     33  O   UNL     1       0.301  -0.126   2.538  0.00  0.00    -0.503 OA
ATOM     34  H   UNL     1       1.218   0.108   2.739  0.00  0.00    +0.292 HD
ENDBRANCH  32  33
BRANCH  31  35
ATOM     35  O   UNL     1      -1.013   0.778   4.784  0.00  0.00    -0.489 OA
BRANCH  35  36
ATOM     36  C   UNL     1      -1.727   1.302   5.906  0.00  0.00    +0.226 C 
ATOM     37  C   UNL     1      -1.392   0.481   7.152  0.00  0.00    +0.048 C 
ENDBRANCH  35  36
ENDBRANCH  31  35
ENDBRANCH   4  27
TORSDOF 9
