REMARK  Name = ZINC08876179
REMARK  9 active torsions:
REMARK  status: ('A' for Active; 'I' for Inactive)
REMARK    1  A    between atoms: C_1  and  C_2
REMARK    2  A    between atoms: C_2  and  C_3
REMARK    3  A    between atoms: C_3  and  C_4
REMARK    4  A    between atoms: C_4  and  C_5
REMARK    5  A    between atoms: C_8  and  N_11
REMARK    6  A    between atoms: C_16  and  C_34
REMARK    7  A    between atoms: C_26  and  C_33
REMARK    8  A    between atoms: C_27  and  C_32
REMARK    9  A    between atoms: C_34  and  C_35
REMARK                            x       y       z     vdW  Elec       q    Type
REMARK                         _______ _______ _______ _____ _____    ______ ____
ROOT
ATOM      1  N   UNL     1       2.111   1.716   3.026  0.00  0.00    -0.210 N 
ATOM      2  C   UNL     1       1.441   0.703   2.466  0.00  0.00    +0.228 C 
ATOM      3  O   UNL     1       1.946  -0.236   1.888  0.00  0.00    -0.275 OA
ATOM      4  C   UNL     1      -0.043   0.910   2.664  0.00  0.00    +0.074 C 
ATOM      5  C   UNL     1      -0.705   1.198   1.300  0.00  0.00    -0.049 C 
ATOM      6  C   UNL     1      -0.797   3.225   2.459  0.00  0.00    +0.050 C 
ATOM      7  C   UNL     1      -0.117   2.257   3.436  0.00  0.00    +0.088 C 
ATOM      8  C   UNL     1       1.336   2.642   3.603  0.00  0.00    +0.229 C 
ATOM      9  O   UNL     1       1.736   3.636   4.171  0.00  0.00    -0.275 OA
ATOM     10  C   UNL     1      -0.234   4.613   2.582  0.00  0.00    -0.027 A 
ATOM     11  C   UNL     1       1.029   5.141   2.430  0.00  0.00    +0.005 A 
ATOM     12  C   UNL     1       1.239   6.496   2.614  0.00  0.00    +0.004 A 
ATOM     13  C   UNL     1       0.179   7.317   2.949  0.00  0.00    -0.046 A 
ATOM     14  C   UNL     1      -1.088   6.793   3.102  0.00  0.00    -0.026 A 
ATOM     15  C   UNL     1      -1.309   5.430   2.919  0.00  0.00    +0.039 A 
ATOM     16  N   UNL     1      -2.479   4.674   3.015  0.00  0.00    -0.286 N 
ATOM     17  C   UNL     1      -2.264   3.369   2.759  0.00  0.00    +0.211 C 
ATOM     18  O   UNL     1      -3.091   2.482   2.768  0.00  0.00    -0.277 OA
ATOM     19  C   UNL     1      -2.236   7.699   3.468  0.00  0.00    +0.046 C 
ATOM     20  C   UNL     1       0.408   8.793   3.148  0.00  0.00    +0.044 C 
ATOM     21  H   UNL     1      -3.346   5.045   3.241  0.00  0.00    +0.155 HD
ATOM     22  N   UNL     1      -0.582   2.649   1.143  0.00  0.00    +0.394 N 
ATOM     23  H   UNL     1      -1.289   2.995   0.484  0.00  0.00    -0.083 HD
ATOM     24  H   UNL     1       0.355   2.890   0.798  0.00  0.00    -0.083 HD
ENDROOT
BRANCH   1  28
ATOM     25  C   UNL     1       6.271   1.970   2.979  0.00  0.00    -0.047 A 
ATOM     26  C   UNL     1       5.606   1.770   4.175  0.00  0.00    +0.005 A 
ATOM     27  C   UNL     1       4.227   1.686   4.193  0.00  0.00    +0.024 A 
ATOM     28  C   UNL     1       3.510   1.802   3.011  0.00  0.00    +0.044 A 
ATOM     29  C   UNL     1       4.181   1.998   1.811  0.00  0.00    +0.024 A 
ATOM     30  C   UNL     1       5.560   2.087   1.800  0.00  0.00    +0.005 A 
BRANCH  25  31
ATOM     31  C   UNL     1       7.776   2.061   2.962  0.00  0.00    +0.035 C 
BRANCH  31  32
ATOM     32  C   UNL     1       8.369   0.665   2.764  0.00  0.00    +0.004 C 
BRANCH  32  34
ATOM     33  C   UNL     1      10.489  -0.639   2.549  0.00  0.00    +0.004 C 
ATOM     34  C   UNL     1       9.896   0.757   2.747  0.00  0.00    -0.003 C 
ENDBRANCH  32  34
ENDBRANCH  31  32
ENDBRANCH  25  31
ENDBRANCH   1  28
BRANCH   5  35
ATOM     35  C   UNL     1       0.028   0.451   0.184  0.00  0.00    +0.080 C 
BRANCH  35  36
ATOM     36  C   UNL     1      -0.685   0.676  -1.124  0.00  0.00    +0.209 C 
ATOM     37  O   UNL     1      -1.682   1.367  -1.160  0.00  0.00    -0.276 OA
ATOM     38  N   UNL     1      -0.215   0.111  -2.254  0.00  0.00    -0.329 N 
ATOM     39  H   UNL     1       0.582  -0.441  -2.225  0.00  0.00    +0.145 HD
ATOM     40  H   UNL     1      -0.674   0.256  -3.096  0.00  0.00    +0.145 HD
ENDBRANCH  35  36
ENDBRANCH   5  35
TORSDOF 6
