REMARK  Name = ZINC26504157
REMARK  10 active torsions:
REMARK  status: ('A' for Active; 'I' for Inactive)
REMARK    1  A    between atoms: C_1  and  C_2
REMARK    2  A    between atoms: C_2  and  O_3
REMARK    3  A    between atoms: O_3  and  C_4
REMARK    4  A    between atoms: C_7  and  C_10
REMARK    5  A    between atoms: C_10  and  C_13
REMARK    6  A    between atoms: N_11  and  O_12
REMARK    7  A    between atoms: C_13  and  C_15
REMARK    8  A    between atoms: C_13  and  O_22
REMARK    9  A    between atoms: C_15  and  N_16
REMARK   10  A    between atoms: O_22  and  C_23
REMARK                            x       y       z     vdW  Elec       q    Type
REMARK                         _______ _______ _______ _____ _____    ______ ____
ROOT
ATOM      1  C   UNL     1       2.568  -2.732   0.070  0.00  0.00    +0.209 C 
ENDROOT
BRANCH   1   2
ATOM      2  C   UNL     1       2.665  -3.897  -0.880  0.00  0.00    +0.125 C 
ATOM      3  N   UNL     1       3.039  -5.058  -0.445  0.00  0.00    -0.088 NA
BRANCH   2   7
ATOM      4  C   UNL     1       1.716  -3.374  -4.985  0.00  0.00    +0.121 A 
ATOM      5  C   UNL     1       2.300  -2.336  -4.272  0.00  0.00    +0.046 A 
ATOM      6  C   UNL     1       2.610  -2.501  -2.940  0.00  0.00    +0.013 A 
ATOM      7  C   UNL     1       2.335  -3.716  -2.306  0.00  0.00    +0.003 A 
ATOM      8  C   UNL     1       1.752  -4.759  -3.029  0.00  0.00    +0.013 A 
ATOM      9  C   UNL     1       1.440  -4.584  -4.359  0.00  0.00    +0.046 A 
BRANCH   4  10
ATOM     10  O   UNL     1       1.411  -3.207  -6.298  0.00  0.00    -0.492 OA
BRANCH  10  12
ATOM     11  C   UNL     1       0.544  -3.942  -8.431  0.00  0.00    +0.048 C 
ATOM     12  C   UNL     1       0.812  -4.316  -6.972  0.00  0.00    +0.225 C 
ENDBRANCH  10  12
ENDBRANCH   4  10
ENDBRANCH   2   7
BRANCH   3  13
ATOM     13  O   UNL     1       3.245  -6.122  -1.355  0.00  0.00    -0.409 OA
ATOM     14  H   UNL     1       3.562  -7.108  -0.986  0.00  0.00    +0.328 HD
ENDBRANCH   3  13
ENDBRANCH   1   2
BRANCH   1  15
ATOM     15  C   UNL     1       2.962  -3.187   1.477  0.00  0.00    -0.027 C 
BRANCH  15  16
ATOM     16  N   UNL     1       2.936  -2.036   2.389  0.00  0.00    +0.382 N 
ATOM     17  C   UNL     1       4.057  -1.126   2.121  0.00  0.00    -0.079 C 
ATOM     18  C   UNL     1       3.917   0.128   2.986  0.00  0.00    -0.019 C 
ATOM     19  C   UNL     1       3.905  -0.276   4.463  0.00  0.00    -0.004 C 
ATOM     20  C   UNL     1       2.758  -1.261   4.706  0.00  0.00    -0.019 C 
ATOM     21  C   UNL     1       2.932  -2.474   3.791  0.00  0.00    -0.079 C 
ATOM     22  H   UNL     1       2.003  -1.480   2.209  0.00  0.00    -0.082 HD
ENDBRANCH  15  16
ENDBRANCH   1  15
BRANCH   1  23
ATOM     23  O   UNL     1       1.226  -2.241   0.087  0.00  0.00    -0.483 OA
BRANCH  23  24
ATOM     24  C   UNL     1       0.249  -3.126   0.421  0.00  0.00    +0.140 A 
ATOM     25  C   UNL     1       0.572  -4.448   0.691  0.00  0.00    +0.048 A 
ATOM     26  C   UNL     1      -0.421  -5.346   1.031  0.00  0.00    +0.023 A 
ATOM     27  C   UNL     1      -1.738  -4.927   1.103  0.00  0.00    +0.043 A 
ATOM     28  C   UNL     1      -2.063  -3.610   0.834  0.00  0.00    +0.043 A 
ATOM     29  C   UNL     1      -1.072  -2.708   0.493  0.00  0.00    +0.084 A 
ATOM     30 CL   UNL     1      -1.480  -1.055   0.157  0.00  0.00    -0.080 Cl
ATOM     31 CL   UNL     1      -2.984  -6.058   1.531  0.00  0.00    -0.083 Cl
ENDBRANCH  23  24
ENDBRANCH   1  23
TORSDOF 9
