REMARK  Name = ZINC33886910
REMARK  8 active torsions:
REMARK  status: ('A' for Active; 'I' for Inactive)
REMARK    1  A    between atoms: C_1  and  C_2
REMARK    2  A    between atoms: C_2  and  C_3
REMARK    3  A    between atoms: C_3  and  C_4
REMARK    4  A    between atoms: C_4  and  C_5
REMARK    5  A    between atoms: C_5  and  C_7
REMARK    6  A    between atoms: C_5  and  N_28
REMARK    7  A    between atoms: C_9  and  C_12
REMARK    8  A    between atoms: N_14  and  C_15
REMARK                            x       y       z     vdW  Elec       q    Type
REMARK                         _______ _______ _______ _____ _____    ______ ____
ROOT
ATOM      1  C   UNL     1      -3.244  -7.194  -1.872  0.00  0.00    +0.266 C 
ATOM      2  O   UNL     1      -3.089  -8.345  -1.511  0.00  0.00    -0.268 OA
ATOM      3  N   UNL     1      -3.638  -6.931  -3.134  0.00  0.00    -0.299 N 
ATOM      4  H   UNL     1      -3.761  -6.013  -3.422  0.00  0.00    +0.150 HD
ENDROOT
BRANCH   3   5
ATOM      5  C   UNL     1      -3.880  -8.031  -4.070  0.00  0.00    +0.135 C 
ATOM      6  C   UNL     1      -2.602  -8.395  -4.785  0.00  0.00    -0.015 A 
ATOM      7  C   UNL     1      -1.384  -8.854  -4.330  0.00  0.00    +0.006 A 
ATOM      8  C   UNL     1      -0.362  -9.113  -5.226  0.00  0.00    +0.000 A 
ATOM      9  C   UNL     1      -0.560  -8.914  -6.580  0.00  0.00    +0.001 A 
ATOM     10  C   UNL     1      -1.775  -8.455  -7.045  0.00  0.00    +0.009 A 
ATOM     11  C   UNL     1      -2.811  -8.191  -6.147  0.00  0.00    -0.012 A 
ATOM     12  C   UNL     1      -4.194  -7.700  -6.366  0.00  0.00    -0.012 A 
ATOM     13  C   UNL     1      -4.849  -7.598  -5.142  0.00  0.00    -0.015 A 
ATOM     14  C   UNL     1      -6.155  -7.159  -5.087  0.00  0.00    +0.006 A 
ATOM     15  C   UNL     1      -6.821  -6.819  -6.251  0.00  0.00    +0.000 A 
ATOM     16  C   UNL     1      -6.179  -6.918  -7.472  0.00  0.00    +0.001 A 
ATOM     17  C   UNL     1      -4.872  -7.356  -7.537  0.00  0.00    +0.009 A 
ENDBRANCH   3   5
BRANCH   1  20
ATOM     18  C   UNL     1      -2.831  -4.094  -0.117  0.00  0.00    +0.182 A 
ATOM     19  N   UNL     1      -3.131  -4.758  -1.192  0.00  0.00    -0.210 NA
ATOM     20  C   UNL     1      -3.000  -6.087  -0.930  0.00  0.00    +0.163 A 
ATOM     21  C   UNL     1      -2.602  -6.201   0.367  0.00  0.00    +0.230 A 
ATOM     22  O   UNL     1      -2.497  -4.955   0.855  0.00  0.00    -0.449 OA
BRANCH  18  23
ATOM     23  C   UNL     1      -2.848  -2.593   0.015  0.00  0.00    +0.013 C 
BRANCH  23  24
ATOM     24  N   UNL     1      -3.498  -2.220   1.279  0.00  0.00    +0.386 N 
ATOM     25  H   UNL     1      -3.510  -1.215   1.367  0.00  0.00    -0.089 HD
ATOM     26  H   UNL     1      -4.444  -2.569   1.286  0.00  0.00    -0.089 HD
ATOM     27  H   UNL     1      -2.986  -2.620   2.051  0.00  0.00    -0.089 HD
ENDBRANCH  23  24
BRANCH  23  28
ATOM     28  C   UNL     1      -1.413  -2.063   0.004  0.00  0.00    -0.007 C 
BRANCH  28  29
ATOM     29  C   UNL     1      -1.433  -0.534   0.013  0.00  0.00    -0.001 C 
BRANCH  29  31
ATOM     30  C   UNL     1      -0.019   1.526   0.010  0.00  0.00    +0.004 C 
ATOM     31  C   UNL     1       0.002  -0.004   0.002  0.00  0.00    -0.003 C 
ENDBRANCH  29  31
ENDBRANCH  28  29
ENDBRANCH  23  28
ENDBRANCH  18  23
ENDBRANCH   1  20
TORSDOF 7
