REMARK  Name = ZINC63541305
REMARK  6 active torsions:
REMARK  status: ('A' for Active; 'I' for Inactive)
REMARK    1  A    between atoms: C_7  and  C_10
REMARK    2  A    between atoms: C_10  and  C_11
REMARK    3  A    between atoms: C_11  and  N_12
REMARK    4  A    between atoms: C_13  and  S_24
REMARK    5  A    between atoms: S_24  and  C_25
REMARK    6  A    between atoms: C_25  and  C_26
REMARK                            x       y       z     vdW  Elec       q    Type
REMARK                         _______ _______ _______ _____ _____    ______ ____
ROOT
ATOM      1  N   UNL     1      -0.458  -4.798  -1.460  0.00  0.00    -0.268 N 
ATOM      2  C   UNL     1       0.085  -6.152  -1.357  0.00  0.00    +0.223 C 
ATOM      3  N   UNL     1      -0.754  -7.096  -2.104  0.00  0.00    -0.300 N 
ATOM      4  C   UNL     1      -2.131  -7.001  -1.992  0.00  0.00    +0.151 A 
ATOM      5  C   UNL     1      -2.693  -5.737  -1.734  0.00  0.00    +0.165 A 
ATOM      6  N   UNL     1      -4.009  -5.605  -1.646  0.00  0.00    -0.246 NA
ATOM      7  C   UNL     1      -4.782  -6.665  -1.786  0.00  0.00    +0.131 A 
ATOM      8  C   UNL     1      -4.227  -7.914  -2.025  0.00  0.00    +0.132 A 
ATOM      9  N   UNL     1      -2.916  -8.058  -2.123  0.00  0.00    -0.237 NA
ATOM     10  C   UNL     1      -1.786  -4.585  -1.548  0.00  0.00    +0.270 C 
ATOM     11  O   UNL     1      -2.233  -3.456  -1.480  0.00  0.00    -0.268 OA
ATOM     12  H   UNL     1      -0.351  -7.775  -2.667  0.00  0.00    +0.150 HD
ENDROOT
BRANCH   1  13
ATOM     13  C   UNL     1       0.457  -3.653  -1.462  0.00  0.00    +0.115 C 
BRANCH  13  14
ATOM     14  C   UNL     1       0.691  -3.186  -0.024  0.00  0.00    +0.052 C 
BRANCH  14  21
ATOM     15  C   UNL     1      -0.016   1.348   0.009  0.00  0.00    +0.001 A 
ATOM     16  C   UNL     1       1.166   2.101   0.002  0.00  0.00    +0.002 A 
ATOM     17  C   UNL     1       2.391   1.535  -0.013  0.00  0.00    +0.026 A 
ATOM     18  C   UNL     1       2.529   0.120  -0.022  0.00  0.00    +0.043 A 
ATOM     19  N   UNL     1       3.587  -0.654  -0.037  0.00  0.00    -0.380 N 
ATOM     20  C   UNL     1       3.143  -2.053  -0.041  0.00  0.00    +0.144 C 
ATOM     21  C   UNL     1       1.631  -2.008  -0.025  0.00  0.00    -0.040 C 
ATOM     22  C   UNL     1       1.295  -0.698  -0.014  0.00  0.00    -0.001 A 
ATOM     23  C   UNL     1       0.002  -0.004   0.002  0.00  0.00    +0.010 A 
ATOM     24  H   UNL     1       4.509  -0.353  -0.045  0.00  0.00    +0.160 HD
ENDBRANCH  14  21
ENDBRANCH  13  14
ENDBRANCH   1  13
BRANCH   2  25
ATOM     25  S   UNL     1       0.132  -6.649   0.387  0.00  0.00    -0.110 S 
BRANCH  25  26
ATOM     26  C   UNL     1      -1.601  -6.563   0.915  0.00  0.00    +0.168 C 
BRANCH  26  27
ATOM     27  C   UNL     1      -1.704  -6.957   2.366  0.00  0.00    +0.220 C 
ATOM     28  O   UNL     1      -0.707  -7.265   2.983  0.00  0.00    -0.275 OA
ATOM     29  N   UNL     1      -2.905  -6.966   2.978  0.00  0.00    -0.329 N 
ATOM     30  H   UNL     1      -3.703  -6.720   2.485  0.00  0.00    +0.145 HD
ATOM     31  H   UNL     1      -2.972  -7.220   3.912  0.00  0.00    +0.145 HD
ENDBRANCH  26  27
ENDBRANCH  25  26
ENDBRANCH   2  25
TORSDOF 6
