REMARK  Name = ZINC17190074
REMARK  13 active torsions:
REMARK  status: ('A' for Active; 'I' for Inactive)
REMARK    1  A    between atoms: C_1  and  C_2
REMARK    2  A    between atoms: C_2  and  C_4
REMARK    3  A    between atoms: C_2  and  S_17
REMARK    4  A    between atoms: N_6  and  C_7
REMARK    5  A    between atoms: C_10  and  N_14
REMARK    6  A    between atoms: S_17  and  C_18
REMARK    7  A    between atoms: C_21  and  C_24
REMARK    8  A    between atoms: N_22  and  N_23
REMARK    9  A    between atoms: C_24  and  O_25
REMARK   10  A    between atoms: O_25  and  C_26
REMARK   11  A    between atoms: C_29  and  C_32
REMARK   12  A    between atoms: C_32  and  C_33
REMARK   13  A    between atoms: C_32  and  C_34
REMARK                            x       y       z     vdW  Elec       q    Type
REMARK                         _______ _______ _______ _____ _____    ______ ____
ROOT
ATOM      1  C   UNL     1      -0.181  -0.020  -2.805  0.00  0.00    +0.209 A 
ATOM      2  N   UNL     1      -1.301   0.655  -2.688  0.00  0.00    -0.121 NA
ATOM      3  N   UNL     1      -1.796   0.885  -3.852  0.00  0.00    -0.128 NA
ATOM      4  C   UNL     1      -1.027   0.376  -4.773  0.00  0.00    +0.189 A 
ATOM      5  N   UNL     1       0.032  -0.213  -4.140  0.00  0.00    -0.225 N 
ENDROOT
BRANCH   5   6
ATOM      6  N   UNL     1       1.083  -0.864  -4.722  0.00  0.00    -0.295 N 
ATOM      7  H   UNL     1       0.882  -1.846  -4.835  0.00  0.00    +0.163 HD
ATOM      8  H   UNL     1       1.326  -0.440  -5.605  0.00  0.00    +0.163 HD
ENDBRANCH   5   6
BRANCH   1   9
ATOM      9  S   UNL     1       0.856  -0.565  -1.489  0.00  0.00    -0.072 S 
BRANCH   9  11
ATOM     10  C   UNL     1      -0.008   1.543   0.026  0.00  0.00    +0.029 C 
ATOM     11  C   UNL     1       0.007   0.013   0.006  0.00  0.00    +0.137 C 
BRANCH  11  12
ATOM     12  C   UNL     1       0.733  -0.497   1.225  0.00  0.00    +0.230 C 
ATOM     13  O   UNL     1       1.912  -0.773   1.157  0.00  0.00    -0.274 OA
ATOM     14  N   UNL     1       0.071  -0.647   2.389  0.00  0.00    -0.283 N 
ATOM     15  H   UNL     1      -0.854  -0.366   2.461  0.00  0.00    +0.155 HD
BRANCH  14  16
ATOM     16  C   UNL     1       0.720  -1.209   3.495  0.00  0.00    +0.052 A 
ATOM     17  C   UNL     1       2.071  -0.968   3.706  0.00  0.00    +0.027 A 
ATOM     18  C   UNL     1       2.709  -1.523   4.798  0.00  0.00    +0.034 A 
ATOM     19  C   UNL     1       2.003  -2.319   5.683  0.00  0.00    +0.128 A 
ATOM     20  C   UNL     1       0.657  -2.561   5.476  0.00  0.00    +0.054 A 
ATOM     21  C   UNL     1       0.012  -2.005   4.388  0.00  0.00    +0.064 A 
ATOM     22 CL   UNL     1      -1.679  -2.303   4.134  0.00  0.00    -0.082 Cl
BRANCH  19  23
ATOM     23  N   UNL     1       2.690  -2.912   6.852  0.00  0.00    +0.056 N 
ATOM     24  O   UNL     1       3.866  -2.701   7.033  0.00  0.00    -0.126 OA
ATOM     25  O   UNL     1       2.074  -3.608   7.625  0.00  0.00    -0.126 OA
ENDBRANCH  19  23
ENDBRANCH  14  16
ENDBRANCH  11  12
ENDBRANCH   9  11
ENDBRANCH   1   9
BRANCH   4  26
ATOM     26  C   UNL     1      -1.260   0.432  -6.261  0.00  0.00    +0.306 C 
BRANCH  26  27
ATOM     27  O   UNL     1      -0.644   1.605  -6.795  0.00  0.00    -0.484 OA
BRANCH  27  28
ATOM     28  C   UNL     1      -0.760   1.808  -8.134  0.00  0.00    +0.121 A 
ATOM     29  C   UNL     1      -1.458   0.900  -8.916  0.00  0.00    +0.046 A 
ATOM     30  C   UNL     1      -1.575   1.109 -10.277  0.00  0.00    +0.007 A 
ATOM     31  C   UNL     1      -0.998   2.222 -10.859  0.00  0.00    -0.045 A 
ATOM     32  C   UNL     1      -0.301   3.128 -10.082  0.00  0.00    +0.007 A 
ATOM     33  C   UNL     1      -0.186   2.927  -8.720  0.00  0.00    +0.046 A 
BRANCH  31  34
ATOM     34  C   UNL     1      -1.127   2.446 -12.344  0.00  0.00    +0.013 C 
ATOM     35  C   UNL     1      -1.840   3.776 -12.598  0.00  0.00    +0.012 C 
ATOM     36  C   UNL     1       0.265   2.485 -12.977  0.00  0.00    +0.012 C 
ENDBRANCH  31  34
ENDBRANCH  27  28
ENDBRANCH  26  27
ENDBRANCH   4  26
TORSDOF 10
