REMARK  Name = ZINC64625783
REMARK  8 active torsions:
REMARK  status: ('A' for Active; 'I' for Inactive)
REMARK    1  A    between atoms: C_1  and  O_2
REMARK    2  A    between atoms: O_2  and  C_3
REMARK    3  A    between atoms: C_3  and  C_5
REMARK    4  A    between atoms: C_8  and  N_19
REMARK    5  A    between atoms: N_11  and  C_12
REMARK    6  A    between atoms: C_12  and  C_13
REMARK    7  A    between atoms: C_20  and  C_22
REMARK    8  A    between atoms: C_24  and  C_33
REMARK                            x       y       z     vdW  Elec       q    Type
REMARK                         _______ _______ _______ _____ _____    ______ ____
ROOT
ATOM      1  N   UNL     1      -2.116  -4.542  -2.549  0.00  0.00    -0.309 N 
ATOM      2  C   UNL     1      -2.461  -5.615  -3.288  0.00  0.00    +0.240 C 
ATOM      3  O   UNL     1      -3.110  -6.511  -2.791  0.00  0.00    -0.273 OA
ATOM      4  H   UNL     1      -1.537  -3.860  -2.925  0.00  0.00    +0.149 HD
ENDROOT
BRANCH   2   5
ATOM      5  C   UNL     1      -2.041  -5.701  -4.733  0.00  0.00    +0.198 C 
ATOM      6  C   UNL     1      -3.091  -5.068  -5.619  0.00  0.00    -0.000 C 
ATOM      7  C   UNL     1      -3.532  -6.077  -6.457  0.00  0.00    +0.006 A 
ATOM      8  C   UNL     1      -4.497  -6.107  -7.494  0.00  0.00    +0.030 A 
ATOM      9  C   UNL     1      -4.729  -7.263  -8.162  0.00  0.00    +0.042 A 
ATOM     10  C   UNL     1      -4.037  -8.441  -7.856  0.00  0.00    +0.022 A 
ATOM     11  C   UNL     1      -3.102  -8.488  -6.878  0.00  0.00    +0.027 A 
ATOM     12  C   UNL     1      -2.801  -7.317  -6.131  0.00  0.00    +0.044 A 
ATOM     13  N   UNL     1      -1.951  -7.104  -5.149  0.00  0.00    -0.370 N 
ATOM     14 CL   UNL     1      -5.915  -7.284  -9.431  0.00  0.00    -0.084 Cl
ATOM     15  H   UNL     1      -1.360  -7.769  -4.763  0.00  0.00    +0.161 HD
BRANCH   6  16
ATOM     16  C   UNL     1      -3.545  -3.676  -5.595  0.00  0.00    -0.019 A 
ATOM     17  C   UNL     1      -4.908  -3.381  -5.443  0.00  0.00    +0.008 A 
ATOM     18  C   UNL     1      -5.326  -2.069  -5.422  0.00  0.00    +0.001 A 
ATOM     19  C   UNL     1      -4.406  -1.042  -5.549  0.00  0.00    +0.000 A 
ATOM     20  C   UNL     1      -3.058  -1.323  -5.700  0.00  0.00    +0.001 A 
ATOM     21  C   UNL     1      -2.620  -2.629  -5.719  0.00  0.00    +0.008 A 
ENDBRANCH   6  16
ENDBRANCH   2   5
BRANCH   1  24
ATOM     22  C   UNL     1      -2.608  -2.942   0.751  0.00  0.00    +0.168 C 
ATOM     23  C   UNL     1      -1.668  -3.519  -0.328  0.00  0.00    +0.054 C 
ATOM     24  C   UNL     1      -2.615  -4.405  -1.179  0.00  0.00    +0.089 C 
ATOM     25  C   UNL     1      -3.927  -3.583  -1.145  0.00  0.00    +0.107 C 
ATOM     26  N   UNL     1      -3.982  -3.013   0.222  0.00  0.00    -0.284 NA
BRANCH  22  27
ATOM     27  C   UNL     1      -2.241  -1.508   1.036  0.00  0.00    +0.324 C 
ATOM     28  O   UNL     1      -3.042  -0.627   0.829  0.00  0.00    -0.249 OA
BRANCH  27  30
ATOM     29  C   UNL     1      -0.747   0.170   1.768  0.00  0.00    +0.280 C 
ATOM     30  O   UNL     1      -1.026  -1.209   1.522  0.00  0.00    -0.467 OA
ENDBRANCH  27  30
ENDBRANCH  22  27
BRANCH  26  31
ATOM     31  C   UNL     1      -4.843  -3.819   1.098  0.00  0.00    +0.120 C 
BRANCH  31  32
ATOM     32  C   UNL     1      -6.279  -3.670   0.667  0.00  0.00    -0.033 A 
ATOM     33  C   UNL     1      -7.060  -2.663   1.203  0.00  0.00    +0.005 A 
ATOM     34  C   UNL     1      -8.378  -2.526   0.808  0.00  0.00    +0.000 A 
ATOM     35  C   UNL     1      -8.914  -3.396  -0.124  0.00  0.00    +0.000 A 
ATOM     36  C   UNL     1      -8.132  -4.401  -0.661  0.00  0.00    +0.000 A 
ATOM     37  C   UNL     1      -6.813  -4.536  -0.269  0.00  0.00    +0.005 A 
ENDBRANCH  31  32
ENDBRANCH  26  31
ENDBRANCH   1  24
TORSDOF 7
