REMARK  Name = ZINC24577496
REMARK  13 active torsions:
REMARK  status: ('A' for Active; 'I' for Inactive)
REMARK    1  A    between atoms: C_1  and  C_2
REMARK    2  A    between atoms: C_5  and  C_8
REMARK    3  A    between atoms: N_10  and  C_11
REMARK    4  A    between atoms: C_11  and  C_13
REMARK    5  A    between atoms: C_11  and  C_16
REMARK    6  A    between atoms: C_13  and  C_14
REMARK    7  A    between atoms: C_13  and  C_15
REMARK    8  A    between atoms: N_18  and  N_19
REMARK    9  A    between atoms: C_20  and  C_22
REMARK   10  A    between atoms: C_26  and  S_28
REMARK   11  A    between atoms: S_28  and  N_31
REMARK   12  A    between atoms: N_31  and  C_32
REMARK   13  A    between atoms: N_31  and  C_33
REMARK                            x       y       z     vdW  Elec       q    Type
REMARK                         _______ _______ _______ _____ _____    ______ ____
ROOT
ATOM      1  C   UNL     1      -2.125   1.301  -1.419  0.00  0.00    +0.250 C 
ATOM      2  O   UNL     1      -2.997   2.087  -1.724  0.00  0.00    -0.272 OA
ATOM      3  N   UNL     1      -2.450   0.055  -1.020  0.00  0.00    -0.233 N 
ATOM      4  H   UNL     1      -1.659  -0.684  -0.827  0.00  0.00    +0.173 HD
ENDROOT
BRANCH   3   5
ATOM      5  N   UNL     1      -3.796  -0.297  -0.851  0.00  0.00    -0.230 N 
ATOM      6  C   UNL     1      -4.121  -1.543  -0.452  0.00  0.00    +0.260 C 
ATOM      7  O   UNL     1      -3.247  -2.360  -0.238  0.00  0.00    -0.269 OA
ATOM      8  H   UNL     1      -4.587   0.442  -1.045  0.00  0.00    +0.173 HD
BRANCH   6   9
ATOM      9  C   UNL     1      -5.541  -1.915  -0.274  0.00  0.00    +0.040 A 
ATOM     10  C   UNL     1      -6.547  -0.977  -0.513  0.00  0.00    +0.013 A 
ATOM     11  C   UNL     1      -7.870  -1.333  -0.350  0.00  0.00    +0.003 A 
ATOM     12  C   UNL     1      -8.200  -2.612   0.060  0.00  0.00    +0.028 A 
ATOM     13  C   UNL     1      -7.208  -3.545   0.304  0.00  0.00    +0.106 A 
ATOM     14  C   UNL     1      -5.881  -3.204   0.139  0.00  0.00    +0.041 A 
BRANCH  13  15
ATOM     15  S   UNL     1      -7.639  -5.171   0.826  0.00  0.00    +0.060 S 
ATOM     16  O   UNL     1      -8.968  -5.402   0.380  0.00  0.00    -0.153 OA
ATOM     17  O   UNL     1      -6.556  -6.016   0.462  0.00  0.00    -0.153 OA
BRANCH  15  18
ATOM     18  N   UNL     1      -7.692  -5.156   2.481  0.00  0.00    -0.183 NA
ATOM     19  C   UNL     1      -8.944  -4.837   3.171  0.00  0.00    +0.131 C 
ATOM     20  C   UNL     1      -6.486  -5.462   3.255  0.00  0.00    +0.131 C 
ENDBRANCH  15  18
ENDBRANCH  13  15
ENDBRANCH   6   9
ENDBRANCH   3   5
BRANCH   1  21
ATOM     21  C   UNL     1      -0.678   1.717  -1.487  0.00  0.00    +0.163 C 
BRANCH  21  24
ATOM     22  C   UNL     1       0.605   3.217  -2.915  0.00  0.00    +0.245 C 
ATOM     23  O   UNL     1       1.552   2.464  -2.805  0.00  0.00    -0.270 OA
ATOM     24  N   UNL     1      -0.557   2.933  -2.294  0.00  0.00    -0.300 N 
ATOM     25  H   UNL     1      -1.415   3.615  -2.394  0.00  0.00    +0.150 HD
BRANCH  22  30
ATOM     26  C   UNL     1       1.080   7.994  -6.088  0.00  0.00    +0.044 C 
ATOM     27  C   UNL     1       0.956   6.743  -5.257  0.00  0.00    -0.050 A 
ATOM     28  C   UNL     1       2.037   5.888  -5.133  0.00  0.00    +0.004 A 
ATOM     29  C   UNL     1       1.929   4.742  -4.374  0.00  0.00    +0.013 A 
ATOM     30  C   UNL     1       0.727   4.445  -3.730  0.00  0.00    +0.037 A 
ATOM     31  C   UNL     1      -0.361   5.309  -3.863  0.00  0.00    +0.013 A 
ATOM     32  C   UNL     1      -0.239   6.455  -4.621  0.00  0.00    +0.004 A 
ENDBRANCH  22  30
ENDBRANCH  21  24
BRANCH  21  33
ATOM     33  C   UNL     1      -0.160   1.989  -0.073  0.00  0.00    +0.012 C 
ATOM     34  C   UNL     1       1.331   2.328  -0.134  0.00  0.00    +0.009 C 
ATOM     35  C   UNL     1      -0.926   3.166   0.533  0.00  0.00    +0.009 C 
ENDBRANCH  21  33
ENDBRANCH   1  21
TORSDOF 8
