REMARK  Name = ZINC08724159
REMARK  6 active torsions:
REMARK  status: ('A' for Active; 'I' for Inactive)
REMARK    1  A    between atoms: C_6  and  C_7
REMARK    2  A    between atoms: C_10  and  S_13
REMARK    3  A    between atoms: S_13  and  C_14
REMARK    4  A    between atoms: C_14  and  C_15
REMARK    5  A    between atoms: N_17  and  C_18
REMARK    6  A    between atoms: C_19  and  C_23
REMARK                            x       y       z     vdW  Elec       q    Type
REMARK                         _______ _______ _______ _____ _____    ______ ____
ROOT
ATOM      1  C   UNL     1      -5.257  -3.673   0.034  0.00  0.00    +0.173 C 
ENDROOT
BRANCH   1   2
ATOM      2  C   UNL     1      -6.011  -4.978   0.037  0.00  0.00    +0.228 C 
ATOM      3  O   UNL     1      -5.405  -6.028   0.032  0.00  0.00    -0.275 OA
ATOM      4  N   UNL     1      -7.359  -4.977   0.046  0.00  0.00    -0.279 N 
ATOM      5  H   UNL     1      -7.843  -4.137   0.050  0.00  0.00    +0.155 HD
BRANCH   4   6
ATOM      6  C   UNL     1      -8.053  -6.177   0.049  0.00  0.00    +0.084 A 
ATOM      7  C   UNL     1      -9.427  -6.368   0.052  0.00  0.00    +0.065 A 
ATOM      8  C   UNL     1      -9.889  -7.737   0.055  0.00  0.00    +0.022 A 
ATOM      9  C   UNL     1      -8.929  -8.681   0.055  0.00  0.00    +0.048 A 
ATOM     10  S   UNL     1      -7.423  -7.733   0.043  0.00  0.00    -0.081 S 
BRANCH   7  11
ATOM     11  C   UNL     1     -10.362  -5.239   0.053  0.00  0.00    +0.244 C 
ATOM     12  O   UNL     1      -9.938  -4.098   0.051  0.00  0.00    -0.270 OA
ATOM     13  N   UNL     1     -11.690  -5.464   0.056  0.00  0.00    -0.325 N 
ATOM     14  H   UNL     1     -12.028  -6.373   0.058  0.00  0.00    +0.145 HD
ATOM     15  H   UNL     1     -12.309  -4.717   0.056  0.00  0.00    +0.145 HD
ENDBRANCH   7  11
ENDBRANCH   4   6
ENDBRANCH   1   2
BRANCH   1  16
ATOM     16  S   UNL     1      -3.473  -4.005   0.022  0.00  0.00    -0.079 S 
BRANCH  16  20
ATOM     17  C   UNL     1      -1.266  -0.763   0.011  0.00  0.00    +0.067 A 
ATOM     18  C   UNL     1      -2.522  -0.246   0.020  0.00  0.00    +0.139 A 
ATOM     19  N   UNL     1      -3.394  -1.262   0.025  0.00  0.00    -0.230 NA
ATOM     20  C   UNL     1      -2.741  -2.403   0.019  0.00  0.00    +0.167 A 
ATOM     21  N   UNL     1      -1.405  -2.141   0.004  0.00  0.00    -0.333 N 
ATOM     22  H   UNL     1      -0.688  -2.794  -0.006  0.00  0.00    +0.168 HD
BRANCH  17  28
ATOM     23  C   UNL     1      -0.017   1.392   0.010  0.00  0.00    +0.011 A 
ATOM     24  C   UNL     1       1.170   2.095   0.002  0.00  0.00    +0.016 A 
ATOM     25  C   UNL     1       2.378   1.419  -0.013  0.00  0.00    +0.018 A 
ATOM     26  C   UNL     1       2.404   0.035  -0.021  0.00  0.00    +0.016 A 
ATOM     27  C   UNL     1       1.224  -0.680  -0.014  0.00  0.00    +0.011 A 
ATOM     28  C   UNL     1       0.002  -0.004   0.002  0.00  0.00    -0.000 A 
ATOM     29 BR   UNL     1       4.000   2.391  -0.024  0.00  0.00    -0.050 Br
ENDBRANCH  17  28
ENDBRANCH  16  20
ENDBRANCH   1  16
TORSDOF 6
