REMARK  Name = ZINC63291213
REMARK  5 active torsions:
REMARK  status: ('A' for Active; 'I' for Inactive)
REMARK    1  A    between atoms: C_1  and  C_2
REMARK    2  A    between atoms: C_7  and  S_12
REMARK    3  A    between atoms: S_12  and  C_13
REMARK    4  A    between atoms: C_13  and  C_14
REMARK    5  A    between atoms: C_16  and  C_27
REMARK                            x       y       z     vdW  Elec       q    Type
REMARK                         _______ _______ _______ _____ _____    ______ ____
ROOT
ATOM      1  C   UNL     1       4.261  -4.812   1.809  0.00  0.00    +0.149 C 
ATOM      2  C   UNL     1       5.435  -3.904   1.387  0.00  0.00    +0.265 C 
ATOM      3  N   UNL     1       6.168  -4.707   0.400  0.00  0.00    -0.154 NA
ATOM      4  N   UNL     1       5.637  -5.800   0.232  0.00  0.00    -0.076 NA
ATOM      5  N   UNL     1       4.488  -6.024   0.999  0.00  0.00    -0.177 N 
ATOM      6  C   UNL     1       3.702  -7.175   0.999  0.00  0.00    +0.228 A 
ATOM      7  C   UNL     1       3.940  -8.377   0.194  0.00  0.00    +0.204 A 
ATOM      8  N   UNL     1       3.000  -9.242   0.460  0.00  0.00    -0.032 NA
ATOM      9  O   UNL     1       2.135  -8.661   1.420  0.00  0.00    -0.239 OA
ATOM     10  N   UNL     1       2.633  -7.369   1.720  0.00  0.00    -0.030 NA
ATOM     11  N   UNL     1       4.988  -8.563  -0.701  0.00  0.00    -0.338 N 
ATOM     12  H   UNL     1       5.642  -7.860  -0.835  0.00  0.00    +0.144 HD
ATOM     13  H   UNL     1       5.064  -9.397  -1.192  0.00  0.00    +0.144 HD
ENDROOT
BRANCH   2  14
ATOM     14  C   UNL     1       4.921  -2.633   0.761  0.00  0.00    +0.384 C 
ATOM     15  O   UNL     1       4.698  -1.657   1.458  0.00  0.00    -0.244 OA
ATOM     16  O   UNL     1       4.729  -2.580  -0.442  0.00  0.00    -0.244 OA
ENDBRANCH   2  14
BRANCH   1  17
ATOM     17  C   UNL     1       2.920  -4.166   1.458  0.00  0.00    +0.100 C 
BRANCH  17  18
ATOM     18  S   UNL     1       1.567  -5.231   2.029  0.00  0.00    -0.113 S 
BRANCH  18  25
ATOM     19  C   UNL     1      -0.018   1.503   0.010  0.00  0.00    +0.044 C 
ATOM     20  C   UNL     1       0.002  -0.004   0.002  0.00  0.00    -0.048 A 
ATOM     21  C   UNL     1       0.005  -0.672  -1.235  0.00  0.00    +0.005 A 
ATOM     22  C   UNL     1       0.022  -2.017  -1.335  0.00  0.00    +0.028 A 
ATOM     23  C   UNL     1       0.040  -2.834  -0.114  0.00  0.00    +0.061 A 
ATOM     24  N   UNL     1       0.057  -4.120   0.090  0.00  0.00    -0.355 N 
ATOM     25  C   UNL     1       0.067  -4.335   1.542  0.00  0.00    +0.235 C 
ATOM     26  N   UNL     1       0.053  -3.002   2.159  0.00  0.00    -0.355 N 
ATOM     27  C   UNL     1       0.037  -2.127   1.195  0.00  0.00    +0.061 A 
ATOM     28  C   UNL     1       0.022  -0.657   1.181  0.00  0.00    +0.030 A 
ATOM     29  H   UNL     1       0.062  -4.809  -0.593  0.00  0.00    +0.162 HD
ATOM     30  H   UNL     1       0.055  -2.810   3.109  0.00  0.00    +0.162 HD
ENDBRANCH  18  25
ENDBRANCH  17  18
ENDBRANCH   1  17
TORSDOF 4
