REMARK  Name = ZINC44740507
REMARK  6 active torsions:
REMARK  status: ('A' for Active; 'I' for Inactive)
REMARK    1  A    between atoms: C_1  and  C_2
REMARK    2  A    between atoms: C_9  and  C_11
REMARK    3  A    between atoms: C_11  and  N_12
REMARK    4  A    between atoms: N_15  and  C_18
REMARK    5  A    between atoms: C_18  and  C_20
REMARK    6  A    between atoms: C_18  and  C_21
REMARK                            x       y       z     vdW  Elec       q    Type
REMARK                         _______ _______ _______ _____ _____    ______ ____
ROOT
ATOM      1  N   UNL     1       3.048   0.974   3.675  0.00  0.00    +0.387 N 
ATOM      2  C   UNL     1       2.022   1.760   4.374  0.00  0.00    -0.063 C 
ATOM      3  C   UNL     1       2.682   2.946   5.081  0.00  0.00    +0.066 C 
ATOM      4  N   UNL     1       3.680   2.449   6.038  0.00  0.00    -0.295 NA
ATOM      5  C   UNL     1       4.700   1.640   5.356  0.00  0.00    +0.066 C 
ATOM      6  C   UNL     1       4.024   0.464   4.647  0.00  0.00    -0.063 C 
ATOM      7  H   UNL     1       3.518   1.560   3.002  0.00  0.00    -0.081 HD
ENDROOT
BRANCH   4   8
ATOM      8  C   UNL     1       4.297   3.558   6.779  0.00  0.00    +0.140 C 
ATOM      9  C   UNL     1       5.093   4.437   5.812  0.00  0.00    +0.034 C 
BRANCH   8  10
ATOM     10  C   UNL     1       5.222   3.005   7.832  0.00  0.00    +0.237 C 
ATOM     11  O   UNL     1       5.354   1.806   7.954  0.00  0.00    -0.274 OA
ATOM     12  N   UNL     1       5.902   3.844   8.639  0.00  0.00    -0.239 N 
ATOM     13  C   UNL     1       6.729   3.350   9.582  0.00  0.00    +0.303 C 
ATOM     14  O   UNL     1       6.861   2.148   9.704  0.00  0.00    -0.253 OA
ATOM     15  N   UNL     1       7.409   4.188  10.388  0.00  0.00    -0.313 N 
ATOM     16  H   UNL     1       5.796   4.803   8.541  0.00  0.00    +0.159 HD
ATOM     17  H   UNL     1       7.303   5.147  10.291  0.00  0.00    +0.146 HD
ATOM     18  H   UNL     1       8.004   3.833  11.066  0.00  0.00    +0.146 HD
ENDBRANCH   8  10
ENDBRANCH   4   8
BRANCH   1  19
ATOM     19  C   UNL     1       2.412  -0.154   2.982  0.00  0.00    +0.019 C 
BRANCH  19  27
ATOM     20  C   UNL     1      -0.017   1.526   0.009  0.00  0.00    +0.028 C 
ATOM     21  C   UNL     1       0.003  -0.004   0.001  0.00  0.00    +0.073 C 
ATOM     22  C   UNL     1      -1.426  -0.537   0.144  0.00  0.00    +0.022 C 
ATOM     23  C   UNL     1      -1.387  -2.061   0.276  0.00  0.00    +0.003 C 
ATOM     24  C   UNL     1      -0.600  -2.447   1.530  0.00  0.00    +0.019 C 
ATOM     25  C   UNL     1       0.838  -1.935   1.403  0.00  0.00    +0.108 C 
ATOM     26  N   UNL     1       0.808  -0.492   1.130  0.00  0.00    -0.300 N 
ATOM     27  C   UNL     1       1.502   0.368   1.901  0.00  0.00    +0.199 C 
ATOM     28  O   UNL     1       1.393   1.563   1.725  0.00  0.00    -0.278 OA
ENDBRANCH  19  27
ENDBRANCH   1  19
TORSDOF 4
