REMARK  Name = ZINC17967779
REMARK  6 active torsions:
REMARK  status: ('A' for Active; 'I' for Inactive)
REMARK    1  A    between atoms: C_1  and  C_2
REMARK    2  A    between atoms: C_5  and  N_9
REMARK    3  A    between atoms: C_10  and  C_12
REMARK    4  A    between atoms: C_12  and  S_13
REMARK    5  A    between atoms: S_13  and  C_14
REMARK    6  A    between atoms: C_16  and  N_21
REMARK                            x       y       z     vdW  Elec       q    Type
REMARK                         _______ _______ _______ _____ _____    ______ ____
ROOT
ATOM      1  C   UNL     1      -2.690   0.740   0.001  0.00  0.00    +0.173 C 
ENDROOT
BRANCH   1   3
ATOM      2  N   UNL     1      -5.131   0.342   0.028  0.00  0.00    -0.284 N 
ATOM      3  C   UNL     1      -4.116   1.228   0.022  0.00  0.00    +0.228 C 
ATOM      4  O   UNL     1      -4.350   2.418   0.033  0.00  0.00    -0.275 OA
ATOM      5  H   UNL     1      -4.922  -0.735  -0.057  0.00  0.00    +0.155 HD
BRANCH   2  10
ATOM      6  C   UNL     1     -10.485   2.164   0.490  0.00  0.00    +0.044 C 
ATOM      7  C   UNL     1      -9.063   1.680   0.368  0.00  0.00    -0.049 A 
ATOM      8  C   UNL     1      -8.134   2.434  -0.326  0.00  0.00    +0.005 A 
ATOM      9  C   UNL     1      -6.831   1.993  -0.441  0.00  0.00    +0.024 A 
ATOM     10  C   UNL     1      -6.452   0.791   0.142  0.00  0.00    +0.047 A 
ATOM     11  C   UNL     1      -7.388   0.033   0.834  0.00  0.00    +0.039 A 
ATOM     12  C   UNL     1      -8.690   0.482   0.949  0.00  0.00    +0.020 A 
ATOM     13 BR   UNL     1      -6.880  -1.609   1.624  0.00  0.00    -0.048 Br
ENDBRANCH   2  10
ENDBRANCH   1   3
BRANCH   1  14
ATOM     14  S   UNL     1      -1.567   2.160  -0.002  0.00  0.00    -0.078 S 
BRANCH  14  15
ATOM     15  C   UNL     1      -0.017   1.323  -0.027  0.00  0.00    +0.171 A 
ATOM     16  N   UNL     1       1.101   2.035  -0.041  0.00  0.00    -0.209 NA
ATOM     17  C   UNL     1       2.289   1.436  -0.066  0.00  0.00    +0.124 A 
ATOM     18  C   UNL     1       2.346   0.044  -0.077  0.00  0.00    +0.113 A 
ATOM     19  C   UNL     1       1.153  -0.667  -0.061  0.00  0.00    +0.254 A 
ATOM     20  N   UNL     1       0.002  -0.002  -0.037  0.00  0.00    -0.302 N 
ATOM     21  O   UNL     1       1.162  -2.022  -0.072  0.00  0.00    -0.268 OA
ATOM     22  H   UNL     1      -0.943  -0.565  -0.025  0.00  0.00    +0.171 HD
BRANCH  17  23
ATOM     23  N   UNL     1       3.454   2.187  -0.080  0.00  0.00    -0.343 N 
ATOM     24  H   UNL     1       4.432   1.684  -0.100  0.00  0.00    +0.144 HD
ATOM     25  H   UNL     1       3.400   3.286  -0.071  0.00  0.00    +0.144 HD
ENDBRANCH  17  23
ENDBRANCH  14  15
ENDBRANCH   1  14
TORSDOF 5
