REMARK  Name = ZINC17665844
REMARK  8 active torsions:
REMARK  status: ('A' for Active; 'I' for Inactive)
REMARK    1  A    between atoms: C_4  and  C_7
REMARK    2  A    between atoms: C_7  and  C_9
REMARK    3  A    between atoms: C_7  and  S_15
REMARK    4  A    between atoms: N_11  and  C_12
REMARK    5  A    between atoms: S_15  and  C_16
REMARK    6  A    between atoms: N_26  and  C_27
REMARK    7  A    between atoms: C_27  and  C_28
REMARK    8  A    between atoms: C_28  and  C_29
REMARK                            x       y       z     vdW  Elec       q    Type
REMARK                         _______ _______ _______ _____ _____    ______ ____
ROOT
ATOM      1  C   UNL     1       5.245   3.893  -1.470  0.00  0.00    +0.173 A 
ATOM      2  N   UNL     1       5.992   3.649  -0.422  0.00  0.00    -0.223 NA
ATOM      3  C   UNL     1       7.215   4.199  -0.283  0.00  0.00    +0.079 A 
ATOM      4  C   UNL     1       8.015   3.935   0.833  0.00  0.00    +0.028 A 
ATOM      5  C   UNL     1       9.246   4.519   0.935  0.00  0.00    +0.002 A 
ATOM      6  C   UNL     1       9.718   5.372  -0.054  0.00  0.00    +0.001 A 
ATOM      7  C   UNL     1       8.959   5.650  -1.157  0.00  0.00    +0.015 A 
ATOM      8  C   UNL     1       7.698   5.068  -1.288  0.00  0.00    +0.065 A 
ATOM      9  C   UNL     1       6.839   5.330  -2.451  0.00  0.00    +0.262 A 
ATOM     10  O   UNL     1       7.199   6.070  -3.348  0.00  0.00    -0.267 OA
ATOM     11  N   UNL     1       5.632   4.719  -2.486  0.00  0.00    -0.287 N 
ENDROOT
BRANCH   1  12
ATOM     12  S   UNL     1       3.662   3.124  -1.570  0.00  0.00    -0.070 S 
BRANCH  12  13
ATOM     13  C   UNL     1       3.672   2.182  -0.024  0.00  0.00    +0.170 C 
BRANCH  13  17
ATOM     14  C   UNL     1       0.161  -0.241   0.189  0.00  0.00    +0.000 A 
ATOM     15  C   UNL     1       0.048   1.136   0.131  0.00  0.00    +0.000 A 
ATOM     16  C   UNL     1       1.185   1.920   0.062  0.00  0.00    +0.005 A 
ATOM     17  C   UNL     1       2.433   1.327   0.051  0.00  0.00    -0.025 A 
ATOM     18  C   UNL     1       2.546  -0.049   0.111  0.00  0.00    +0.005 A 
ATOM     19  C   UNL     1       1.410  -0.833   0.180  0.00  0.00    +0.000 A 
ENDBRANCH  13  17
BRANCH  13  20
ATOM     20  C   UNL     1       3.698   3.134   1.144  0.00  0.00    +0.231 C 
ATOM     21  O   UNL     1       4.236   2.807   2.181  0.00  0.00    -0.274 OA
ATOM     22  N   UNL     1       3.124   4.348   1.037  0.00  0.00    -0.311 N 
ATOM     23  H   UNL     1       2.631   4.582   0.235  0.00  0.00    +0.149 HD
BRANCH  22  24
ATOM     24  C   UNL     1       3.244   5.314   2.131  0.00  0.00    +0.073 C 
ATOM     25  C   UNL     1       1.987   6.091   2.529  0.00  0.00    +0.024 C 
ATOM     26  C   UNL     1       3.119   6.798   1.780  0.00  0.00    +0.024 C 
ENDBRANCH  22  24
ENDBRANCH  13  20
ENDBRANCH  12  13
ENDBRANCH   1  12
BRANCH  11  27
ATOM     27  C   UNL     1       4.735   4.945  -3.622  0.00  0.00    +0.131 C 
BRANCH  27  28
ATOM     28  C   UNL     1       3.835   6.147  -3.329  0.00  0.00    +0.052 C 
BRANCH  28  29
ATOM     29  C   UNL     1       2.912   6.380  -4.498  0.00  0.00    -0.072 C 
ATOM     30  C   UNL     1       1.728   5.858  -4.450  0.00  0.00    -0.028 C 
ATOM     31  C   UNL     1       0.705   5.994  -5.539  0.00  0.00    +0.027 C 
ATOM     32  C   UNL     1       1.079   7.146  -6.473  0.00  0.00    +0.004 C 
ATOM     33  C   UNL     1       2.549   6.982  -6.881  0.00  0.00    +0.005 C 
ATOM     34  C   UNL     1       3.420   7.207  -5.642  0.00  0.00    +0.030 C 
ENDBRANCH  28  29
ENDBRANCH  27  28
ENDBRANCH  11  27
TORSDOF 8
