REMARK  Name = ZINC06301708
REMARK  7 active torsions:
REMARK  status: ('A' for Active; 'I' for Inactive)
REMARK    1  A    between atoms: C_1  and  C_2
REMARK    2  A    between atoms: C_4  and  C_38
REMARK    3  A    between atoms: C_7  and  C_14
REMARK    4  A    between atoms: C_14  and  C_16
REMARK    5  A    between atoms: C_14  and  N_74
REMARK    6  A    between atoms: N_20  and  C_21
REMARK    7  A    between atoms: C_21  and  C_22
REMARK                            x       y       z     vdW  Elec       q    Type
REMARK                         _______ _______ _______ _____ _____    ______ ____
ROOT
ATOM      1  C   UNL     1       0.257   1.668  -0.469  0.00  0.00    +0.039 C 
ENDROOT
BRANCH   1   8
ATOM      2  C   UNL     1      -4.219   0.595   6.045  0.00  0.00    +0.044 C 
ATOM      3  C   UNL     1      -3.335   0.568   4.825  0.00  0.00    -0.048 A 
ATOM      4  C   UNL     1      -2.787  -0.635   4.401  0.00  0.00    +0.007 A 
ATOM      5  C   UNL     1      -1.982  -0.682   3.298  0.00  0.00    -0.041 A 
ATOM      6  C   UNL     1      -1.709   0.492   2.589  0.00  0.00    +0.002 A 
ATOM      7  C   UNL     1      -0.856   0.477   1.399  0.00  0.00    +0.018 A 
ATOM      8  C   UNL     1      -0.621   1.648   0.756  0.00  0.00    +0.011 A 
ATOM      9  C   UNL     1      -1.201   2.846   1.225  0.00  0.00    +0.251 A 
ATOM     10  O   UNL     1      -0.981   3.886   0.629  0.00  0.00    -0.268 OA
ATOM     11  N   UNL     1      -1.990   2.869   2.314  0.00  0.00    -0.322 N 
ATOM     12  H   UNL     1      -2.372   3.709   2.609  0.00  0.00    +0.169 HD
ATOM     13  C   UNL     1      -2.263   1.714   3.015  0.00  0.00    +0.050 A 
ATOM     14  C   UNL     1      -3.079   1.737   4.142  0.00  0.00    +0.029 A 
ATOM     15  C   UNL     1      -1.393  -1.993   2.846  0.00  0.00    +0.044 C 
ENDBRANCH   1   8
BRANCH   1  26
ATOM     16  C   UNL     1       2.013   2.474   0.990  0.00  0.00    -0.077 C 
ATOM     17  C   UNL     1       3.013   3.612   1.206  0.00  0.00    -0.018 C 
ATOM     18  C   UNL     1       4.024   3.621   0.056  0.00  0.00    +0.003 C 
ATOM     19  C   UNL     1       3.275   3.772  -1.270  0.00  0.00    -0.044 C 
ATOM     20  C   UNL     1       2.267   2.630  -1.415  0.00  0.00    -0.071 C 
ATOM     21  C   UNL     1       2.536   5.112  -1.288  0.00  0.00    +0.005 C 
ATOM     22  C   UNL     1       1.788   5.265  -2.614  0.00  0.00    +0.000 C 
ATOM     23  C   UNL     1       2.788   5.218  -3.771  0.00  0.00    +0.000 C 
ATOM     24  C   UNL     1       3.525   3.878  -3.754  0.00  0.00    +0.000 C 
ATOM     25  C   UNL     1       4.273   3.724  -2.428  0.00  0.00    +0.005 C 
ATOM     26  N   UNL     1       1.308   2.691  -0.292  0.00  0.00    +0.390 N 
ATOM     27  H   UNL     1       0.870   3.620  -0.278  0.00  0.00    -0.080 HD
ENDBRANCH   1  26
BRANCH   1  28
ATOM     28  C   UNL     1      -0.572   2.028  -1.675  0.00  0.00    +0.143 A 
ATOM     29  N   UNL     1      -1.186   3.166  -1.892  0.00  0.00    -0.115 NA
ATOM     30  N   UNL     1      -1.785   3.084  -3.030  0.00  0.00    -0.023 NA
ATOM     31  N   UNL     1      -1.569   1.924  -3.545  0.00  0.00    -0.044 NA
ATOM     32  N   UNL     1      -0.821   1.246  -2.742  0.00  0.00    -0.228 N 
BRANCH  32  33
ATOM     33  C   UNL     1      -0.336  -0.121  -2.951  0.00  0.00    +0.178 C 
BRANCH  33  34
ATOM     34  C   UNL     1      -1.417  -1.116  -2.523  0.00  0.00    +0.140 C 
ATOM     35  C   UNL     1      -0.945  -2.568  -2.788  0.00  0.00    +0.035 C 
ATOM     36  C   UNL     1      -1.802  -3.349  -1.755  0.00  0.00    +0.031 C 
ATOM     37  C   UNL     1      -1.892  -2.350  -0.581  0.00  0.00    +0.160 C 
ATOM     38  O   UNL     1      -1.628  -1.043  -1.104  0.00  0.00    -0.375 OA
ENDBRANCH  33  34
ENDBRANCH  32  33
ENDBRANCH   1  28
TORSDOF 5
