REMARK  Name = ZINC22199767
REMARK  9 active torsions:
REMARK  status: ('A' for Active; 'I' for Inactive)
REMARK    1  A    between atoms: C_4  and  C_8
REMARK    2  A    between atoms: C_8  and  N_9
REMARK    3  A    between atoms: N_9  and  C_10
REMARK    4  A    between atoms: N_9  and  C_25
REMARK    5  A    between atoms: C_10  and  C_11
REMARK    6  A    between atoms: C_11  and  C_12
REMARK    7  A    between atoms: N_14  and  C_15
REMARK    8  A    between atoms: C_18  and  S_21
REMARK    9  A    between atoms: S_21  and  N_24
REMARK                            x       y       z     vdW  Elec       q    Type
REMARK                         _______ _______ _______ _____ _____    ______ ____
ROOT
ATOM      1  C   UNL     1       2.403   1.753  -0.028  0.00  0.00    +0.077 C 
ENDROOT
BRANCH   1   2
ATOM      2  C   UNL     1       1.391   2.865  -0.128  0.00  0.00    +0.215 C 
ATOM      3  O   UNL     1       1.752   4.021  -0.071  0.00  0.00    -0.276 OA
ATOM      4  N   UNL     1       0.084   2.574  -0.282  0.00  0.00    -0.286 N 
ATOM      5  H   UNL     1      -0.237   1.529  -0.405  0.00  0.00    +0.155 HD
BRANCH   4   6
ATOM      6  C   UNL     1      -0.866   3.602  -0.285  0.00  0.00    +0.033 A 
ATOM      7  C   UNL     1      -2.121   3.392   0.270  0.00  0.00    +0.025 A 
ATOM      8  C   UNL     1      -3.054   4.410   0.271  0.00  0.00    +0.030 A 
ATOM      9  C   UNL     1      -2.743   5.635  -0.291  0.00  0.00    +0.105 A 
ATOM     10  C   UNL     1      -1.496   5.846  -0.851  0.00  0.00    +0.030 A 
ATOM     11  C   UNL     1      -0.557   4.833  -0.849  0.00  0.00    +0.025 A 
BRANCH   9  12
ATOM     12  S   UNL     1      -3.938   6.929  -0.295  0.00  0.00    +0.056 S 
ATOM     13  O   UNL     1      -4.835   6.657   0.774  0.00  0.00    -0.153 OA
ATOM     14  O   UNL     1      -3.216   8.149  -0.391  0.00  0.00    -0.153 OA
BRANCH  12  15
ATOM     15  N   UNL     1      -4.812   6.785  -1.694  0.00  0.00    -0.204 NA
ATOM     16  H   UNL     1      -5.573   7.579  -1.735  0.00  0.00    +0.144 HD
ATOM     17  H   UNL     1      -5.306   5.802  -1.718  0.00  0.00    +0.144 HD
ENDBRANCH  12  15
ENDBRANCH   9  12
ENDBRANCH   4   6
ENDBRANCH   1   2
BRANCH   1  18
ATOM     18  C   UNL     1       3.801   2.350   0.141  0.00  0.00    -0.069 C 
BRANCH  18  19
ATOM     19  N   UNL     1       4.788   1.266   0.239  0.00  0.00    +0.385 N 
ATOM     20  H   UNL     1       4.449   0.570   1.021  0.00  0.00    -0.081 HD
BRANCH  19  21
ATOM     21  C   UNL     1       4.877   0.519  -1.023  0.00  0.00    -0.068 C 
ATOM     22  C   UNL     1       4.058  -0.768  -1.141  0.00  0.00    -0.017 C 
ATOM     23  C   UNL     1       5.580  -0.840  -0.992  0.00  0.00    -0.017 C 
ENDBRANCH  19  21
BRANCH  19  24
ATOM     24  C   UNL     1       6.103   1.786   0.636  0.00  0.00    -0.038 C 
BRANCH  24  28
ATOM     25  C   UNL     1       8.560  -1.439   1.991  0.00  0.00    +0.004 A 
ATOM     26  C   UNL     1       8.701  -0.958   0.703  0.00  0.00    +0.038 A 
ATOM     27  C   UNL     1       7.906   0.087   0.263  0.00  0.00    +0.126 A 
ATOM     28  C   UNL     1       6.970   0.649   1.114  0.00  0.00    -0.010 A 
ATOM     29  C   UNL     1       6.833   0.170   2.404  0.00  0.00    +0.045 A 
ATOM     30  C   UNL     1       7.625  -0.878   2.840  0.00  0.00    +0.020 A 
ATOM     31 CL   UNL     1       5.664   0.878   3.474  0.00  0.00    -0.083 Cl
ATOM     32  F   UNL     1       8.044   0.557  -0.996  0.00  0.00    -0.205 F 
ENDBRANCH  24  28
ENDBRANCH  19  24
ENDBRANCH  18  19
ENDBRANCH   1  18
TORSDOF 9
