REMARK  Name = ZINC49547891
REMARK  13 active torsions:
REMARK  status: ('A' for Active; 'I' for Inactive)
REMARK    1  A    between atoms: C_1  and  C_2
REMARK    2  A    between atoms: C_3  and  N_12
REMARK    3  A    between atoms: C_4  and  C_11
REMARK    4  A    between atoms: N_5  and  C_7
REMARK    5  A    between atoms: C_7  and  C_8
REMARK    6  A    between atoms: C_8  and  C_9
REMARK    7  A    between atoms: C_8  and  C_10
REMARK    8  A    between atoms: C_13  and  C_15
REMARK    9  A    between atoms: N_17  and  C_18
REMARK   10  A    between atoms: C_20  and  C_26
REMARK   11  A    between atoms: C_20  and  C_27
REMARK   12  A    between atoms: C_22  and  C_24
REMARK   13  A    between atoms: C_22  and  C_25
REMARK                            x       y       z     vdW  Elec       q    Type
REMARK                         _______ _______ _______ _____ _____    ______ ____
ROOT
ATOM      1  C   UNL     1       0.045   1.193  -4.367  0.00  0.00    +0.300 C 
ATOM      2  O   UNL     1      -0.404   0.446  -5.212  0.00  0.00    -0.265 OA
ATOM      3  N   UNL     1       0.358   2.464  -4.690  0.00  0.00    -0.305 N 
ATOM      4  H   UNL     1       0.716   3.061  -4.015  0.00  0.00    +0.149 HD
ENDROOT
BRANCH   3   5
ATOM      5  C   UNL     1       0.155   2.944  -6.063  0.00  0.00    +0.071 C 
ATOM      6  C   UNL     1       1.396   2.618  -6.897  0.00  0.00    +0.009 C 
ATOM      7  C   UNL     1       1.205   3.123  -8.327  0.00  0.00    -0.072 C 
ATOM      8  N   UNL     1       0.861   4.536  -8.368  0.00  0.00    +0.386 N 
ATOM      9  C   UNL     1      -0.175   5.006  -7.461  0.00  0.00    -0.072 C 
ATOM     10  C   UNL     1      -0.025   4.461  -6.045  0.00  0.00    +0.009 C 
ATOM     11  C   UNL     1      -1.577   4.698  -7.994  0.00  0.00    -0.010 C 
ATOM     12  C   UNL     1      -0.053   6.546  -7.376  0.00  0.00    -0.010 C 
ATOM     13  C   UNL     1       0.180   2.259  -9.061  0.00  0.00    -0.010 C 
ATOM     14  C   UNL     1       2.557   2.951  -9.058  0.00  0.00    -0.010 C 
ATOM     15  H   UNL     1       1.711   5.079  -8.195  0.00  0.00    -0.084 HD
ATOM     16  H   UNL     1       0.583   4.771  -9.324  0.00  0.00    -0.084 HD
ENDBRANCH   3   5
BRANCH   1  18
ATOM     17  N   UNL     1      -0.062  -0.566  -2.649  0.00  0.00    -0.275 N 
ATOM     18  C   UNL     1       0.251   0.705  -2.971  0.00  0.00    +0.303 C 
ATOM     19  O   UNL     1       0.700   1.453  -2.127  0.00  0.00    -0.265 OA
ATOM     20  H   UNL     1      -0.367  -1.179  -3.335  0.00  0.00    +0.155 HD
BRANCH  17  23
ATOM     21  C   UNL     1      -0.575   1.226  -0.152  0.00  0.00    +0.069 C 
ATOM     22  C   UNL     1      -0.169  -0.225  -0.171  0.00  0.00    +0.081 A 
ATOM     23  C   UNL     1       0.054  -1.002  -1.318  0.00  0.00    +0.078 A 
ATOM     24  C   UNL     1       0.402  -2.250  -0.912  0.00  0.00    +0.058 A 
ATOM     25  N   UNL     1       0.398  -2.258   0.440  0.00  0.00    -0.266 N 
ATOM     26  N   UNL     1       0.043  -0.976   0.879  0.00  0.00    -0.174 NA
ATOM     27  C   UNL     1       0.733  -3.417  -1.807  0.00  0.00    +0.067 C 
BRANCH  25  28
ATOM     28  C   UNL     1       0.715  -3.404   1.296  0.00  0.00    +0.146 C 
BRANCH  28  29
ATOM     29  C   UNL     1       2.214  -3.415   1.600  0.00  0.00    +0.004 C 
ATOM     30  C   UNL     1       2.525  -4.537   2.592  0.00  0.00    +0.009 C 
ATOM     31  C   UNL     1       2.995  -3.648   0.305  0.00  0.00    +0.009 C 
ENDBRANCH  28  29
ENDBRANCH  25  28
ENDBRANCH  17  23
ENDBRANCH   1  18
TORSDOF 5
