REMARK  Name = ZINC40824878
REMARK  6 active torsions:
REMARK  status: ('A' for Active; 'I' for Inactive)
REMARK    1  A    between atoms: C_1  and  C_2
REMARK    2  A    between atoms: C_6  and  C_7
REMARK    3  A    between atoms: N_9  and  N_10
REMARK    4  A    between atoms: N_10  and  C_11
REMARK    5  A    between atoms: N_10  and  C_17
REMARK    6  A    between atoms: N_27  and  N_28
REMARK                            x       y       z     vdW  Elec       q    Type
REMARK                         _______ _______ _______ _____ _____    ______ ____
ROOT
ATOM      1  C   UNL     1      -0.639  -1.131  -0.509  0.00  0.00    +0.048 C 
ATOM      2  C   UNL     1      -0.642  -2.449   0.221  0.00  0.00    +0.009 A 
ATOM      3  C   UNL     1      -0.801  -3.721  -0.342  0.00  0.00    +0.042 A 
ATOM      4  C   UNL     1      -0.741  -4.636   0.681  0.00  0.00    +0.115 A 
ATOM      5  O   UNL     1      -0.551  -3.970   1.818  0.00  0.00    -0.454 OA
ATOM      6  C   UNL     1      -0.483  -2.643   1.565  0.00  0.00    +0.194 A 
ATOM      7  C   UNL     1      -0.878  -6.122   0.463  0.00  0.00    +0.075 C 
ATOM      8  C   UNL     1      -1.579  -6.377  -0.874  0.00  0.00    +0.014 C 
ATOM      9  C   UNL     1      -0.869  -5.629  -2.007  0.00  0.00    +0.058 C 
ATOM     10  C   UNL     1      -1.001  -4.135  -1.749  0.00  0.00    +0.072 C 
ATOM     11  N   UNL     1      -1.270  -3.287  -2.693  0.00  0.00    -0.175 NA
ENDROOT
BRANCH  11  12
ATOM     12  N   UNL     1      -1.449  -3.736  -4.008  0.00  0.00    -0.248 N 
ATOM     13  C   UNL     1      -1.733  -2.841  -5.004  0.00  0.00    +0.187 C 
ATOM     14  N   UNL     1      -1.904  -3.268  -6.255  0.00  0.00    -0.370 N 
ATOM     15  N   UNL     1      -1.838  -1.542  -4.723  0.00  0.00    -0.370 N 
ATOM     16  H   UNL     1      -1.373  -4.681  -4.213  0.00  0.00    +0.192 HD
ATOM     17  H   UNL     1      -1.827  -4.213  -6.460  0.00  0.00    +0.159 HD
ATOM     18  H   UNL     1      -1.714  -1.232  -3.813  0.00  0.00    +0.159 HD
ATOM     19  H   UNL     1      -2.039  -0.908  -5.429  0.00  0.00    +0.159 HD
ATOM     20  H   UNL     1      -2.105  -2.633  -6.961  0.00  0.00    +0.159 HD
ENDBRANCH  11  12
BRANCH   6  21
ATOM     21  C   UNL     1      -0.278  -1.589   2.564  0.00  0.00    +0.296 C 
ATOM     22  O   UNL     1      -0.236  -0.423   2.219  0.00  0.00    -0.265 OA
ATOM     23  N   UNL     1      -0.134  -1.913   3.865  0.00  0.00    -0.223 N 
ATOM     24  H   UNL     1      -0.167  -2.842   4.140  0.00  0.00    +0.174 HD
BRANCH  23  25
ATOM     25  N   UNL     1       0.063  -0.906   4.819  0.00  0.00    -0.219 N 
BRANCH  25  26
ATOM     26  C   UNL     1      -1.009  -0.103   5.218  0.00  0.00    +0.053 A 
ATOM     27  C   UNL     1      -0.783   1.014   6.014  0.00  0.00    +0.025 A 
ATOM     28  C   UNL     1      -1.844   1.806   6.406  0.00  0.00    +0.002 A 
ATOM     29  C   UNL     1      -3.130   1.488   6.008  0.00  0.00    +0.000 A 
ATOM     30  C   UNL     1      -3.358   0.377   5.217  0.00  0.00    +0.002 A 
ATOM     31  C   UNL     1      -2.301  -0.416   4.816  0.00  0.00    +0.025 A 
ENDBRANCH  25  26
BRANCH  25  32
ATOM     32  C   UNL     1       1.330  -0.706   5.372  0.00  0.00    +0.053 A 
ATOM     33  C   UNL     1       2.424  -0.489   4.545  0.00  0.00    +0.025 A 
ATOM     34  C   UNL     1       3.676  -0.291   5.095  0.00  0.00    +0.002 A 
ATOM     35  C   UNL     1       3.840  -0.309   6.468  0.00  0.00    +0.000 A 
ATOM     36  C   UNL     1       2.752  -0.525   7.295  0.00  0.00    +0.002 A 
ATOM     37  C   UNL     1       1.497  -0.717   6.752  0.00  0.00    +0.025 A 
ENDBRANCH  25  32
ENDBRANCH  23  25
ENDBRANCH   6  21
TORSDOF 5
