REMARK  Name = ZINC66122428
REMARK  12 active torsions:
REMARK  status: ('A' for Active; 'I' for Inactive)
REMARK    1  A    between atoms: C_1  and  C_2
REMARK    2  A    between atoms: C_2  and  C_3
REMARK    3  A    between atoms: C_2  and  C_4
REMARK    4  A    between atoms: C_9  and  N_10
REMARK    5  A    between atoms: N_10  and  C_11
REMARK    6  A    between atoms: C_11  and  N_13
REMARK    7  A    between atoms: N_13  and  N_14
REMARK    8  A    between atoms: C_15  and  C_17
REMARK    9  A    between atoms: C_17  and  N_18
REMARK   10  A    between atoms: N_18  and  C_19
REMARK   11  A    between atoms: N_18  and  C_20
REMARK   12  A    between atoms: C_20  and  C_21
REMARK                            x       y       z     vdW  Elec       q    Type
REMARK                         _______ _______ _______ _____ _____    ______ ____
ROOT
ATOM      1  N   UNL     1      -0.591  -2.344  -4.239  0.00  0.00    -0.246 N 
ATOM      2  H   UNL     1      -0.917  -2.778  -5.042  0.00  0.00    +0.172 HD
ENDROOT
BRANCH   1   3
ATOM      3  N   UNL     1       0.769  -2.030  -4.115  0.00  0.00    -0.237 N 
ATOM      4  C   UNL     1       1.623  -2.332  -5.113  0.00  0.00    +0.213 C 
ATOM      5  O   UNL     1       1.215  -2.874  -6.118  0.00  0.00    -0.276 OA
ATOM      6  H   UNL     1       1.096  -1.596  -3.312  0.00  0.00    +0.173 HD
BRANCH   4   7
ATOM      7  C   UNL     1       3.086  -1.994  -4.981  0.00  0.00    +0.020 C 
BRANCH   7   8
ATOM      8  N   UNL     1       3.799  -2.421  -6.192  0.00  0.00    +0.386 N 
ATOM      9  C   UNL     1       3.322  -1.640  -7.342  0.00  0.00    -0.095 C 
ATOM     10  H   UNL     1       3.626  -3.401  -6.357  0.00  0.00    -0.081 HD
BRANCH   8  11
ATOM     11  C   UNL     1       5.241  -2.201  -6.015  0.00  0.00    -0.043 C 
BRANCH  11  12
ATOM     12  C   UNL     1       5.982  -2.751  -7.206  0.00  0.00    -0.064 A 
ATOM     13  C   UNL     1       6.412  -4.065  -7.207  0.00  0.00    +0.002 A 
ATOM     14  C   UNL     1       7.092  -4.570  -8.299  0.00  0.00    +0.000 A 
ATOM     15  C   UNL     1       7.343  -3.760  -9.391  0.00  0.00    +0.000 A 
ATOM     16  C   UNL     1       6.913  -2.446  -9.391  0.00  0.00    +0.000 A 
ATOM     17  C   UNL     1       6.229  -1.943  -8.300  0.00  0.00    +0.002 A 
ENDBRANCH  11  12
ENDBRANCH   8  11
ENDBRANCH   7   8
ENDBRANCH   4   7
ENDBRANCH   1   3
BRANCH   1  18
ATOM     18  C   UNL     1      -1.445  -2.043  -3.240  0.00  0.00    +0.151 C 
ATOM     19  S   UNL     1      -3.106  -2.426  -3.391  0.00  0.00    -0.017 S 
BRANCH  18  20
ATOM     20  N   UNL     1      -0.991  -1.440  -2.124  0.00  0.00    -0.296 N 
ATOM     21  H   UNL     1      -0.062  -1.166  -2.064  0.00  0.00    +0.154 HD
BRANCH  20  27
ATOM     22  C   UNL     1      -1.474  -1.546   0.240  0.00  0.00    -0.024 A 
ATOM     23  C   UNL     1      -2.331  -1.312   1.298  0.00  0.00    +0.006 A 
ATOM     24  C   UNL     1      -3.573  -0.749   1.071  0.00  0.00    +0.000 A 
ATOM     25  C   UNL     1      -3.962  -0.418  -0.214  0.00  0.00    +0.002 A 
ATOM     26  C   UNL     1      -3.110  -0.650  -1.276  0.00  0.00    +0.023 A 
ATOM     27  C   UNL     1      -1.859  -1.209  -1.051  0.00  0.00    +0.036 A 
BRANCH  22  29
ATOM     28  C   UNL     1       0.698  -1.242   1.399  0.00  0.00    +0.012 C 
ATOM     29  C   UNL     1      -0.120  -2.160   0.488  0.00  0.00    +0.015 C 
ATOM     30  C   UNL     1      -0.294  -3.523   1.160  0.00  0.00    +0.012 C 
ENDBRANCH  22  29
ENDBRANCH  20  27
ENDBRANCH  18  20
ENDBRANCH   1  18
TORSDOF 9
