REMARK  Name = ZINC35700123
REMARK  11 active torsions:
REMARK  status: ('A' for Active; 'I' for Inactive)
REMARK    1  A    between atoms: C_1  and  C_2
REMARK    2  A    between atoms: C_5  and  N_8
REMARK    3  A    between atoms: C_9  and  N_20
REMARK    4  A    between atoms: C_10  and  C_14
REMARK    5  A    between atoms: C_11  and  C_13
REMARK    6  A    between atoms: C_21  and  C_23
REMARK    7  A    between atoms: C_23  and  N_24
REMARK    8  A    between atoms: N_24  and  C_25
REMARK    9  A    between atoms: C_25  and  C_26
REMARK   10  A    between atoms: C_25  and  C_27
REMARK   11  A    between atoms: N_30  and  C_31
REMARK                            x       y       z     vdW  Elec       q    Type
REMARK                         _______ _______ _______ _____ _____    ______ ____
ROOT
ATOM      1  N   UNL     1       2.096  -4.564   2.210  0.00  0.00    -0.268 N 
ATOM      2  C   UNL     1       1.996  -3.221   2.263  0.00  0.00    +0.236 C 
ATOM      3  O   UNL     1       1.131  -2.653   1.631  0.00  0.00    -0.274 OA
ATOM      4  H   UNL     1       2.760  -5.023   2.749  0.00  0.00    +0.156 HD
ENDROOT
BRANCH   1   6
ATOM      5  N   UNL     1      -0.090  -5.106   1.231  0.00  0.00    -0.218 N 
ATOM      6  C   UNL     1       1.248  -5.293   1.382  0.00  0.00    +0.137 A 
ATOM      7  C   UNL     1       1.609  -6.344   0.558  0.00  0.00    +0.045 A 
ATOM      8  C   UNL     1       0.441  -6.784  -0.095  0.00  0.00    +0.070 A 
ATOM      9  N   UNL     1      -0.561  -6.051   0.311  0.00  0.00    -0.169 NA
ATOM     10  C   UNL     1       0.360  -7.912  -1.090  0.00  0.00    +0.068 C 
BRANCH   5  15
ATOM     11  C   UNL     1      -3.228  -1.192   3.885  0.00  0.00    +0.044 C 
ATOM     12  C   UNL     1      -2.394  -2.231   3.180  0.00  0.00    -0.050 A 
ATOM     13  C   UNL     1      -2.671  -2.562   1.867  0.00  0.00    +0.005 A 
ATOM     14  C   UNL     1      -1.909  -3.515   1.218  0.00  0.00    +0.028 A 
ATOM     15  C   UNL     1      -0.865  -4.139   1.886  0.00  0.00    +0.067 A 
ATOM     16  C   UNL     1      -0.589  -3.804   3.205  0.00  0.00    +0.028 A 
ATOM     17  C   UNL     1      -1.351  -2.848   3.847  0.00  0.00    +0.005 A 
ENDBRANCH   5  15
BRANCH   7  18
ATOM     18  C   UNL     1       2.972  -6.904   0.393  0.00  0.00    -0.013 A 
ATOM     19  C   UNL     1       3.986  -6.124  -0.160  0.00  0.00    +0.008 A 
ATOM     20  C   UNL     1       5.253  -6.650  -0.311  0.00  0.00    +0.001 A 
ATOM     21  C   UNL     1       5.517  -7.949   0.084  0.00  0.00    +0.000 A 
ATOM     22  C   UNL     1       4.514  -8.728   0.633  0.00  0.00    +0.001 A 
ATOM     23  C   UNL     1       3.245  -8.211   0.794  0.00  0.00    +0.008 A 
ENDBRANCH   7  18
ENDBRANCH   1   6
BRANCH   2  24
ATOM     24  C   UNL     1       2.957  -2.427   3.109  0.00  0.00    +0.205 C 
BRANCH  24  25
ATOM     25  N   UNL     1       2.636  -1.001   3.005  0.00  0.00    -0.274 N 
ATOM     26  C   UNL     1       3.150  -0.266   1.999  0.00  0.00    +0.303 C 
ATOM     27  O   UNL     1       3.797  -0.804   1.122  0.00  0.00    -0.253 OA
ATOM     28  N   UNL     1       2.946   1.066   1.966  0.00  0.00    -0.294 N 
ATOM     29  H   UNL     1       2.481   1.504   2.696  0.00  0.00    +0.151 HD
BRANCH  28  30
ATOM     30  C   UNL     1       3.426   1.852   0.827  0.00  0.00    +0.037 C 
ATOM     31  C   UNL     1       4.945   1.708   0.713  0.00  0.00    +0.029 C 
ATOM     32  C   UNL     1       5.447   2.529  -0.477  0.00  0.00    -0.008 C 
ATOM     33  C   UNL     1       5.090   4.002  -0.267  0.00  0.00    +0.007 C 
ATOM     34  C   UNL     1       3.571   4.146  -0.153  0.00  0.00    -0.008 C 
ATOM     35  C   UNL     1       3.069   3.325   1.037  0.00  0.00    +0.029 C 
ATOM     36  C   UNL     1       2.912   3.639  -1.437  0.00  0.00    +0.007 C 
ATOM     37  C   UNL     1       3.270   2.166  -1.647  0.00  0.00    -0.008 C 
ATOM     38  C   UNL     1       4.789   2.022  -1.761  0.00  0.00    +0.007 C 
ATOM     39  C   UNL     1       2.768   1.345  -0.457  0.00  0.00    +0.029 C 
ENDBRANCH  28  30
BRANCH  25  40
ATOM     40  C   UNL     1       1.755  -0.375   3.995  0.00  0.00    +0.072 C 
ATOM     41  C   UNL     1       2.525   0.713   4.746  0.00  0.00    +0.028 C 
ATOM     42  C   UNL     1       0.553   0.250   3.285  0.00  0.00    +0.028 C 
ENDBRANCH  25  40
ENDBRANCH  24  25
ENDBRANCH   2  24
TORSDOF 7
