REMARK  Name = ZINC14253027
REMARK  9 active torsions:
REMARK  status: ('A' for Active; 'I' for Inactive)
REMARK    1  A    between atoms: C_1  and  C_2
REMARK    2  A    between atoms: C_2  and  C_4
REMARK    3  A    between atoms: C_2  and  N_14
REMARK    4  A    between atoms: C_8  and  S_10
REMARK    5  A    between atoms: S_10  and  N_13
REMARK    6  A    between atoms: C_15  and  C_17
REMARK    7  A    between atoms: C_17  and  S_18
REMARK    8  A    between atoms: S_18  and  C_19
REMARK    9  A    between atoms: C_19  and  C_20
REMARK                            x       y       z     vdW  Elec       q    Type
REMARK                         _______ _______ _______ _____ _____    ______ ____
ROOT
ATOM      1  N   UNL     1       1.143   1.898   0.001  0.00  0.00    -0.308 N 
ATOM      2  C   UNL     1      -0.014   1.209   0.009  0.00  0.00    +0.223 C 
ATOM      3  O   UNL     1       0.002  -0.004   0.002  0.00  0.00    -0.275 OA
ATOM      4  H   UNL     1       1.130   2.868   0.007  0.00  0.00    +0.149 HD
ENDROOT
BRANCH   1   6
ATOM      5  C   UNL     1       2.819   0.817   1.417  0.00  0.00    +0.033 C 
ATOM      6  C   UNL     1       2.422   1.183  -0.015  0.00  0.00    +0.100 C 
BRANCH   6   7
ATOM      7  C   UNL     1       3.483   2.065  -0.621  0.00  0.00    -0.026 A 
ATOM      8  C   UNL     1       3.511   3.415  -0.325  0.00  0.00    +0.005 A 
ATOM      9  C   UNL     1       4.488   4.223  -0.877  0.00  0.00    +0.002 A 
ATOM     10  C   UNL     1       5.430   3.683  -1.733  0.00  0.00    +0.028 A 
ATOM     11  C   UNL     1       5.398   2.334  -2.032  0.00  0.00    +0.105 A 
ATOM     12  C   UNL     1       4.425   1.525  -1.476  0.00  0.00    +0.034 A 
BRANCH  11  13
ATOM     13  S   UNL     1       6.599   1.645  -3.123  0.00  0.00    +0.056 S 
ATOM     14  O   UNL     1       7.728   2.506  -3.079  0.00  0.00    -0.153 OA
ATOM     15  O   UNL     1       6.683   0.261  -2.813  0.00  0.00    -0.153 OA
BRANCH  13  16
ATOM     16  N   UNL     1       5.983   1.750  -4.657  0.00  0.00    -0.204 NA
ATOM     17  H   UNL     1       5.107   2.141  -4.803  0.00  0.00    +0.144 HD
ATOM     18  H   UNL     1       6.498   1.421  -5.410  0.00  0.00    +0.144 HD
ENDBRANCH  13  16
ENDBRANCH  11  13
ENDBRANCH   6   7
ENDBRANCH   1   6
BRANCH   2  19
ATOM     19  C   UNL     1      -1.330   1.944   0.019  0.00  0.00    +0.165 C 
BRANCH  19  20
ATOM     20  S   UNL     1      -2.692   0.747   0.019  0.00  0.00    -0.144 S 
BRANCH  20  21
ATOM     21  C   UNL     1      -4.184   1.779   0.032  0.00  0.00    +0.143 C 
BRANCH  21  22
ATOM     22  C   UNL     1      -5.405   0.897   0.033  0.00  0.00    +0.121 A 
ATOM     23  N   UNL     1      -6.638   1.466   0.047  0.00  0.00    -0.310 N 
ATOM     24  H   UNL     1      -6.715   2.433   0.056  0.00  0.00    +0.170 HD
ATOM     25  C   UNL     1      -7.756   0.715   0.044  0.00  0.00    +0.260 A 
ATOM     26  O   UNL     1      -8.856   1.240   0.052  0.00  0.00    -0.267 OA
ATOM     27  C   UNL     1      -7.628  -0.712   0.036  0.00  0.00    +0.075 A 
ATOM     28  C   UNL     1      -8.700  -1.718   0.037  0.00  0.00    -0.023 A 
ATOM     29  C   UNL     1      -8.322  -3.008   0.026  0.00  0.00    -0.004 A 
ATOM     30  S   UNL     1      -6.544  -2.966   0.016  0.00  0.00    -0.073 S 
ATOM     31  C   UNL     1      -6.317  -1.207   0.026  0.00  0.00    +0.116 A 
ATOM     32  N   UNL     1      -5.258  -0.401   0.025  0.00  0.00    -0.226 NA
ATOM     33  C   UNL     1      -9.500  -3.945   0.024  0.00  0.00    +0.043 C 
ATOM     34  C   UNL     1     -10.695  -3.064  -0.403  0.00  0.00    +0.010 C 
ATOM     35  C   UNL     1     -10.230  -1.665   0.049  0.00  0.00    +0.037 C 
ENDBRANCH  21  22
ENDBRANCH  20  21
ENDBRANCH  19  20
ENDBRANCH   2  19
TORSDOF 8
