REMARK  Name = ZINC39469744
REMARK  3 active torsions:
REMARK  status: ('A' for Active; 'I' for Inactive)
REMARK    1  A    between atoms: C_4  and  O_7
REMARK    2  A    between atoms: O_7  and  S_8
REMARK    3  A    between atoms: S_8  and  P_11
REMARK                            x       y       z     vdW  Elec       q    Type
REMARK                         _______ _______ _______ _____ _____    ______ ____
ROOT
ATOM      1  P   UNL     1       3.000  -2.544   2.135  0.00  0.00    +0.431 P 
ATOM      2  O   UNL     1       1.582  -2.144   2.276  0.00  0.00    -0.246 OA
ATOM      3  N   UNL     1       3.611  -3.019   3.593  0.00  0.00    -0.271 NA
ATOM      4  N   UNL     1       4.742  -3.808   3.590  0.00  0.00    +0.398 N 
ATOM      5  C   UNL     1       4.989  -4.170   4.995  0.00  0.00    -0.046 C 
ATOM      6  C   UNL     1       6.231  -5.039   5.127  0.00  0.00    +0.006 C 
ATOM      7  C   UNL     1       7.447  -4.304   4.629  0.00  0.00    -0.003 C 
ATOM      8  C   UNL     1       8.518  -4.995   4.241  0.00  0.00    +0.055 C 
ATOM      9  C   UNL     1       8.497  -6.468   4.318  0.00  0.00    +0.055 C 
ATOM     10  C   UNL     1       7.334  -7.112   4.350  0.00  0.00    -0.002 C 
ATOM     11  C   UNL     1       6.052  -6.317   4.301  0.00  0.00    +0.017 C 
ATOM     12  C   UNL     1       5.755  -5.924   2.854  0.00  0.00    -0.003 C 
ATOM     13  C   UNL     1       4.525  -5.012   2.785  0.00  0.00    -0.020 C 
ATOM     14  C   UNL     1       4.302  -4.667   1.306  0.00  0.00    +0.158 C 
ATOM     15  O   UNL     1       3.124  -3.852   1.175  0.00  0.00    -0.301 OA
ATOM     16 CL   UNL     1       9.987  -7.357   4.367  0.00  0.00    -0.082 Cl
ATOM     17 CL   UNL     1       9.925  -4.169   3.650  0.00  0.00    -0.082 Cl
ATOM     18  H   UNL     1       3.189  -2.751   4.424  0.00  0.00    +0.113 HD
ATOM     19  H   UNL     1       5.521  -3.286   3.218  0.00  0.00    -0.055 HD
ENDROOT
BRANCH   1  20
ATOM     20  S   UNL     1       4.140  -0.941   1.346  0.00  0.00    +0.209 S 
ATOM     21  O   UNL     1       5.458  -1.436   1.154  0.00  0.00    -0.126 OA
ATOM     22  O   UNL     1       3.863   0.192   2.158  0.00  0.00    -0.126 OA
BRANCH  20  23
ATOM     23  O   UNL     1       3.586  -0.632  -0.037  0.00  0.00    -0.339 OA
BRANCH  23  27
ATOM     24  C   UNL     1      -0.017   1.378   0.010  0.00  0.00    +0.000 A 
ATOM     25  C   UNL     1       1.170   2.088   0.002  0.00  0.00    +0.004 A 
ATOM     26  C   UNL     1       2.377   1.417  -0.013  0.00  0.00    +0.048 A 
ATOM     27  C   UNL     1       2.399   0.030  -0.021  0.00  0.00    +0.157 A 
ATOM     28  C   UNL     1       1.207  -0.680  -0.013  0.00  0.00    +0.048 A 
ATOM     29  C   UNL     1       0.002  -0.004   0.002  0.00  0.00    +0.004 A 
ENDBRANCH  23  27
ENDBRANCH  20  23
ENDBRANCH   1  20
TORSDOF 3
