REMARK  Name = ZINC67179399
REMARK  7 active torsions:
REMARK  status: ('A' for Active; 'I' for Inactive)
REMARK    1  A    between atoms: C_1  and  C_2
REMARK    2  A    between atoms: C_2  and  C_3
REMARK    3  A    between atoms: C_3  and  N_4
REMARK    4  A    between atoms: C_10  and  N_13
REMARK    5  A    between atoms: C_14  and  C_16
REMARK    6  A    between atoms: C_16  and  N_17
REMARK    7  A    between atoms: C_18  and  C_20
REMARK                            x       y       z     vdW  Elec       q    Type
REMARK                         _______ _______ _______ _____ _____    ______ ____
ROOT
ATOM      1  N   UNL     1       2.662  -4.836   4.070  0.00  0.00    -0.284 N 
ATOM      2  C   UNL     1       3.069  -5.822   4.894  0.00  0.00    +0.234 C 
ATOM      3  O   UNL     1       2.341  -6.767   5.113  0.00  0.00    -0.274 OA
ATOM      4  H   UNL     1       3.273  -4.121   3.831  0.00  0.00    +0.155 HD
ENDROOT
BRANCH   1  11
ATOM      5  N   UNL     1       1.191  -3.324   0.150  0.00  0.00    +0.385 N 
ATOM      6  C   UNL     1      -0.224  -3.413   0.576  0.00  0.00    -0.042 C 
ATOM      7  C   UNL     1      -0.214  -4.196   1.869  0.00  0.00    -0.061 A 
ATOM      8  C   UNL     1      -1.218  -4.854   2.554  0.00  0.00    +0.002 A 
ATOM      9  C   UNL     1      -0.938  -5.507   3.740  0.00  0.00    +0.002 A 
ATOM     10  C   UNL     1       0.348  -5.503   4.246  0.00  0.00    +0.023 A 
ATOM     11  C   UNL     1       1.359  -4.842   3.561  0.00  0.00    +0.035 A 
ATOM     12  C   UNL     1       1.075  -4.188   2.370  0.00  0.00    -0.041 A 
ATOM     13  C   UNL     1       1.948  -3.400   1.421  0.00  0.00    -0.040 C 
ATOM     14  H   UNL     1       1.431  -4.097  -0.452  0.00  0.00    -0.081 HD
BRANCH   5  15
ATOM     15  C   UNL     1       1.447  -2.045  -0.526  0.00  0.00    -0.078 C 
BRANCH  15  17
ATOM     16  C   UNL     1       1.020  -0.712  -2.595  0.00  0.00    +0.002 C 
ATOM     17  C   UNL     1       0.754  -2.043  -1.890  0.00  0.00    -0.022 C 
ENDBRANCH  15  17
ENDBRANCH   5  15
ENDBRANCH   1  11
BRANCH   2  18
ATOM     18  C   UNL     1       4.428  -5.751   5.541  0.00  0.00    +0.200 C 
BRANCH  18  19
ATOM     19  N   UNL     1       4.630  -6.933   6.383  0.00  0.00    -0.302 N 
ATOM     20  C   UNL     1       5.782  -7.086   7.065  0.00  0.00    +0.251 C 
ATOM     21  O   UNL     1       6.655  -6.241   6.982  0.00  0.00    -0.270 OA
ATOM     22  H   UNL     1       3.935  -7.606   6.449  0.00  0.00    +0.150 HD
BRANCH  20  23
ATOM     23  C   UNL     1       5.985  -8.268   7.907  0.00  0.00    +0.074 A 
ATOM     24  C   UNL     1       7.077  -8.610   8.683  0.00  0.00    +0.024 A 
ATOM     25  C   UNL     1       6.997  -9.802   9.386  0.00  0.00    -0.036 A 
ATOM     26  C   UNL     1       5.848 -10.523   9.242  0.00  0.00    -0.006 A 
ATOM     27  S   UNL     1       4.884  -9.639   8.203  0.00  0.00    -0.088 S 
ATOM     28  C   UNL     1       5.524 -11.836   9.892  0.00  0.00    +0.043 C 
ATOM     29  C   UNL     1       6.823 -12.436  10.447  0.00  0.00    +0.005 C 
ATOM     30  C   UNL     1       7.566 -11.356  11.240  0.00  0.00    +0.005 C 
ATOM     31  C   UNL     1       8.126 -10.303  10.284  0.00  0.00    +0.036 C 
ENDBRANCH  20  23
ENDBRANCH  18  19
ENDBRANCH   2  18
TORSDOF 6
