REMARK  Name = ZINC02856945
REMARK  9 active torsions:
REMARK  status: ('A' for Active; 'I' for Inactive)
REMARK    1  A    between atoms: C_1  and  C_2
REMARK    2  A    between atoms: C_10  and  C_11
REMARK    3  A    between atoms: N_13  and  N_14
REMARK    4  A    between atoms: N_14  and  C_15
REMARK    5  A    between atoms: C_15  and  N_17
REMARK    6  A    between atoms: N_17  and  C_18
REMARK    7  A    between atoms: C_19  and  C_29
REMARK    8  A    between atoms: C_29  and  O_31
REMARK    9  A    between atoms: O_31  and  C_32
REMARK                            x       y       z     vdW  Elec       q    Type
REMARK                         _______ _______ _______ _____ _____    ______ ____
ROOT
ATOM      1  C   UNL     1      -3.934   0.629   4.587  0.00  0.00    +0.151 C 
ATOM      2  S   UNL     1      -3.624  -0.737   3.603  0.00  0.00    -0.017 S 
ENDROOT
BRANCH   1   3
ATOM      3  N   UNL     1      -4.825   0.546   5.595  0.00  0.00    -0.245 N 
ATOM      4  H   UNL     1      -5.290  -0.289   5.763  0.00  0.00    +0.172 HD
BRANCH   3   7
ATOM      5  C   UNL     1      -5.970   1.580   7.408  0.00  0.00    +0.296 C 
ATOM      6  O   UNL     1      -6.554   0.534   7.618  0.00  0.00    -0.265 OA
ATOM      7  N   UNL     1      -5.079   1.664   6.400  0.00  0.00    -0.229 N 
ATOM      8  H   UNL     1      -4.613   2.498   6.232  0.00  0.00    +0.173 HD
BRANCH   5  18
ATOM      9  C   UNL     1      -7.979   1.655   9.780  0.00  0.00    +0.048 C 
ATOM     10  C   UNL     1      -7.113   2.787   9.289  0.00  0.00    +0.008 A 
ATOM     11  C   UNL     1      -7.045   4.142   9.833  0.00  0.00    +0.024 A 
ATOM     12  C   UNL     1      -7.686   4.803  10.884  0.00  0.00    +0.012 A 
ATOM     13  C   UNL     1      -7.395   6.113  11.138  0.00  0.00    +0.001 A 
ATOM     14  C   UNL     1      -6.468   6.792  10.358  0.00  0.00    +0.004 A 
ATOM     15  C   UNL     1      -5.826   6.159   9.316  0.00  0.00    +0.047 A 
ATOM     16  C   UNL     1      -6.105   4.825   9.039  0.00  0.00    +0.136 A 
ATOM     17  O   UNL     1      -5.650   3.960   8.112  0.00  0.00    -0.450 OA
ATOM     18  C   UNL     1      -6.236   2.753   8.253  0.00  0.00    +0.195 A 
ENDBRANCH   5  18
ENDBRANCH   3   7
ENDBRANCH   1   3
BRANCH   1  19
ATOM     19  N   UNL     1      -3.287   1.789   4.354  0.00  0.00    -0.290 N 
ATOM     20  H   UNL     1      -3.463   2.563   4.912  0.00  0.00    +0.154 HD
BRANCH  19  21
ATOM     21  C   UNL     1      -2.371   1.875   3.318  0.00  0.00    +0.086 A 
ATOM     22  C   UNL     1      -1.620   2.964   2.922  0.00  0.00    +0.091 A 
ATOM     23  C   UNL     1      -0.691   2.796   1.798  0.00  0.00    -0.021 A 
ATOM     24  C   UNL     1      -0.742   1.584   1.224  0.00  0.00    -0.004 A 
ATOM     25  S   UNL     1      -1.892   0.646   2.199  0.00  0.00    -0.077 S 
ATOM     26  C   UNL     1      -0.013   1.086   0.008  0.00  0.00    +0.043 C 
ATOM     27  C   UNL     1      -0.783   1.609  -1.217  0.00  0.00    +0.005 C 
ATOM     28  C   UNL     1      -0.934   3.129  -1.077  0.00  0.00    +0.000 C 
ATOM     29  C   UNL     1       0.477   3.675  -1.077  0.00  0.00    +0.000 C 
ATOM     30  C   UNL     1       1.164   3.617   0.277  0.00  0.00    +0.005 C 
ATOM     31  C   UNL     1       0.225   3.962   1.425  0.00  0.00    +0.037 C 
BRANCH  22  32
ATOM     32  C   UNL     1      -1.742   4.250   3.610  0.00  0.00    +0.342 C 
ATOM     33  O   UNL     1      -2.553   5.072   3.225  0.00  0.00    -0.245 OA
BRANCH  32  34
ATOM     34  O   UNL     1      -0.956   4.525   4.671  0.00  0.00    -0.464 OA
ATOM     35  C   UNL     1      -1.132   5.820   5.304  0.00  0.00    +0.280 C 
ENDBRANCH  32  34
ENDBRANCH  22  32
ENDBRANCH  19  21
ENDBRANCH   1  19
TORSDOF 7
