REMARK  Name = ZINC35397207
REMARK  9 active torsions:
REMARK  status: ('A' for Active; 'I' for Inactive)
REMARK    1  A    between atoms: C_1  and  C_2
REMARK    2  A    between atoms: C_2  and  N_3
REMARK    3  A    between atoms: C_10  and  C_26
REMARK    4  A    between atoms: C_11  and  S_13
REMARK    5  A    between atoms: S_13  and  C_14
REMARK    6  A    between atoms: C_14  and  C_15
REMARK    7  A    between atoms: N_17  and  C_18
REMARK    8  A    between atoms: C_21  and  C_25
REMARK    9  A    between atoms: C_23  and  C_24
REMARK                            x       y       z     vdW  Elec       q    Type
REMARK                         _______ _______ _______ _____ _____    ______ ____
ROOT
ATOM      1  N   UNL     1      -1.421  -0.599  -0.112  0.00  0.00    +0.380 N 
ATOM      2  C   UNL     1      -2.055  -0.184   1.146  0.00  0.00    -0.075 C 
ATOM      3  C   UNL     1      -3.518  -0.635   1.156  0.00  0.00    +0.035 C 
ATOM      4  C   UNL     1      -3.576  -2.157   1.020  0.00  0.00    +0.150 C 
ATOM      5  C   UNL     1      -2.840  -2.592  -0.247  0.00  0.00    +0.035 C 
ATOM      6  C   UNL     1      -1.404  -2.064  -0.203  0.00  0.00    -0.075 C 
ATOM      7  N   UNL     1      -2.973  -2.792   2.195  0.00  0.00    -0.251 NA
ATOM      8  C   UNL     1      -3.895  -3.515   2.759  0.00  0.00    +0.100 C 
ATOM      9  C   UNL     1      -5.155  -3.398   1.988  0.00  0.00    +0.120 C 
ATOM     10  N   UNL     1      -4.971  -2.606   0.973  0.00  0.00    -0.246 NA
ATOM     11  H   UNL     1      -1.942  -0.221  -0.889  0.00  0.00    -0.082 HD
ENDROOT
BRANCH   8  12
ATOM     12  C   UNL     1      -3.713  -4.330   3.981  0.00  0.00    +0.003 A 
ATOM     13  C   UNL     1      -4.529  -5.438   4.212  0.00  0.00    +0.011 A 
ATOM     14  C   UNL     1      -4.354  -6.194   5.352  0.00  0.00    +0.016 A 
ATOM     15  C   UNL     1      -3.372  -5.855   6.268  0.00  0.00    +0.018 A 
ATOM     16  C   UNL     1      -2.560  -4.756   6.044  0.00  0.00    +0.016 A 
ATOM     17  C   UNL     1      -2.721  -3.996   4.905  0.00  0.00    +0.011 A 
ATOM     18 BR   UNL     1      -3.140  -6.896   7.829  0.00  0.00    -0.050 Br
ENDBRANCH   8  12
BRANCH   1  20
ATOM     19  C   UNL     1      -0.064   1.438  -0.184  0.00  0.00    -0.017 C 
ATOM     20  C   UNL     1      -0.043  -0.092  -0.154  0.00  0.00    -0.082 C 
ENDBRANCH   1  20
BRANCH   9  21
ATOM     21  S   UNL     1      -6.669  -4.208   2.385  0.00  0.00    -0.095 S 
BRANCH  21  22
ATOM     22  C   UNL     1      -7.810  -3.668   1.082  0.00  0.00    +0.172 C 
BRANCH  22  23
ATOM     23  C   UNL     1      -9.161  -4.297   1.306  0.00  0.00    +0.227 C 
ATOM     24  O   UNL     1      -9.337  -5.036   2.251  0.00  0.00    -0.275 OA
ATOM     25  N   UNL     1     -10.174  -4.038   0.456  0.00  0.00    -0.285 N 
ATOM     26  H   UNL     1     -10.019  -3.493  -0.332  0.00  0.00    +0.155 HD
BRANCH  25  27
ATOM     27  C   UNL     1     -11.450  -4.553   0.709  0.00  0.00    +0.036 A 
ATOM     28  C   UNL     1     -11.596  -5.707   1.468  0.00  0.00    +0.024 A 
ATOM     29  C   UNL     1     -12.856  -6.214   1.717  0.00  0.00    +0.005 A 
ATOM     30  C   UNL     1     -13.973  -5.574   1.210  0.00  0.00    -0.050 A 
ATOM     31  C   UNL     1     -13.831  -4.425   0.453  0.00  0.00    +0.008 A 
ATOM     32  C   UNL     1     -12.573  -3.910   0.207  0.00  0.00    -0.029 A 
ATOM     33  C   UNL     1     -12.420  -2.654  -0.612  0.00  0.00    +0.045 C 
ATOM     34  C   UNL     1     -15.346  -6.129   1.483  0.00  0.00    +0.044 C 
ENDBRANCH  25  27
ENDBRANCH  22  23
ENDBRANCH  21  22
ENDBRANCH   9  21
TORSDOF 6
