REMARK  Name = ZINC67619160
REMARK  13 active torsions:
REMARK  status: ('A' for Active; 'I' for Inactive)
REMARK    1  A    between atoms: C_1  and  N_2
REMARK    2  A    between atoms: N_2  and  C_3
REMARK    3  A    between atoms: N_2  and  C_4
REMARK    4  A    between atoms: C_4  and  C_6
REMARK    5  A    between atoms: C_4  and  C_23
REMARK    6  A    between atoms: C_6  and  N_7
REMARK    7  A    between atoms: N_10  and  C_11
REMARK    8  A    between atoms: C_11  and  C_12
REMARK    9  A    between atoms: C_15  and  N_18
REMARK   10  A    between atoms: N_18  and  C_19
REMARK   11  A    between atoms: C_19  and  C_20
REMARK   12  A    between atoms: C_20  and  O_21
REMARK   13  A    between atoms: O_21  and  C_22
REMARK                            x       y       z     vdW  Elec       q    Type
REMARK                         _______ _______ _______ _____ _____    ______ ____
ROOT
ATOM      1  N   UNL     1       1.876   1.579  -0.913  0.00  0.00    -0.301 N 
ATOM      2  C   UNL     1       2.994   2.327  -0.816  0.00  0.00    +0.300 C 
ATOM      3  O   UNL     1       4.084   1.815  -0.983  0.00  0.00    -0.253 OA
ATOM      4  N   UNL     1       2.902   3.642  -0.535  0.00  0.00    -0.295 N 
ATOM      5  H   UNL     1       1.007   1.988  -0.779  0.00  0.00    +0.150 HD
ATOM      6  H   UNL     1       2.033   4.050  -0.403  0.00  0.00    +0.151 HD
ENDROOT
BRANCH   1   7
ATOM      7  C   UNL     1       1.975   0.150  -1.218  0.00  0.00    +0.095 C 
BRANCH   7   8
ATOM      8  C   UNL     1       0.583  -0.482  -1.159  0.00  0.00    -0.020 C 
BRANCH   8   9
ATOM      9  C   UNL     1      -0.284   0.112  -2.240  0.00  0.00    -0.052 A 
ATOM     10  C   UNL     1      -1.191   1.111  -1.941  0.00  0.00    +0.009 A 
ATOM     11  C   UNL     1      -1.955   1.624  -2.936  0.00  0.00    +0.045 A 
ATOM     12  S   UNL     1      -1.400   0.685  -4.349  0.00  0.00    -0.105 S 
ATOM     13  C   UNL     1      -0.182  -0.323  -3.520  0.00  0.00    +0.047 A 
ENDBRANCH   8   9
BRANCH   8  15
ATOM     14  C   UNL     1       1.549  -2.510  -0.316  0.00  0.00    -0.096 C 
ATOM     15  N   UNL     1       0.695  -1.933  -1.363  0.00  0.00    +0.382 N 
ATOM     16  C   UNL     1      -0.641  -2.541  -1.296  0.00  0.00    -0.096 C 
ATOM     17  H   UNL     1       1.102  -2.115  -2.268  0.00  0.00    -0.082 HD
ENDBRANCH   8  15
ENDBRANCH   7   8
ENDBRANCH   1   7
BRANCH   4  18
ATOM     18  C   UNL     1       4.117   4.454  -0.431  0.00  0.00    +0.141 C 
BRANCH  18  19
ATOM     19  C   UNL     1       3.742   5.879  -0.112  0.00  0.00    -0.030 A 
ATOM     20  C   UNL     1       3.502   6.775  -1.137  0.00  0.00    +0.007 A 
ATOM     21  C   UNL     1       3.158   8.081  -0.848  0.00  0.00    +0.023 A 
ATOM     22  C   UNL     1       3.055   8.494   0.475  0.00  0.00    +0.027 A 
ATOM     23  C   UNL     1       3.297   7.591   1.502  0.00  0.00    +0.023 A 
ATOM     24  C   UNL     1       3.635   6.285   1.206  0.00  0.00    +0.007 A 
BRANCH  22  25
ATOM     25  N   UNL     1       2.708   9.814   0.771  0.00  0.00    -0.342 N 
ATOM     26  H   UNL     1       2.539  10.444   0.052  0.00  0.00    +0.146 HD
BRANCH  25  27
ATOM     27  C   UNL     1       2.599  10.248   2.166  0.00  0.00    +0.129 C 
BRANCH  27  28
ATOM     28  C   UNL     1       2.210  11.727   2.211  0.00  0.00    +0.178 C 
BRANCH  28  29
ATOM     29  O   UNL     1       0.901  11.892   1.661  0.00  0.00    -0.381 OA
ATOM     30  C   UNL     1       0.439  13.244   1.656  0.00  0.00    +0.194 C 
ENDBRANCH  28  29
ENDBRANCH  27  28
ENDBRANCH  25  27
ENDBRANCH  22  25
ENDBRANCH  18  19
ENDBRANCH   4  18
TORSDOF 10
