REMARK  Name = ZINC27989093
REMARK  10 active torsions:
REMARK  status: ('A' for Active; 'I' for Inactive)
REMARK    1  A    between atoms: C_1  and  S_2
REMARK    2  A    between atoms: S_2  and  N_5
REMARK    3  A    between atoms: N_5  and  C_6
REMARK    4  A    between atoms: C_7  and  C_29
REMARK    5  A    between atoms: N_10  and  C_13
REMARK    6  A    between atoms: C_13  and  C_14
REMARK    7  A    between atoms: N_16  and  C_17
REMARK    8  A    between atoms: C_23  and  O_25
REMARK    9  A    between atoms: C_29  and  C_30
REMARK   10  A    between atoms: C_30  and  C_31
REMARK                            x       y       z     vdW  Elec       q    Type
REMARK                         _______ _______ _______ _____ _____    ______ ____
ROOT
ATOM      1  C   UNL     1      -2.621   2.324  -3.090  0.00  0.00    +0.115 A 
ATOM      2  C   UNL     1      -2.538   1.082  -3.657  0.00  0.00    -0.018 A 
ATOM      3  C   UNL     1      -1.328   0.376  -3.587  0.00  0.00    +0.023 A 
ATOM      4  C   UNL     1      -0.257   0.928  -2.975  0.00  0.00    +0.090 A 
ATOM      5  N   UNL     1      -0.335   2.166  -2.416  0.00  0.00    -0.305 N 
ATOM      6  C   UNL     1      -1.482   2.870  -2.458  0.00  0.00    +0.274 A 
ATOM      7  O   UNL     1      -1.537   3.980  -1.952  0.00  0.00    -0.266 OA
ENDROOT
BRANCH   1   8
ATOM      8  N   UNL     1      -3.818   3.048  -3.140  0.00  0.00    -0.215 N 
ATOM      9  H   UNL     1      -4.680   2.648  -3.694  0.00  0.00    +0.173 HD
BRANCH   8  11
ATOM     10  C   UNL     1      -2.820   5.610  -3.272  0.00  0.00    +0.218 C 
ATOM     11  S   UNL     1      -3.938   4.507  -2.365  0.00  0.00    +0.040 S 
ATOM     12  O   UNL     1      -5.287   4.910  -2.557  0.00  0.00    -0.155 OA
ATOM     13  O   UNL     1      -3.433   4.265  -1.058  0.00  0.00    -0.155 OA
ENDBRANCH   8  11
ENDBRANCH   1   8
BRANCH   5  14
ATOM     14  C   UNL     1       0.843   2.739  -1.759  0.00  0.00    +0.220 C 
BRANCH  14  15
ATOM     15  C   UNL     1       1.651   3.517  -2.766  0.00  0.00    +0.233 C 
ATOM     16  O   UNL     1       1.279   3.587  -3.918  0.00  0.00    -0.274 OA
ATOM     17  N   UNL     1       2.786   4.137  -2.385  0.00  0.00    -0.307 N 
ATOM     18  H   UNL     1       3.123   4.074  -1.340  0.00  0.00    +0.149 HD
BRANCH  17  19
ATOM     19  C   UNL     1       3.571   4.893  -3.364  0.00  0.00    +0.120 C 
ATOM     20  C   UNL     1       3.010   6.312  -3.481  0.00  0.00    +0.028 C 
ATOM     21  C   UNL     1       3.054   6.995  -2.112  0.00  0.00    +0.021 C 
ATOM     22  C   UNL     1       4.508   7.088  -1.639  0.00  0.00    +0.110 C 
ATOM     23  N   UNL     1       5.100   5.743  -1.662  0.00  0.00    -0.278 N 
ATOM     24  C   UNL     1       5.030   4.962  -2.905  0.00  0.00    +0.225 C 
ATOM     25  C   UNL     1       5.706   5.225  -0.542  0.00  0.00    +0.153 C 
ATOM     26  N   UNL     1       6.322   4.078  -0.607  0.00  0.00    -0.375 N 
ATOM     27  N   UNL     1       5.662   5.916   0.645  0.00  0.00    -0.333 N 
ATOM     28  H   UNL     1       6.808   3.664   0.290  0.00  0.00    +0.158 HD
ATOM     29  H   UNL     1       6.146   5.502   1.541  0.00  0.00    +0.145 HD
ATOM     30  H   UNL     1       5.141   6.884   0.699  0.00  0.00    +0.145 HD
ATOM     31  H   UNL     1       6.358   3.525  -1.557  0.00  0.00    +0.158 HD
BRANCH  24  32
ATOM     32  O   UNL     1       5.521   3.641  -2.668  0.00  0.00    -0.372 OA
ATOM     33  H   UNL     1       6.557   3.491  -2.331  0.00  0.00    +0.212 HD
ENDBRANCH  24  32
ENDBRANCH  17  19
ENDBRANCH  14  15
ENDBRANCH   5  14
BRANCH   2  34
ATOM     34  C   UNL     1      -3.736   0.477  -4.343  0.00  0.00    +0.042 C 
BRANCH  34  35
ATOM     35  C   UNL     1      -3.667   0.771  -5.842  0.00  0.00    +0.040 C 
BRANCH  35  36
ATOM     36  C   UNL     1      -4.922   0.270  -6.510  0.00  0.00    -0.047 A 
ATOM     37  C   UNL     1      -5.011  -1.048  -6.916  0.00  0.00    +0.003 A 
ATOM     38  C   UNL     1      -6.164  -1.508  -7.524  0.00  0.00    +0.000 A 
ATOM     39  C   UNL     1      -7.224  -0.647  -7.736  0.00  0.00    +0.000 A 
ATOM     40  C   UNL     1      -7.134   0.672  -7.335  0.00  0.00    +0.000 A 
ATOM     41  C   UNL     1      -5.983   1.131  -6.722  0.00  0.00    +0.003 A 
ENDBRANCH  35  36
ENDBRANCH  34  35
ENDBRANCH   2  34
TORSDOF 9
