REMARK  Name = ZINC36500523
REMARK  10 active torsions:
REMARK  status: ('A' for Active; 'I' for Inactive)
REMARK    1  A    between atoms: C_4  and  O_35
REMARK    2  A    between atoms: C_5  and  C_7
REMARK    3  A    between atoms: C_7  and  C_9
REMARK    4  A    between atoms: C_7  and  N_18
REMARK    5  A    between atoms: N_11  and  C_12
REMARK    6  A    between atoms: N_18  and  C_19
REMARK    7  A    between atoms: C_19  and  C_20
REMARK    8  A    between atoms: C_25  and  C_27
REMARK    9  A    between atoms: C_28  and  O_34
REMARK   10  A    between atoms: C_32  and  O_33
REMARK                            x       y       z     vdW  Elec       q    Type
REMARK                         _______ _______ _______ _____ _____    ______ ____
ROOT
ATOM      1  C   UNL     1       1.133  -2.073  -0.050  0.00  0.00    +0.196 C 
ENDROOT
BRANCH   1   6
ATOM      2  C   UNL     1       0.222   1.508   0.725  0.00  0.00    +0.001 A 
ATOM      3  C   UNL     1       1.441   2.144   0.583  0.00  0.00    +0.004 A 
ATOM      4  C   UNL     1       2.564   1.418   0.235  0.00  0.00    +0.046 A 
ATOM      5  C   UNL     1       2.466   0.049   0.030  0.00  0.00    +0.122 A 
ATOM      6  C   UNL     1       1.242  -0.586   0.173  0.00  0.00    +0.023 A 
ATOM      7  C   UNL     1       0.122   0.145   0.521  0.00  0.00    +0.009 A 
BRANCH   5   8
ATOM      8  O   UNL     1       3.569  -0.668  -0.313  0.00  0.00    -0.506 OA
ATOM      9  H   UNL     1       4.062  -1.016   0.443  0.00  0.00    +0.292 HD
ENDBRANCH   5   8
ENDBRANCH   1   6
BRANCH   1  10
ATOM     10  C   UNL     1       1.074  -2.356  -1.529  0.00  0.00    +0.238 C 
ATOM     11  O   UNL     1       0.091  -2.881  -2.007  0.00  0.00    -0.273 OA
ATOM     12  N   UNL     1       2.113  -2.024  -2.320  0.00  0.00    -0.311 N 
ATOM     13  H   UNL     1       2.899  -1.603  -1.938  0.00  0.00    +0.149 HD
BRANCH  12  14
ATOM     14  C   UNL     1       2.056  -2.299  -3.758  0.00  0.00    +0.073 C 
ATOM     15  C   UNL     1       2.505  -3.738  -4.021  0.00  0.00    +0.022 C 
ATOM     16  C   UNL     1       2.445  -4.025  -5.522  0.00  0.00    +0.002 C 
ATOM     17  C   UNL     1       3.371  -3.058  -6.263  0.00  0.00    +0.000 C 
ATOM     18  C   UNL     1       2.922  -1.619  -6.001  0.00  0.00    +0.002 C 
ATOM     19  C   UNL     1       2.982  -1.332  -4.499  0.00  0.00    +0.022 C 
ENDBRANCH  12  14
ENDBRANCH   1  10
BRANCH   1  20
ATOM     20  N   UNL     1      -0.085  -2.575   0.592  0.00  0.00    -0.274 N 
ATOM     21  C   UNL     1      -1.294  -2.203   0.128  0.00  0.00    +0.255 C 
ATOM     22  O   UNL     1      -1.377  -1.515  -0.872  0.00  0.00    -0.270 OA
BRANCH  21  23
ATOM     23  C   UNL     1      -2.516  -2.628   0.832  0.00  0.00    +0.119 A 
ATOM     24  C   UNL     1      -3.059  -1.829   1.848  0.00  0.00    +0.133 A 
ATOM     25  C   UNL     1      -4.209  -2.238   2.503  0.00  0.00    +0.046 A 
ATOM     26  C   UNL     1      -4.821  -3.429   2.159  0.00  0.00    +0.007 A 
ATOM     27  C   UNL     1      -4.293  -4.224   1.158  0.00  0.00    +0.046 A 
ATOM     28  C   UNL     1      -3.147  -3.831   0.486  0.00  0.00    +0.133 A 
BRANCH  28  29
ATOM     29  O   UNL     1      -2.635  -4.610  -0.499  0.00  0.00    -0.506 OA
ATOM     30  H   UNL     1      -1.994  -5.265  -0.190  0.00  0.00    +0.292 HD
ENDBRANCH  28  29
BRANCH  24  31
ATOM     31  O   UNL     1      -2.461  -0.660   2.189  0.00  0.00    -0.506 OA
ATOM     32  H   UNL     1      -2.779   0.105   1.690  0.00  0.00    +0.292 HD
ENDBRANCH  24  31
ENDBRANCH  21  23
BRANCH  20  33
ATOM     33  C   UNL     1       0.012  -3.482   1.738  0.00  0.00    +0.183 C 
BRANCH  33  34
ATOM     34  C   UNL     1       0.205  -2.679   2.999  0.00  0.00    +0.122 A 
ATOM     35  C   UNL     1      -0.766  -2.312   3.855  0.00  0.00    +0.046 A 
ATOM     36  C   UNL     1      -0.144  -1.578   4.890  0.00  0.00    +0.041 A 
ATOM     37  C   UNL     1       1.170  -1.539   4.605  0.00  0.00    +0.195 A 
ATOM     38  O   UNL     1       1.377  -2.213   3.462  0.00  0.00    -0.466 OA
ENDBRANCH  33  34
ENDBRANCH  20  33
ENDBRANCH   1  20
TORSDOF 10
