REMARK  Name = ZINC41677683
REMARK  5 active torsions:
REMARK  status: ('A' for Active; 'I' for Inactive)
REMARK    1  A    between atoms: C_5  and  C_6
REMARK    2  A    between atoms: C_6  and  C_8
REMARK    3  A    between atoms: C_6  and  N_11
REMARK    4  A    between atoms: N_11  and  C_12
REMARK    5  A    between atoms: C_12  and  C_13
REMARK                            x       y       z     vdW  Elec       q    Type
REMARK                         _______ _______ _______ _____ _____    ______ ____
ROOT
ATOM      1  C   UNL     1      -1.156  -0.969   0.008  0.00  0.00    +0.053 C 
ENDROOT
BRANCH   1   6
ATOM      2  C   UNL     1      -0.016   1.351   0.009  0.00  0.00    +0.025 A 
ATOM      3  C   UNL     1       1.184   2.038   0.002  0.00  0.00    +0.025 A 
ATOM      4  C   UNL     1       2.343   1.335  -0.013  0.00  0.00    +0.060 A 
ATOM      5  S   UNL     1       1.753  -0.350  -0.017  0.00  0.00    -0.102 S 
ATOM      6  C   UNL     1       0.002  -0.004   0.002  0.00  0.00    -0.014 A 
ATOM      7 BR   UNL     1       1.208   3.929   0.011  0.00  0.00    -0.050 Br
ENDBRANCH   1   6
BRANCH   1   8
ATOM      8  C   UNL     1      -1.370  -1.487   1.407  0.00  0.00    +0.201 C 
ATOM      9  O   UNL     1      -1.286  -2.676   1.633  0.00  0.00    -0.277 OA
ATOM     10  N   UNL     1      -1.655  -0.630   2.407  0.00  0.00    -0.330 N 
ATOM     11  H   UNL     1      -1.722   0.320   2.227  0.00  0.00    +0.145 HD
ATOM     12  H   UNL     1      -1.793  -0.964   3.308  0.00  0.00    +0.145 HD
ENDBRANCH   1   8
BRANCH   1  13
ATOM     13  N   UNL     1      -0.862  -2.093  -0.891  0.00  0.00    +0.391 N 
ATOM     14  H   UNL     1      -0.637  -1.739  -1.809  0.00  0.00    -0.084 HD
ATOM     15  H   UNL     1      -0.077  -2.615  -0.531  0.00  0.00    -0.084 HD
BRANCH  13  16
ATOM     16  C   UNL     1      -2.036  -2.971  -0.978  0.00  0.00    -0.049 C 
BRANCH  16  17
ATOM     17  C   UNL     1      -1.730  -4.141  -1.914  0.00  0.00    +0.101 C 
ATOM     18  C   UNL     1      -2.969  -5.062  -2.047  0.00  0.00    +0.032 C 
ATOM     19  C   UNL     1      -2.700  -5.719  -3.429  0.00  0.00    +0.030 C 
ATOM     20  C   UNL     1      -2.009  -4.578  -4.206  0.00  0.00    +0.160 C 
ATOM     21  O   UNL     1      -1.472  -3.662  -3.244  0.00  0.00    -0.378 OA
ENDBRANCH  16  17
ENDBRANCH  13  16
ENDBRANCH   1  13
TORSDOF 5
