REMARK  Name = ZINC63818638
REMARK  9 active torsions:
REMARK  status: ('A' for Active; 'I' for Inactive)
REMARK    1  A    between atoms: C_1  and  O_2
REMARK    2  A    between atoms: O_2  and  C_3
REMARK    3  A    between atoms: C_9  and  C_12
REMARK    4  A    between atoms: C_12  and  C_13
REMARK    5  A    between atoms: C_13  and  N_14
REMARK    6  A    between atoms: C_15  and  C_17
REMARK    7  A    between atoms: C_20  and  C_24
REMARK    8  A    between atoms: C_24  and  C_25
REMARK    9  A    between atoms: N_27  and  C_28
REMARK                            x       y       z     vdW  Elec       q    Type
REMARK                         _______ _______ _______ _____ _____    ______ ____
ROOT
ATOM      1  N   UNL     1      -0.744  -6.783  -1.523  0.00  0.00    -0.312 N 
ATOM      2  C   UNL     1      -1.917  -7.386  -1.802  0.00  0.00    +0.259 C 
ATOM      3  O   UNL     1      -2.618  -6.964  -2.697  0.00  0.00    -0.271 OA
ATOM      4  H   UNL     1      -0.183  -7.120  -0.807  0.00  0.00    +0.149 HD
ENDROOT
BRANCH   2   5
ATOM      5  C   UNL     1      -2.357  -8.584  -1.001  0.00  0.00    +0.297 C 
ATOM      6  N   UNL     1      -1.506  -9.746  -1.327  0.00  0.00    -0.265 NA
ATOM      7  C   UNL     1      -2.413 -10.790  -1.859  0.00  0.00    +0.158 C 
ATOM      8  N   UNL     1      -3.741 -10.415  -1.305  0.00  0.00    -0.181 NA
ATOM      9  O   UNL     1      -3.710  -8.933  -1.346  0.00  0.00    -0.270 OA
ATOM     10  H   UNL     1      -0.801  -9.499  -2.005  0.00  0.00    +0.126 HD
ATOM     11  H   UNL     1      -3.845 -10.746  -0.357  0.00  0.00    +0.156 HD
BRANCH   7  12
ATOM     12  C   UNL     1      -1.991 -12.175  -1.362  0.00  0.00    +0.132 C 
BRANCH  12  13
ATOM     13  C   UNL     1      -2.851 -13.226  -2.014  0.00  0.00    +0.220 C 
ATOM     14  O   UNL     1      -3.717 -12.900  -2.798  0.00  0.00    -0.275 OA
ATOM     15  N   UNL     1      -2.659 -14.528  -1.725  0.00  0.00    -0.285 N 
ATOM     16  H   UNL     1      -1.924 -14.794  -1.150  0.00  0.00    +0.155 HD
BRANCH  15  17
ATOM     17  C   UNL     1      -3.519 -15.497  -2.254  0.00  0.00    +0.033 A 
ATOM     18  C   UNL     1      -3.850 -16.618  -1.504  0.00  0.00    +0.023 A 
ATOM     19  C   UNL     1      -4.699 -17.572  -2.029  0.00  0.00    +0.002 A 
ATOM     20  C   UNL     1      -5.220 -17.412  -3.300  0.00  0.00    +0.000 A 
ATOM     21  C   UNL     1      -4.892 -16.297  -4.050  0.00  0.00    +0.002 A 
ATOM     22  C   UNL     1      -4.048 -15.336  -3.528  0.00  0.00    +0.023 A 
ENDBRANCH  15  17
ENDBRANCH  12  13
ENDBRANCH   7  12
ENDBRANCH   2   5
BRANCH   1  23
ATOM     23  C   UNL     1      -0.316  -5.618  -2.301  0.00  0.00    +0.108 C 
BRANCH  23  24
ATOM     24  C   UNL     1       1.039  -5.129  -1.786  0.00  0.00    +0.052 C 
BRANCH  24  31
ATOM     25  C   UNL     1       0.622  -0.610  -1.080  0.00  0.00    +0.121 A 
ATOM     26  C   UNL     1       1.182   0.192  -2.090  0.00  0.00    +0.047 A 
ATOM     27  C   UNL     1       1.791  -0.328  -3.178  0.00  0.00    +0.029 A 
ATOM     28  C   UNL     1       1.885  -1.784  -3.333  0.00  0.00    +0.043 A 
ATOM     29  N   UNL     1       2.411  -2.532  -4.270  0.00  0.00    -0.380 N 
ATOM     30  C   UNL     1       2.215  -3.941  -3.907  0.00  0.00    +0.144 C 
ATOM     31  C   UNL     1       1.479  -3.931  -2.586  0.00  0.00    -0.040 C 
ATOM     32  C   UNL     1       1.296  -2.629  -2.269  0.00  0.00    +0.002 A 
ATOM     33  C   UNL     1       0.661  -1.963  -1.126  0.00  0.00    +0.055 A 
ATOM     34  H   UNL     1       2.854  -2.210  -5.070  0.00  0.00    +0.160 HD
BRANCH  25  36
ATOM     35  C   UNL     1       0.009   1.423  -0.010  0.00  0.00    +0.277 C 
ATOM     36  O   UNL     1       0.027  -0.006  -0.018  0.00  0.00    -0.495 OA
ENDBRANCH  25  36
ENDBRANCH  24  31
ENDBRANCH  23  24
ENDBRANCH   1  23
TORSDOF 8
