REMARK  Name = ZINC39500472
REMARK  8 active torsions:
REMARK  status: ('A' for Active; 'I' for Inactive)
REMARK    1  A    between atoms: C_1  and  C_2
REMARK    2  A    between atoms: C_2  and  C_3
REMARK    3  A    between atoms: C_2  and  N_4
REMARK    4  A    between atoms: N_4  and  C_5
REMARK    5  A    between atoms: N_4  and  C_6
REMARK    6  A    between atoms: C_6  and  C_7
REMARK    7  A    between atoms: N_12  and  C_13
REMARK    8  A    between atoms: C_13  and  C_14
REMARK                            x       y       z     vdW  Elec       q    Type
REMARK                         _______ _______ _______ _____ _____    ______ ____
ROOT
ATOM      1  C   UNL     1      -5.621   0.193  -0.488  0.00  0.00    +0.197 C 
ENDROOT
BRANCH   1   2
ATOM      2  C   UNL     1      -6.359   0.761   0.697  0.00  0.00    +0.231 C 
ATOM      3  O   UNL     1      -5.891   0.653   1.811  0.00  0.00    -0.274 OA
ATOM      4  N   UNL     1      -7.538   1.388   0.519  0.00  0.00    -0.296 N 
ATOM      5  C   UNL     1      -8.128   1.525  -0.821  0.00  0.00    +0.114 C 
ATOM      6  C   UNL     1      -9.445   0.743  -0.872  0.00  0.00    +0.072 C 
ATOM      7  C   UNL     1     -10.248   1.050   0.370  0.00  0.00    +0.023 A 
ATOM      8  H   UNL     1     -12.187   0.465  -0.130  0.00  0.00    +0.166 HD
ATOM      9  C   UNL     1      -9.727   1.585   1.495  0.00  0.00    -0.002 A 
ATOM     10  C   UNL     1     -10.809   1.719   2.447  0.00  0.00    +0.006 A 
ATOM     11  C   UNL     1     -10.864   2.202   3.758  0.00  0.00    +0.030 A 
ATOM     12  C   UNL     1     -12.101   2.180   4.380  0.00  0.00    +0.042 A 
ATOM     13  C   UNL     1     -13.234   1.703   3.739  0.00  0.00    +0.022 A 
ATOM     14  C   UNL     1     -13.201   1.221   2.442  0.00  0.00    +0.027 A 
ATOM     15  C   UNL     1     -11.969   1.232   1.792  0.00  0.00    +0.047 A 
ATOM     16  N   UNL     1     -11.592   0.839   0.539  0.00  0.00    -0.358 N 
ATOM     17 CL   UNL     1     -12.237   2.765   6.008  0.00  0.00    -0.084 Cl
ATOM     18  C   UNL     1      -8.277   1.951   1.664  0.00  0.00    +0.145 C 
ENDBRANCH   1   2
BRANCH   1  23
ATOM     19  C   UNL     1      -3.565  -0.898  -1.181  0.00  0.00    +0.108 C 
ATOM     20  N   UNL     1      -3.383  -2.357  -0.997  0.00  0.00    -0.333 NA
ATOM     21  N   UNL     1      -3.570  -2.562   0.448  0.00  0.00    +0.408 N 
ATOM     22  N   UNL     1      -4.648  -1.621   0.785  0.00  0.00    -0.281 NA
ATOM     23  N   UNL     1      -4.373  -0.435  -0.034  0.00  0.00    -0.233 NA
ATOM     24  H   UNL     1      -4.067  -2.876  -1.527  0.00  0.00    +0.105 HD
ATOM     25  H   UNL     1      -3.853  -3.512   0.639  0.00  0.00    -0.032 HD
ATOM     26  H   UNL     1      -5.551  -2.011   0.564  0.00  0.00    +0.121 HD
ATOM     27  H   UNL     1      -2.726  -2.333   0.952  0.00  0.00    -0.032 HD
BRANCH  19  28
ATOM     28  C   UNL     1      -2.206  -0.195  -1.186  0.00  0.00    -0.044 C 
BRANCH  28  29
ATOM     29  N   UNL     1      -1.456  -0.589  -2.385  0.00  0.00    +0.381 N 
ATOM     30  C   UNL     1      -2.143  -0.083  -3.581  0.00  0.00    -0.096 C 
ATOM     31  H   UNL     1      -1.397  -1.595  -2.431  0.00  0.00    -0.082 HD
BRANCH  29  33
ATOM     32  C   UNL     1       0.615  -0.549  -1.078  0.00  0.00    -0.014 C 
ATOM     33  C   UNL     1      -0.101  -0.022  -2.323  0.00  0.00    -0.075 C 
ATOM     34  C   UNL     1       0.681  -0.432  -3.572  0.00  0.00    -0.014 C 
ENDBRANCH  29  33
ENDBRANCH  28  29
ENDBRANCH  19  28
ENDBRANCH   1  23
TORSDOF 5
