REMARK  Name = ZINC59170368
REMARK  5 active torsions:
REMARK  status: ('A' for Active; 'I' for Inactive)
REMARK    1  A    between atoms: C_1  and  C_2
REMARK    2  A    between atoms: C_5  and  S_8
REMARK    3  A    between atoms: S_8  and  N_11
REMARK    4  A    between atoms: N_11  and  N_12
REMARK    5  A    between atoms: C_14  and  C_25
REMARK                            x       y       z     vdW  Elec       q    Type
REMARK                         _______ _______ _______ _____ _____    ______ ____
ROOT
ATOM      1  N   UNL     1       2.495  -4.628   1.025  0.00  0.00    -0.260 N 
ATOM      2  C   UNL     1       3.745  -4.996   1.012  0.00  0.00    +0.225 A 
ATOM      3  C   UNL     1       4.692  -4.521   2.047  0.00  0.00    +0.098 A 
ATOM      4  C   UNL     1       5.773  -5.322   2.325  0.00  0.00    +0.030 A 
ATOM      5  C   UNL     1       5.900  -6.578   1.575  0.00  0.00    +0.021 A 
ATOM      6  C   UNL     1       6.807  -7.562   1.980  0.00  0.00    +0.031 A 
ATOM      7  C   UNL     1       6.907  -8.735   1.261  0.00  0.00    +0.043 A 
ATOM      8  C   UNL     1       6.113  -8.942   0.143  0.00  0.00    +0.043 A 
ATOM      9  C   UNL     1       5.213  -7.976  -0.268  0.00  0.00    +0.085 A 
ATOM     10  C   UNL     1       5.099  -6.790   0.440  0.00  0.00    +0.156 A 
ATOM     11  O   UNL     1       4.222  -5.835   0.047  0.00  0.00    -0.436 OA
ATOM     12 CL   UNL     1       4.226  -8.249  -1.670  0.00  0.00    -0.080 Cl
ATOM     13 CL   UNL     1       8.033  -9.960   1.759  0.00  0.00    -0.083 Cl
ATOM     14  H   UNL     1       2.153  -4.099   1.762  0.00  0.00    +0.189 HD
ENDROOT
BRANCH   3  15
ATOM     15  C   UNL     1       4.483  -3.244   2.750  0.00  0.00    +0.247 C 
ATOM     16  O   UNL     1       3.474  -2.596   2.547  0.00  0.00    -0.270 OA
ATOM     17  N   UNL     1       5.410  -2.793   3.618  0.00  0.00    -0.325 N 
ATOM     18  H   UNL     1       6.248  -3.271   3.725  0.00  0.00    +0.145 HD
ATOM     19  H   UNL     1       5.240  -1.991   4.136  0.00  0.00    +0.145 HD
ENDBRANCH   3  15
BRANCH   1  20
ATOM     20  N   UNL     1       1.646  -4.997  -0.026  0.00  0.00    -0.157 N 
ATOM     21  H   UNL     1       1.988  -5.526  -0.764  0.00  0.00    +0.194 HD
BRANCH  20  22
ATOM     22  S   UNL     1       0.057  -4.530  -0.010  0.00  0.00    +0.085 S 
ATOM     23  O   UNL     1      -0.481  -4.961   1.233  0.00  0.00    -0.149 OA
ATOM     24  O   UNL     1      -0.496  -4.926  -1.258  0.00  0.00    -0.149 OA
BRANCH  22  29
ATOM     25  C   UNL     1      -0.030   1.503   0.077  0.00  0.00    +0.044 C 
ATOM     26  C   UNL     1      -0.008  -0.004   0.056  0.00  0.00    -0.050 A 
ATOM     27  C   UNL     1      -0.005  -0.678  -1.151  0.00  0.00    +0.005 A 
ATOM     28  C   UNL     1       0.016  -2.060  -1.171  0.00  0.00    +0.029 A 
ATOM     29  C   UNL     1       0.033  -2.768   0.015  0.00  0.00    +0.110 A 
ATOM     30  C   UNL     1       0.030  -2.094   1.222  0.00  0.00    +0.029 A 
ATOM     31  C   UNL     1       0.014  -0.712   1.242  0.00  0.00    +0.005 A 
ENDBRANCH  22  29
ENDBRANCH  20  22
ENDBRANCH   1  20
TORSDOF 4
