REMARK  Name = ZINC42226351
REMARK  6 active torsions:
REMARK  status: ('A' for Active; 'I' for Inactive)
REMARK    1  A    between atoms: C_1  and  C_2
REMARK    2  A    between atoms: C_2  and  C_4
REMARK    3  A    between atoms: C_2  and  N_10
REMARK    4  A    between atoms: N_10  and  C_11
REMARK    5  A    between atoms: C_11  and  C_12
REMARK    6  A    between atoms: C_12  and  N_13
REMARK                            x       y       z     vdW  Elec       q    Type
REMARK                         _______ _______ _______ _____ _____    ______ ____
ROOT
ATOM      1  C   UNL     1      -0.019   1.526   0.010  0.00  0.00    +0.034 C 
ATOM      2  C   UNL     1       0.002  -0.004   0.002  0.00  0.00    +0.138 C 
ENDROOT
BRANCH   2   3
ATOM      3  C   UNL     1       0.731  -0.503   1.223  0.00  0.00    +0.237 C 
ATOM      4  O   UNL     1       1.725  -1.186   1.099  0.00  0.00    -0.274 OA
ATOM      5  N   UNL     1       0.278  -0.191   2.453  0.00  0.00    -0.239 N 
ATOM      6  C   UNL     1       0.930  -0.637   3.545  0.00  0.00    +0.303 C 
ATOM      7  O   UNL     1       1.926  -1.322   3.420  0.00  0.00    -0.253 OA
ATOM      8  N   UNL     1       0.476  -0.324   4.775  0.00  0.00    -0.313 N 
ATOM      9  H   UNL     1      -0.517   0.356   2.553  0.00  0.00    +0.159 HD
ATOM     10  H   UNL     1      -0.319   0.222   4.875  0.00  0.00    +0.146 HD
ATOM     11  H   UNL     1       0.946  -0.646   5.561  0.00  0.00    +0.146 HD
ENDBRANCH   2   3
BRANCH   2  12
ATOM     12  N   UNL     1       0.690  -0.478  -1.207  0.00  0.00    -0.308 NA
ATOM     13  H   UNL     1       1.485   0.104  -1.422  0.00  0.00    +0.123 HD
BRANCH  12  14
ATOM     14  C   UNL     1      -0.235  -0.547  -2.346  0.00  0.00    +0.063 C 
BRANCH  14  15
ATOM     15  C   UNL     1       0.515  -1.043  -3.583  0.00  0.00    -0.064 C 
BRANCH  15  16
ATOM     16  N   UNL     1      -0.410  -1.112  -4.722  0.00  0.00    +0.381 N 
ATOM     17  C   UNL     1      -1.441  -2.121  -4.452  0.00  0.00    -0.079 C 
ATOM     18  C   UNL     1      -2.454  -2.140  -5.600  0.00  0.00    -0.019 C 
ATOM     19  C   UNL     1      -1.731  -2.483  -6.905  0.00  0.00    -0.004 C 
ATOM     20  C   UNL     1      -0.609  -1.467  -7.138  0.00  0.00    -0.019 C 
ATOM     21  C   UNL     1       0.335  -1.473  -5.934  0.00  0.00    -0.079 C 
ATOM     22  H   UNL     1      -0.848  -0.213  -4.853  0.00  0.00    -0.082 HD
ENDBRANCH  15  16
ENDBRANCH  14  15
ENDBRANCH  12  14
ENDBRANCH   2  12
TORSDOF 5
