REMARK  Name = ZINC45245265
REMARK  11 active torsions:
REMARK  status: ('A' for Active; 'I' for Inactive)
REMARK    1  A    between atoms: C_1  and  C_2
REMARK    2  A    between atoms: C_2  and  C_3
REMARK    3  A    between atoms: C_4  and  N_24
REMARK    4  A    between atoms: C_5  and  C_22
REMARK    5  A    between atoms: C_11  and  N_12
REMARK    6  A    between atoms: N_12  and  C_13
REMARK    7  A    between atoms: C_16  and  O_19
REMARK    8  A    between atoms: O_19  and  C_20
REMARK    9  A    between atoms: C_20  and  C_21
REMARK   10  A    between atoms: N_24  and  C_25
REMARK   11  A    between atoms: C_28  and  N_31
REMARK                            x       y       z     vdW  Elec       q    Type
REMARK                         _______ _______ _______ _____ _____    ______ ____
ROOT
ATOM      1  C   UNL     1      -1.544  -0.377   0.016  0.00  0.00    +0.015 A 
ATOM      2  C   UNL     1      -2.308  -0.150   1.165  0.00  0.00    +0.053 A 
ATOM      3  C   UNL     1      -3.705  -0.271   1.091  0.00  0.00    +0.098 A 
ATOM      4  C   UNL     1      -4.301  -0.633  -0.198  0.00  0.00    +0.088 A 
ATOM      5  C   UNL     1      -5.604  -0.832  -0.616  0.00  0.00    +0.050 A 
ATOM      6  C   UNL     1      -5.565  -1.162  -1.966  0.00  0.00    +0.135 A 
ATOM      7  N   UNL     1      -4.315  -1.169  -2.366  0.00  0.00    -0.173 NA
ATOM      8  N   UNL     1      -3.490  -0.841  -1.282  0.00  0.00    -0.217 N 
ATOM      9  C   UNL     1      -2.132  -0.706  -1.165  0.00  0.00    +0.130 A 
ENDROOT
BRANCH   1  11
ATOM     10  C   UNL     1       0.352   1.217  -0.105  0.00  0.00    +0.009 C 
ATOM     11  C   UNL     1      -0.044  -0.249   0.086  0.00  0.00    +0.037 C 
ENDBRANCH   1  11
BRANCH   9  12
ATOM     12  N   UNL     1      -1.339  -0.915  -2.274  0.00  0.00    -0.299 N 
ATOM     13  H   UNL     1      -0.641  -1.589  -2.252  0.00  0.00    +0.154 HD
BRANCH  12  14
ATOM     14  C   UNL     1      -1.540  -0.155  -3.432  0.00  0.00    +0.033 A 
ATOM     15  C   UNL     1      -2.427   0.914  -3.416  0.00  0.00    +0.027 A 
ATOM     16  C   UNL     1      -2.625   1.664  -4.559  0.00  0.00    +0.047 A 
ATOM     17  C   UNL     1      -1.940   1.349  -5.723  0.00  0.00    +0.121 A 
ATOM     18  C   UNL     1      -1.054   0.281  -5.740  0.00  0.00    +0.047 A 
ATOM     19  C   UNL     1      -0.850  -0.466  -4.596  0.00  0.00    +0.027 A 
BRANCH  17  20
ATOM     20  O   UNL     1      -2.136   2.087  -6.848  0.00  0.00    -0.492 OA
BRANCH  20  21
ATOM     21  C   UNL     1      -1.397   1.707  -8.010  0.00  0.00    +0.225 C 
ATOM     22  C   UNL     1      -1.748   2.645  -9.167  0.00  0.00    +0.048 C 
ENDBRANCH  20  21
ENDBRANCH  17  20
ENDBRANCH  12  14
ENDBRANCH   9  12
BRANCH   3  23
ATOM     23  C   UNL     1      -4.525  -0.048   2.243  0.00  0.00    +0.103 C 
ATOM     24  N   UNL     1      -5.176   0.129   3.157  0.00  0.00    -0.191 NA
ENDBRANCH   3  23
BRANCH   2  25
ATOM     25  N   UNL     1      -1.696   0.190   2.360  0.00  0.00    -0.340 N 
ATOM     26  H   UNL     1      -0.742   0.364   2.384  0.00  0.00    +0.146 HD
BRANCH  25  27
ATOM     27  C   UNL     1      -2.489   0.287   3.588  0.00  0.00    +0.070 C 
ATOM     28  C   UNL     1      -3.150   1.665   3.661  0.00  0.00    +0.020 C 
ATOM     29  C   UNL     1      -2.070   2.749   3.664  0.00  0.00    -0.014 C 
ATOM     30  C   UNL     1      -1.157   2.556   4.877  0.00  0.00    -0.075 C 
ATOM     31  C   UNL     1      -0.497   1.178   4.804  0.00  0.00    -0.014 C 
ATOM     32  C   UNL     1      -1.576   0.094   4.801  0.00  0.00    +0.020 C 
BRANCH  30  33
ATOM     33  N   UNL     1      -0.121   3.597   4.880  0.00  0.00    +0.380 N 
ATOM     34  H   UNL     1      -0.556   4.506   4.928  0.00  0.00    -0.090 HD
ATOM     35  H   UNL     1       0.481   3.470   5.680  0.00  0.00    -0.090 HD
ATOM     36  H   UNL     1       0.425   3.530   4.035  0.00  0.00    -0.090 HD
ENDBRANCH  30  33
ENDBRANCH  25  27
ENDBRANCH   2  25
TORSDOF 9
