REMARK  Name = ZINC38673177
REMARK  11 active torsions:
REMARK  status: ('A' for Active; 'I' for Inactive)
REMARK    1  A    between atoms: C_1  and  N_2
REMARK    2  A    between atoms: N_5  and  C_8
REMARK    3  A    between atoms: C_8  and  C_10
REMARK    4  A    between atoms: C_8  and  C_27
REMARK    5  A    between atoms: C_10  and  N_11
REMARK    6  A    between atoms: C_12  and  C_14
REMARK    7  A    between atoms: N_16  and  C_17
REMARK    8  A    between atoms: C_20  and  C_23
REMARK    9  A    between atoms: C_23  and  O_25
REMARK   10  A    between atoms: O_25  and  C_26
REMARK   11  A    between atoms: N_36  and  C_37
REMARK                            x       y       z     vdW  Elec       q    Type
REMARK                         _______ _______ _______ _____ _____    ______ ____
ROOT
ATOM      1  C   UNL     1       1.462  -3.983  -0.042  0.00  0.00    +0.104 C 
ENDROOT
BRANCH   1   2
ATOM      2  C   UNL     1       2.205  -4.574   1.128  0.00  0.00    -0.028 A 
ATOM      3  C   UNL     1       3.391  -4.003   1.552  0.00  0.00    +0.007 A 
ATOM      4  C   UNL     1       4.072  -4.545   2.623  0.00  0.00    +0.024 A 
ATOM      5  C   UNL     1       3.565  -5.664   3.276  0.00  0.00    +0.033 A 
ATOM      6  C   UNL     1       2.375  -6.234   2.853  0.00  0.00    -0.026 A 
ATOM      7  C   UNL     1       1.696  -5.681   1.779  0.00  0.00    +0.010 A 
ATOM      8  C   UNL     1       1.790  -7.439   3.542  0.00  0.00    +0.038 C 
ATOM      9  C   UNL     1       2.870  -8.181   4.328  0.00  0.00    +0.024 C 
ATOM     10  C   UNL     1       3.607  -7.179   5.227  0.00  0.00    +0.105 C 
ATOM     11  N   UNL     1       4.273  -6.201   4.356  0.00  0.00    -0.333 N 
ATOM     12  C   UNL     1       5.657  -5.795   4.615  0.00  0.00    +0.129 C 
ENDBRANCH   1   2
BRANCH   1  17
ATOM     13  C   UNL     1       0.497   1.562   0.230  0.00  0.00    -0.096 C 
ATOM     14  N   UNL     1       0.382   0.099   0.159  0.00  0.00    +0.379 N 
ATOM     15  C   UNL     1       1.032  -0.384  -1.067  0.00  0.00    -0.064 C 
ATOM     16  C   UNL     1       0.895  -1.905  -1.151  0.00  0.00    +0.066 C 
ATOM     17  N   UNL     1       1.522  -2.517   0.029  0.00  0.00    -0.297 NA
ATOM     18  C   UNL     1       0.898  -2.023   1.266  0.00  0.00    +0.066 C 
ATOM     19  C   UNL     1       1.034  -0.501   1.330  0.00  0.00    -0.064 C 
ATOM     20  H   UNL     1      -0.593  -0.161   0.147  0.00  0.00    -0.082 HD
ENDBRANCH   1  17
BRANCH   1  21
ATOM     21  C   UNL     1       2.105  -4.457  -1.347  0.00  0.00    +0.128 C 
BRANCH  21  22
ATOM     22  N   UNL     1       1.968  -5.911  -1.459  0.00  0.00    -0.306 N 
ATOM     23  C   UNL     1       2.552  -6.566  -2.482  0.00  0.00    +0.299 C 
ATOM     24  O   UNL     1       3.192  -5.951  -3.310  0.00  0.00    -0.265 OA
ATOM     25  H   UNL     1       1.458  -6.402  -0.797  0.00  0.00    +0.149 HD
BRANCH  23  26
ATOM     26  C   UNL     1       2.413  -8.049  -2.596  0.00  0.00    +0.303 C 
ATOM     27  O   UNL     1       1.774  -8.663  -1.768  0.00  0.00    -0.265 OA
ATOM     28  N   UNL     1       2.997  -8.704  -3.619  0.00  0.00    -0.278 N 
ATOM     29  H   UNL     1       3.450  -8.206  -4.317  0.00  0.00    +0.155 HD
BRANCH  28  30
ATOM     30  C   UNL     1       2.949 -10.094  -3.673  0.00  0.00    +0.034 A 
ATOM     31  C   UNL     1       4.036 -10.807  -4.171  0.00  0.00    +0.024 A 
ATOM     32  C   UNL     1       3.992 -12.182  -4.226  0.00  0.00    +0.017 A 
ATOM     33  C   UNL     1       2.854 -12.862  -3.781  0.00  0.00    +0.059 A 
ATOM     34  C   UNL     1       1.764 -12.142  -3.281  0.00  0.00    +0.017 A 
ATOM     35  C   UNL     1       1.817 -10.768  -3.224  0.00  0.00    +0.024 A 
BRANCH  33  36
ATOM     36  C   UNL     1       2.804 -14.335  -3.838  0.00  0.00    +0.339 C 
ATOM     37  O   UNL     1       3.751 -14.958  -4.273  0.00  0.00    -0.245 OA
BRANCH  36  38
ATOM     38  O   UNL     1       1.706 -14.988  -3.409  0.00  0.00    -0.464 OA
ATOM     39  C   UNL     1       1.726 -16.415  -3.494  0.00  0.00    +0.280 C 
ENDBRANCH  36  38
ENDBRANCH  33  36
ENDBRANCH  28  30
ENDBRANCH  23  26
ENDBRANCH  21  22
ENDBRANCH   1  21
TORSDOF 8
