REMARK  Name = ZINC10257152
REMARK  8 active torsions:
REMARK  status: ('A' for Active; 'I' for Inactive)
REMARK    1  A    between atoms: C_4  and  N_7
REMARK    2  A    between atoms: C_12  and  C_13
REMARK    3  A    between atoms: C_12  and  N_72
REMARK    4  A    between atoms: C_13  and  N_14
REMARK    5  A    between atoms: C_15  and  C_17
REMARK    6  A    between atoms: C_17  and  C_19
REMARK    7  A    between atoms: N_21  and  C_28
REMARK    8  A    between atoms: C_28  and  C_29
REMARK                            x       y       z     vdW  Elec       q    Type
REMARK                         _______ _______ _______ _____ _____    ______ ____
ROOT
ATOM      1  C   UNL     1       2.449   0.927  -0.016  0.00  0.00    +0.249 C 
ATOM      2  O   UNL     1       2.465  -0.288  -0.023  0.00  0.00    -0.282 OA
ENDROOT
BRANCH   1   3
ATOM      3  C   UNL     1       3.705   1.675  -0.024  0.00  0.00    +0.052 A 
ATOM      4  C   UNL     1       3.853   3.050  -0.018  0.00  0.00    +0.099 A 
ATOM      5  N   UNL     1       5.161   3.362  -0.028  0.00  0.00    -0.337 N 
ATOM      6  C   UNL     1       5.937   2.220  -0.042  0.00  0.00    +0.050 A 
ATOM      7  C   UNL     1       5.070   1.116  -0.034  0.00  0.00    +0.011 A 
ATOM      8  C   UNL     1       5.585  -0.177  -0.051  0.00  0.00    +0.011 A 
ATOM      9  C   UNL     1       6.950  -0.368  -0.066  0.00  0.00    +0.001 A 
ATOM     10  C   UNL     1       7.808   0.721  -0.067  0.00  0.00    +0.002 A 
ATOM     11  C   UNL     1       7.311   2.007  -0.055  0.00  0.00    +0.026 A 
BRANCH   5  12
ATOM     12  C   UNL     1       5.691   4.728  -0.025  0.00  0.00    +0.217 C 
BRANCH  12  13
ATOM     13  C   UNL     1       5.975   5.160  -1.440  0.00  0.00    +0.235 C 
ATOM     14  O   UNL     1       5.757   4.402  -2.361  0.00  0.00    -0.274 OA
ATOM     15  N   UNL     1       6.472   6.389  -1.683  0.00  0.00    -0.300 N 
ATOM     16  C   UNL     1       6.736   7.322  -0.578  0.00  0.00    +0.108 C 
ATOM     17  C   UNL     1       8.192   7.801  -0.680  0.00  0.00    +0.019 C 
ATOM     18  C   UNL     1       8.432   8.391  -2.071  0.00  0.00    +0.003 C 
ATOM     19  C   UNL     1       8.205   7.311  -3.132  0.00  0.00    +0.019 C 
ATOM     20  C   UNL     1       6.755   6.825  -3.057  0.00  0.00    +0.108 C 
ENDBRANCH  12  13
ENDBRANCH   5  12
ENDBRANCH   1   3
BRANCH   1  22
ATOM     21  N   UNL     1      -0.011   0.966   0.007  0.00  0.00    -0.310 N 
ATOM     22  C   UNL     1       1.147   1.655   0.000  0.00  0.00    +0.284 C 
ATOM     23  O   UNL     1       1.130   2.869   0.007  0.00  0.00    -0.267 OA
ATOM     24  H   UNL     1       0.002  -0.004   0.002  0.00  0.00    +0.149 HD
BRANCH  21  25
ATOM     25  C   UNL     1      -1.290   1.681   0.017  0.00  0.00    +0.086 C 
BRANCH  25  26
ATOM     26  C   UNL     1      -2.439   0.671   0.017  0.00  0.00    -0.060 C 
BRANCH  26  32
ATOM     27  N   UNL     1      -6.331   1.996   0.988  0.00  0.00    -0.333 N 
ATOM     28  C   UNL     1      -6.148   1.263  -0.272  0.00  0.00    +0.086 C 
ATOM     29  C   UNL     1      -4.841   0.467  -0.211  0.00  0.00    -0.060 C 
ATOM     30  C   UNL     1      -3.904   2.122   1.287  0.00  0.00    -0.060 C 
ATOM     31  C   UNL     1      -5.211   2.917   1.226  0.00  0.00    +0.086 C 
ATOM     32  N   UNL     1      -3.721   1.407   0.007  0.00  0.00    +0.383 N 
ATOM     33  H   UNL     1      -3.707   2.092  -0.758  0.00  0.00    -0.082 HD
BRANCH  27  37
ATOM     34  C   UNL     1      -9.964   4.029   1.016  0.00  0.00    +0.000 A 
ATOM     35  C   UNL     1      -9.121   4.109   2.110  0.00  0.00    +0.002 A 
ATOM     36  C   UNL     1      -7.915   3.435   2.104  0.00  0.00    +0.023 A 
ATOM     37  C   UNL     1      -7.550   2.678   0.998  0.00  0.00    +0.030 A 
ATOM     38  C   UNL     1      -8.397   2.605  -0.101  0.00  0.00    +0.023 A 
ATOM     39  C   UNL     1      -9.604   3.277  -0.086  0.00  0.00    +0.002 A 
ENDBRANCH  27  37
ENDBRANCH  26  32
ENDBRANCH  25  26
ENDBRANCH  21  25
ENDBRANCH   1  22
TORSDOF 8
