REMARK  Name = ZINC10816765
REMARK  8 active torsions:
REMARK  status: ('A' for Active; 'I' for Inactive)
REMARK    1  A    between atoms: C_1  and  C_2
REMARK    2  A    between atoms: C_2  and  C_26
REMARK    3  A    between atoms: C_4  and  N_9
REMARK    4  A    between atoms: C_6  and  C_7
REMARK    5  A    between atoms: C_6  and  C_8
REMARK    6  A    between atoms: C_10  and  C_12
REMARK    7  A    between atoms: C_12  and  C_13
REMARK    8  A    between atoms: C_19  and  C_21
REMARK                            x       y       z     vdW  Elec       q    Type
REMARK                         _______ _______ _______ _____ _____    ______ ____
ROOT
ATOM      1  N   UNL     1      -2.487  -8.364  -1.381  0.00  0.00    -0.312 N 
ATOM      2  C   UNL     1      -2.586  -7.037  -1.172  0.00  0.00    +0.219 C 
ATOM      3  O   UNL     1      -2.041  -6.261  -1.929  0.00  0.00    -0.275 OA
ATOM      4  H   UNL     1      -2.922  -8.985  -0.776  0.00  0.00    +0.149 HD
ENDROOT
BRANCH   1   8
ATOM      5  C   UNL     1       0.938 -10.205  -3.448  0.00  0.00    -0.010 C 
ATOM      6  C   UNL     1      -0.452 -10.851  -3.402  0.00  0.00    -0.072 C 
ATOM      7  C   UNL     1      -1.237 -10.289  -2.219  0.00  0.00    +0.009 C 
ATOM      8  C   UNL     1      -1.719  -8.872  -2.526  0.00  0.00    +0.070 C 
ATOM      9  C   UNL     1      -2.624  -8.922  -3.756  0.00  0.00    +0.009 C 
ATOM     10  C   UNL     1      -1.857  -9.468  -4.958  0.00  0.00    -0.072 C 
ATOM     11  C   UNL     1      -0.908  -8.389  -5.495  0.00  0.00    -0.010 C 
ATOM     12  C   UNL     1      -2.887  -9.765  -6.071  0.00  0.00    -0.010 C 
ATOM     13  C   UNL     1      -0.246 -12.361  -3.150  0.00  0.00    -0.010 C 
ATOM     14  N   UNL     1      -1.143 -10.750  -4.716  0.00  0.00    +0.386 N 
ATOM     15  H   UNL     1      -1.828 -11.512  -4.774  0.00  0.00    -0.084 HD
ATOM     16  H   UNL     1      -0.439 -10.866  -5.455  0.00  0.00    -0.084 HD
ENDBRANCH   1   8
BRANCH   2  17
ATOM     17  C   UNL     1      -3.374  -6.516   0.002  0.00  0.00    +0.151 C 
BRANCH  17  18
ATOM     18  C   UNL     1      -3.328  -5.010   0.009  0.00  0.00    +0.059 A 
ATOM     19  C   UNL     1      -4.471  -4.281   0.024  0.00  0.00    +0.072 A 
ATOM     20  S   UNL     1      -3.808  -2.622   0.026  0.00  0.00    -0.060 S 
ATOM     21  C   UNL     1      -2.126  -3.051   0.007  0.00  0.00    +0.165 A 
ATOM     22  N   UNL     1      -2.175  -4.369  -0.005  0.00  0.00    -0.229 NA
ATOM     23  N   UNL     1      -1.013  -2.220   0.001  0.00  0.00    -0.258 N 
ATOM     24  C   UNL     1      -1.172  -0.882   0.009  0.00  0.00    +0.285 C 
ATOM     25  O   UNL     1      -2.291  -0.402   0.023  0.00  0.00    -0.266 OA
ATOM     26  H   UNL     1      -0.122  -2.603  -0.011  0.00  0.00    +0.157 HD
BRANCH  24  27
ATOM     27  C   UNL     1       0.002  -0.004   0.002  0.00  0.00    +0.189 A 
ATOM     28  C   UNL     1      -0.016   1.362   0.009  0.00  0.00    +0.054 A 
ATOM     29  C   UNL     1       1.322   1.783  -0.001  0.00  0.00    +0.042 A 
ATOM     30  C   UNL     1       2.090   0.671  -0.014  0.00  0.00    +0.196 A 
ATOM     31  O   UNL     1       1.290  -0.404  -0.012  0.00  0.00    -0.458 OA
ENDBRANCH  24  27
ENDBRANCH  17  18
ENDBRANCH   2  17
TORSDOF 4
