REMARK  Name = ZINC35920084
REMARK  5 active torsions:
REMARK  status: ('A' for Active; 'I' for Inactive)
REMARK    1  A    between atoms: C_1  and  N_2
REMARK    2  A    between atoms: C_12  and  O_14
REMARK    3  A    between atoms: O_14  and  C_15
REMARK    4  A    between atoms: N_23  and  S_26
REMARK    5  A    between atoms: S_26  and  C_29
REMARK                            x       y       z     vdW  Elec       q    Type
REMARK                         _______ _______ _______ _____ _____    ______ ____
ROOT
ATOM      1  C   UNL     1      -1.966  -0.052   0.059  0.00  0.00    -0.096 C 
ATOM      2  N   UNL     1      -1.554  -1.459  -0.036  0.00  0.00    +0.380 N 
ATOM      3  C   UNL     1      -0.685  -1.634  -1.207  0.00  0.00    -0.060 C 
ATOM      4  C   UNL     1      -0.348  -3.120  -1.373  0.00  0.00    +0.089 C 
ATOM      5  N   UNL     1       0.226  -3.612  -0.111  0.00  0.00    -0.303 N 
ATOM      6  C   UNL     1      -0.502  -3.335   1.136  0.00  0.00    +0.089 C 
ATOM      7  C   UNL     1      -0.832  -1.839   1.184  0.00  0.00    -0.060 C 
ATOM      8  C   UNL     1       1.418  -4.315  -0.098  0.00  0.00    +0.221 A 
ATOM      9  N   UNL     1       1.935  -4.688   1.061  0.00  0.00    -0.219 NA
ATOM     10  C   UNL     1       3.077  -5.369   1.121  0.00  0.00    +0.056 A 
ATOM     11  C   UNL     1       3.718  -5.690  -0.052  0.00  0.00    +0.052 A 
ATOM     12  C   UNL     1       3.154  -5.278  -1.262  0.00  0.00    +0.230 A 
ATOM     13  N   UNL     1       2.011  -4.604  -1.247  0.00  0.00    -0.179 NA
ATOM     14  C   UNL     1       4.999  -6.481  -0.085  0.00  0.00    +0.151 C 
ATOM     15  N   UNL     1       5.550  -6.580   1.272  0.00  0.00    -0.172 NA
ATOM     16  C   UNL     1       4.612  -6.895   2.362  0.00  0.00    +0.116 C 
ATOM     17  C   UNL     1       3.612  -5.745   2.475  0.00  0.00    +0.073 C 
ATOM     18  H   UNL     1      -2.372  -2.041  -0.138  0.00  0.00    -0.082 HD
ENDROOT
BRANCH  15  19
ATOM     19  S   UNL     1       7.163  -6.345   1.565  0.00  0.00    +0.061 S 
ATOM     20  O   UNL     1       7.460  -7.030   2.774  0.00  0.00    -0.153 OA
ATOM     21  O   UNL     1       7.841  -6.620   0.347  0.00  0.00    -0.153 OA
BRANCH  19  22
ATOM     22  C   UNL     1       7.389  -4.628   1.891  0.00  0.00    +0.106 A 
ATOM     23  C   UNL     1       7.655  -3.757   0.851  0.00  0.00    +0.030 A 
ATOM     24  C   UNL     1       7.833  -2.410   1.105  0.00  0.00    +0.022 A 
ATOM     25  C   UNL     1       7.744  -1.934   2.401  0.00  0.00    +0.041 A 
ATOM     26  C   UNL     1       7.477  -2.806   3.442  0.00  0.00    +0.022 A 
ATOM     27  C   UNL     1       7.294  -4.152   3.185  0.00  0.00    +0.030 A 
ATOM     28 CL   UNL     1       7.967  -0.243   2.722  0.00  0.00    -0.084 Cl
ENDBRANCH  19  22
ENDBRANCH  15  19
BRANCH  12  29
ATOM     29  O   UNL     1       3.763  -5.567  -2.437  0.00  0.00    -0.435 OA
BRANCH  29  30
ATOM     30  C   UNL     1       3.251  -5.023  -3.572  0.00  0.00    +0.165 A 
ATOM     31  C   UNL     1       2.462  -3.885  -3.503  0.00  0.00    +0.049 A 
ATOM     32  C   UNL     1       1.943  -3.334  -4.658  0.00  0.00    +0.004 A 
ATOM     33  C   UNL     1       2.210  -3.914  -5.885  0.00  0.00    +0.003 A 
ATOM     34  C   UNL     1       2.996  -5.049  -5.959  0.00  0.00    +0.042 A 
ATOM     35  C   UNL     1       3.523  -5.602  -4.806  0.00  0.00    +0.165 A 
ATOM     36  F   UNL     1       4.297  -6.707  -4.878  0.00  0.00    -0.202 F 
ENDBRANCH  29  30
ENDBRANCH  12  29
TORSDOF 4
