REMARK  Name = ZINC63755543
REMARK  8 active torsions:
REMARK  status: ('A' for Active; 'I' for Inactive)
REMARK    1  A    between atoms: C_1  and  O_2
REMARK    2  A    between atoms: O_2  and  C_3
REMARK    3  A    between atoms: C_8  and  C_9
REMARK    4  A    between atoms: N_11  and  C_12
REMARK    5  A    between atoms: C_12  and  C_13
REMARK    6  A    between atoms: C_13  and  S_14
REMARK    7  A    between atoms: S_14  and  C_15
REMARK    8  A    between atoms: C_23  and  C_25
REMARK                            x       y       z     vdW  Elec       q    Type
REMARK                         _______ _______ _______ _____ _____    ______ ____
ROOT
ATOM      1  C   UNL     1       1.819  -9.001   0.077  0.00  0.00    +0.021 C 
ATOM      2  C   UNL     1       0.502  -9.449   0.079  0.00  0.00    +0.010 A 
ATOM      3  C   UNL     1      -0.734  -8.775  -0.026  0.00  0.00    +0.011 A 
ATOM      4  C   UNL     1      -1.892  -9.483   0.007  0.00  0.00    +0.001 A 
ATOM      5  C   UNL     1      -1.896 -10.872   0.142  0.00  0.00    +0.002 A 
ATOM      6  C   UNL     1      -0.746 -11.583   0.248  0.00  0.00    +0.026 A 
ATOM      7  C   UNL     1       0.503 -10.913   0.221  0.00  0.00    +0.044 A 
ATOM      8  N   UNL     1       1.740 -11.368   0.304  0.00  0.00    -0.373 N 
ATOM      9  C   UNL     1       2.674 -10.241   0.218  0.00  0.00    +0.147 C 
ATOM     10  H   UNL     1       1.991 -12.300   0.403  0.00  0.00    +0.161 HD
ENDROOT
BRANCH   9  11
ATOM     11  C   UNL     1       3.502 -10.159   1.475  0.00  0.00    -0.020 A 
ATOM     12  C   UNL     1       2.935 -10.469   2.697  0.00  0.00    +0.007 A 
ATOM     13  C   UNL     1       3.695 -10.395   3.850  0.00  0.00    +0.015 A 
ATOM     14  C   UNL     1       5.022 -10.011   3.780  0.00  0.00    +0.018 A 
ATOM     15  C   UNL     1       5.588  -9.702   2.557  0.00  0.00    +0.015 A 
ATOM     16  C   UNL     1       4.830  -9.781   1.404  0.00  0.00    +0.007 A 
ATOM     17 BR   UNL     1       6.061  -9.909   5.356  0.00  0.00    -0.050 Br
ENDBRANCH   9  11
BRANCH   1  18
ATOM     18  S   UNL     1       2.344  -7.432  -0.060  0.00  0.00    -0.125 S 
BRANCH  18  19
ATOM     19  C   UNL     1       0.815  -6.455  -0.041  0.00  0.00    +0.093 C 
BRANCH  19  20
ATOM     20  C   UNL     1       1.163  -4.965  -0.017  0.00  0.00    +0.115 C 
BRANCH  20  23
ATOM     21  C   UNL     1      -0.010  -2.830   0.021  0.00  0.00    +0.248 C 
ATOM     22  O   UNL     1       1.069  -2.270   0.028  0.00  0.00    -0.270 OA
ATOM     23  N   UNL     1      -0.071  -4.176  -0.001  0.00  0.00    -0.310 N 
ATOM     24  H   UNL     1      -0.933  -4.622  -0.006  0.00  0.00    +0.149 HD
BRANCH  21  30
ATOM     25  C   UNL     1      -1.195  -0.635   0.060  0.00  0.00    +0.132 A 
ATOM     26  C   UNL     1      -2.370   0.102   0.070  0.00  0.00    +0.046 A 
ATOM     27  C   UNL     1      -3.591  -0.542   0.062  0.00  0.00    +0.004 A 
ATOM     28  C   UNL     1      -3.653  -1.926   0.046  0.00  0.00    +0.001 A 
ATOM     29  C   UNL     1      -2.496  -2.674   0.036  0.00  0.00    +0.017 A 
ATOM     30  C   UNL     1      -1.253  -2.035   0.037  0.00  0.00    +0.078 A 
BRANCH  25  32
ATOM     31  C   UNL     1      -0.013   1.425   0.092  0.00  0.00    +0.277 C 
ATOM     32  O   UNL     1       0.006  -0.004   0.068  0.00  0.00    -0.494 OA
ENDBRANCH  25  32
ENDBRANCH  21  30
ENDBRANCH  20  23
ENDBRANCH  19  20
ENDBRANCH  18  19
ENDBRANCH   1  18
TORSDOF 7
