REMARK  Name = ZINC67165158
REMARK  6 active torsions:
REMARK  status: ('A' for Active; 'I' for Inactive)
REMARK    1  A    between atoms: C_7  and  N_12
REMARK    2  A    between atoms: C_13  and  C_15
REMARK    3  A    between atoms: C_15  and  C_16
REMARK    4  A    between atoms: C_16  and  C_17
REMARK    5  A    between atoms: C_17  and  C_18
REMARK    6  A    between atoms: C_18  and  C_19
REMARK                            x       y       z     vdW  Elec       q    Type
REMARK                         _______ _______ _______ _____ _____    ______ ____
ROOT
ATOM      1  C   UNL     1       0.416  -4.568  -1.452  0.00  0.00    +0.096 C 
ENDROOT
BRANCH   1   3
ATOM      2  N   UNL     1       0.871  -2.609  -0.013  0.00  0.00    -0.314 N 
ATOM      3  C   UNL     1       0.553  -3.916  -0.101  0.00  0.00    +0.213 C 
ATOM      4  O   UNL     1       0.378  -4.566   0.908  0.00  0.00    -0.276 OA
ATOM      5  H   UNL     1       1.012  -2.088  -0.819  0.00  0.00    +0.149 HD
BRANCH   2  12
ATOM      6  C   UNL     1      -0.019   1.533   0.011  0.00  0.00    -0.003 C 
ATOM      7  C   UNL     1       1.405   2.089  -0.000  0.00  0.00    -0.019 C 
ATOM      8  C   UNL     1       2.238   1.476   1.135  0.00  0.00    -0.078 C 
ATOM      9  N   UNL     1       2.233   0.030   0.960  0.00  0.00    +0.383 N 
ATOM     10  C   UNL     1       3.024  -0.725   1.945  0.00  0.00    -0.077 C 
ATOM     11  C   UNL     1       2.443  -2.161   1.851  0.00  0.00    +0.002 C 
ATOM     12  C   UNL     1       1.005  -1.974   1.301  0.00  0.00    +0.058 C 
ATOM     13  C   UNL     1       0.845  -0.455   1.185  0.00  0.00    -0.048 C 
ATOM     14  C   UNL     1       0.002  -0.004   0.002  0.00  0.00    -0.014 C 
ATOM     15  H   UNL     1       2.530  -0.204   0.025  0.00  0.00    -0.081 HD
ENDBRANCH   2  12
ENDBRANCH   1   3
BRANCH   1  16
ATOM     16  C   UNL     1       0.052  -6.043  -1.271  0.00  0.00    +0.009 C 
BRANCH  16  17
ATOM     17  C   UNL     1      -0.088  -6.706  -2.643  0.00  0.00    +0.002 C 
BRANCH  17  18
ATOM     18  C   UNL     1      -0.451  -8.181  -2.462  0.00  0.00    +0.016 C 
BRANCH  18  19
ATOM     19  C   UNL     1      -0.591  -8.844  -3.834  0.00  0.00    +0.069 C 
ATOM     20  C   UNL     1      -0.981 -10.293  -3.702  0.00  0.00    +0.108 C 
ATOM     21  C   UNL     1      -0.471 -11.062  -4.960  0.00  0.00    +0.105 C 
ATOM     22  C   UNL     1       1.041 -10.855  -4.976  0.00  0.00    +0.093 C 
ATOM     23  S   UNL     1       1.055  -9.007  -4.670  0.00  0.00    -0.154 S 
ATOM     24  N   UNL     1      -1.052 -12.359  -4.692  0.00  0.00    -0.294 N 
ATOM     25  C   UNL     1      -2.226 -12.104  -4.040  0.00  0.00    +0.300 C 
ATOM     26  O   UNL     1      -3.100 -12.934  -3.877  0.00  0.00    -0.253 OA
ATOM     27  N   UNL     1      -2.312 -10.816  -3.609  0.00  0.00    -0.294 N 
ATOM     28  H   UNL     1      -0.687 -13.226  -4.927  0.00  0.00    +0.151 HD
ATOM     29  H   UNL     1      -3.107 -10.355  -3.299  0.00  0.00    +0.151 HD
ENDBRANCH  18  19
ENDBRANCH  17  18
ENDBRANCH  16  17
ENDBRANCH   1  16
TORSDOF 6
