REMARK  Name = ZINC64502495
REMARK  7 active torsions:
REMARK  status: ('A' for Active; 'I' for Inactive)
REMARK    1  A    between atoms: C_1  and  C_2
REMARK    2  A    between atoms: C_6  and  C_9
REMARK    3  A    between atoms: N_11  and  C_12
REMARK    4  A    between atoms: C_16  and  C_18
REMARK    5  A    between atoms: N_20  and  C_21
REMARK    6  A    between atoms: C_21  and  C_22
REMARK    7  A    between atoms: C_22  and  C_23
REMARK                            x       y       z     vdW  Elec       q    Type
REMARK                         _______ _______ _______ _____ _____    ______ ____
ROOT
ATOM      1  C   UNL     1      -1.793  -1.665   5.004  0.00  0.00    +0.034 A 
ATOM      2  C   UNL     1      -1.663  -2.937   5.550  0.00  0.00    +0.023 A 
ATOM      3  C   UNL     1      -2.084  -3.186   6.843  0.00  0.00    +0.003 A 
ATOM      4  C   UNL     1      -2.636  -2.173   7.601  0.00  0.00    +0.013 A 
ATOM      5  C   UNL     1      -2.770  -0.892   7.062  0.00  0.00    +0.038 A 
ATOM      6  C   UNL     1      -2.340  -0.640   5.759  0.00  0.00    +0.036 A 
ENDROOT
BRANCH   1   9
ATOM      7  C   UNL     1      -0.815  -0.230   3.378  0.00  0.00    +0.246 C 
ATOM      8  O   UNL     1      -0.767   0.656   4.205  0.00  0.00    -0.273 OA
ATOM      9  N   UNL     1      -1.365  -1.419   3.695  0.00  0.00    -0.283 N 
ATOM     10  H   UNL     1      -1.464  -2.104   3.015  0.00  0.00    +0.155 HD
BRANCH   7  15
ATOM     11  C   UNL     1      -0.628  -2.817  -0.949  0.00  0.00    +0.037 C 
ATOM     12  C   UNL     1      -0.086  -1.548  -0.287  0.00  0.00    +0.125 C 
ATOM     13  N   UNL     1       0.868  -1.869   0.819  0.00  0.00    -0.242 NA
ATOM     14  N   UNL     1       0.974  -0.793   1.782  0.00  0.00    -0.234 NA
ATOM     15  C   UNL     1      -0.261  -0.001   1.995  0.00  0.00    +0.214 C 
ATOM     16  S   UNL     1      -1.388  -0.691   0.708  0.00  0.00    -0.112 S 
ATOM     17  H   UNL     1       0.618  -2.736   1.272  0.00  0.00    +0.142 HD
ATOM     18  H   UNL     1       1.345  -1.127   2.659  0.00  0.00    +0.142 HD
ENDBRANCH   7  15
ENDBRANCH   1   9
BRANCH   5  19
ATOM     19  C   UNL     1      -3.361   0.195   7.872  0.00  0.00    +0.244 C 
ATOM     20  O   UNL     1      -3.477   1.309   7.401  0.00  0.00    -0.270 OA
ATOM     21  N   UNL     1      -3.771  -0.050   9.132  0.00  0.00    -0.311 N 
ATOM     22  H   UNL     1      -3.678  -0.939   9.508  0.00  0.00    +0.149 HD
BRANCH  21  23
ATOM     23  C   UNL     1      -4.356   1.027   9.934  0.00  0.00    +0.109 C 
BRANCH  23  24
ATOM     24  C   UNL     1      -4.734   0.487  11.315  0.00  0.00    +0.052 C 
BRANCH  24  25
ATOM     25  C   UNL     1      -5.336   1.595  12.140  0.00  0.00    -0.040 C 
ATOM     26  C   UNL     1      -6.651   1.872  12.294  0.00  0.00    +0.000 A 
ATOM     27  C   UNL     1      -7.867   1.249  11.758  0.00  0.00    +0.030 A 
ATOM     28  C   UNL     1      -9.072   1.763  12.098  0.00  0.00    +0.042 A 
ATOM     29  C   UNL     1      -9.187   2.874  12.947  0.00  0.00    +0.022 A 
ATOM     30  C   UNL     1      -8.115   3.499  13.478  0.00  0.00    +0.027 A 
ATOM     31  C   UNL     1      -6.799   3.042  13.188  0.00  0.00    +0.043 A 
ATOM     32  N   UNL     1      -5.622   3.472  13.572  0.00  0.00    -0.380 N 
ATOM     33  C   UNL     1      -4.593   2.618  12.970  0.00  0.00    +0.144 C 
ATOM     34 CL   UNL     1     -10.513   1.029  11.466  0.00  0.00    -0.084 Cl
ATOM     35  H   UNL     1      -5.459   4.226  14.160  0.00  0.00    +0.160 HD
ENDBRANCH  24  25
ENDBRANCH  23  24
ENDBRANCH  21  23
ENDBRANCH   5  19
TORSDOF 6
