REMARK  Name = ZINC66533720
REMARK  5 active torsions:
REMARK  status: ('A' for Active; 'I' for Inactive)
REMARK    1  A    between atoms: N_4  and  C_6
REMARK    2  A    between atoms: N_9  and  C_12
REMARK    3  A    between atoms: C_12  and  C_13
REMARK    4  A    between atoms: N_15  and  C_16
REMARK    5  A    between atoms: C_17  and  C_24
REMARK                            x       y       z     vdW  Elec       q    Type
REMARK                         _______ _______ _______ _____ _____    ______ ____
ROOT
ATOM      1  C   UNL     1       4.219  -6.073   1.280  0.00  0.00    +0.232 C 
ATOM      2  O   UNL     1       4.946  -5.343   0.639  0.00  0.00    -0.274 OA
ATOM      3  N   UNL     1       4.693  -7.235   1.770  0.00  0.00    -0.278 N 
ATOM      4  H   UNL     1       4.112  -7.819   2.283  0.00  0.00    +0.155 HD
ENDROOT
BRANCH   3   5
ATOM      5  C   UNL     1       6.012  -7.598   1.542  0.00  0.00    +0.084 A 
ATOM      6  C   UNL     1       6.663  -8.744   1.959  0.00  0.00    +0.068 A 
ATOM      7  C   UNL     1       8.069  -8.890   1.583  0.00  0.00    -0.023 A 
ATOM      8  C   UNL     1       8.554  -7.862   0.865  0.00  0.00    -0.004 A 
ATOM      9  S   UNL     1       7.182  -6.750   0.691  0.00  0.00    -0.077 S 
ATOM     10  C   UNL     1      10.002  -8.061   0.509  0.00  0.00    +0.043 C 
ATOM     11  C   UNL     1      10.492  -9.167   1.470  0.00  0.00    +0.010 C 
ATOM     12  C   UNL     1       9.181  -9.917   1.781  0.00  0.00    +0.037 C 
BRANCH   6  13
ATOM     13  C   UNL     1       5.973  -9.770   2.746  0.00  0.00    +0.244 C 
ATOM     14  O   UNL     1       5.398 -10.684   2.183  0.00  0.00    -0.270 OA
ATOM     15  N   UNL     1       5.974  -9.702   4.092  0.00  0.00    -0.325 N 
ATOM     16  H   UNL     1       6.433  -8.974   4.540  0.00  0.00    +0.145 HD
ATOM     17  H   UNL     1       5.518 -10.382   4.612  0.00  0.00    +0.145 HD
ENDBRANCH   6  13
ENDBRANCH   3   5
BRANCH   1  18
ATOM     18  C   UNL     1       2.786  -5.679   1.528  0.00  0.00    +0.180 C 
BRANCH  18  22
ATOM     19  C   UNL     1       1.618  -1.641   0.747  0.00  0.00    -0.066 C 
ATOM     20  C   UNL     1       0.825  -2.790   0.118  0.00  0.00    +0.000 C 
ATOM     21  C   UNL     1       1.082  -4.074   0.910  0.00  0.00    +0.083 C 
ATOM     22  N   UNL     1       2.518  -4.380   0.896  0.00  0.00    -0.294 NA
ATOM     23  C   UNL     1       3.296  -3.312   1.537  0.00  0.00    +0.083 C 
ATOM     24  C   UNL     1       3.105  -2.006   0.763  0.00  0.00    +0.000 C 
BRANCH  19  28
ATOM     25  C   UNL     1      -0.019   1.536   0.011  0.00  0.00    -0.020 C 
ATOM     26  C   UNL     1       1.468   1.960  -0.001  0.00  0.00    -0.020 C 
ATOM     27  C   UNL     1       2.191   0.705   0.550  0.00  0.00    -0.079 C 
ATOM     28  N   UNL     1       1.421  -0.418  -0.044  0.00  0.00    +0.382 N 
ATOM     29  C   UNL     1       0.002  -0.004   0.002  0.00  0.00    -0.079 C 
ATOM     30  H   UNL     1       1.708  -0.571  -0.999  0.00  0.00    -0.081 HD
ENDBRANCH  19  28
ENDBRANCH  18  22
ENDBRANCH   1  18
TORSDOF 5
