REMARK  Name = ZINC32926516
REMARK  12 active torsions:
REMARK  status: ('A' for Active; 'I' for Inactive)
REMARK    1  A    between atoms: C_1  and  C_2
REMARK    2  A    between atoms: C_3  and  C_10
REMARK    3  A    between atoms: C_5  and  N_9
REMARK    4  A    between atoms: C_6  and  C_7
REMARK    5  A    between atoms: N_12  and  N_13
REMARK    6  A    between atoms: C_14  and  C_15
REMARK    7  A    between atoms: C_18  and  C_21
REMARK    8  A    between atoms: N_22  and  N_23
REMARK    9  A    between atoms: C_24  and  C_26
REMARK   10  A    between atoms: C_28  and  N_34
REMARK   11  A    between atoms: C_29  and  C_32
REMARK   12  A    between atoms: C_30  and  C_31
REMARK                            x       y       z     vdW  Elec       q    Type
REMARK                         _______ _______ _______ _____ _____    ______ ____
ROOT
ATOM      1  C   UNL     1      -1.472  -3.220  -5.587  0.00  0.00    -0.005 A 
ATOM      2  C   UNL     1      -0.877  -3.518  -4.356  0.00  0.00    +0.010 A 
ATOM      3  C   UNL     1      -0.355  -4.760  -4.133  0.00  0.00    +0.010 A 
ATOM      4  C   UNL     1      -0.416  -5.735  -5.135  0.00  0.00    -0.005 A 
ATOM      5  C   UNL     1      -1.012  -5.437  -6.365  0.00  0.00    +0.010 A 
ATOM      6  C   UNL     1      -1.538  -4.197  -6.587  0.00  0.00    +0.010 A 
ENDROOT
BRANCH   1   8
ATOM      7  N   UNL     1      -1.717  -0.893  -5.046  0.00  0.00    -0.187 NA
ATOM      8  C   UNL     1      -2.035  -1.881  -5.827  0.00  0.00    +0.138 C 
BRANCH   7  11
ATOM      9  C   UNL     1      -0.268   0.018  -3.392  0.00  0.00    +0.270 C 
ATOM     10  O   UNL     1      -1.050   0.938  -3.232  0.00  0.00    -0.268 OA
ATOM     11  N   UNL     1      -0.537  -0.947  -4.293  0.00  0.00    -0.203 N 
ATOM     12  H   UNL     1       0.086  -1.680  -4.420  0.00  0.00    +0.178 HD
BRANCH   9  15
ATOM     13  C   UNL     1       0.624   2.064  -1.266  0.00  0.00    +0.046 C 
ATOM     14  C   UNL     1       1.411   0.837  -1.651  0.00  0.00    -0.012 A 
ATOM     15  C   UNL     1       0.963  -0.039  -2.605  0.00  0.00    +0.081 A 
ATOM     16  S   UNL     1       2.256  -1.264  -2.649  0.00  0.00    -0.068 S 
ATOM     17  C   UNL     1       3.282  -0.627  -1.482  0.00  0.00    +0.081 A 
ATOM     18  C   UNL     1       2.630   0.535  -1.062  0.00  0.00    +0.083 A 
BRANCH  17  19
ATOM     19  N   UNL     1       4.487  -1.129  -1.046  0.00  0.00    -0.352 N 
ATOM     20  H   UNL     1       4.835  -1.951  -1.424  0.00  0.00    +0.143 HD
ATOM     21  H   UNL     1       4.987  -0.661  -0.359  0.00  0.00    +0.143 HD
ENDBRANCH  17  19
BRANCH  18  22
ATOM     22  C   UNL     1       3.198   1.382  -0.057  0.00  0.00    +0.102 C 
ATOM     23  N   UNL     1       3.649   2.054   0.740  0.00  0.00    -0.191 NA
ENDBRANCH  18  22
ENDBRANCH   9  15
ENDBRANCH   7  11
ENDBRANCH   1   8
BRANCH   4  24
ATOM     24  C   UNL     1       0.148  -7.074  -4.895  0.00  0.00    +0.138 C 
ATOM     25  N   UNL     1       0.286  -7.907  -5.882  0.00  0.00    -0.187 NA
BRANCH  25  26
ATOM     26  N   UNL     1       0.487  -7.426  -7.182  0.00  0.00    -0.203 N 
ATOM     27  C   UNL     1       0.500  -8.281  -8.223  0.00  0.00    +0.270 C 
ATOM     28  O   UNL     1       0.337  -9.473  -8.034  0.00  0.00    -0.268 OA
ATOM     29  H   UNL     1       0.617  -6.476  -7.333  0.00  0.00    +0.178 HD
BRANCH  27  30
ATOM     30  C   UNL     1       0.710  -7.779  -9.580  0.00  0.00    +0.081 A 
ATOM     31  S   UNL     1       0.978  -6.101 -10.116  0.00  0.00    -0.068 S 
ATOM     32  C   UNL     1       1.126  -6.359 -11.769  0.00  0.00    +0.081 A 
ATOM     33  C   UNL     1       0.969  -7.740 -11.908  0.00  0.00    +0.083 A 
ATOM     34  C   UNL     1       0.756  -8.482 -10.755  0.00  0.00    -0.012 A 
ATOM     35  C   UNL     1       0.582  -9.979 -10.794  0.00  0.00    +0.046 C 
BRANCH  32  36
ATOM     36  N   UNL     1       1.350  -5.427 -12.757  0.00  0.00    -0.352 N 
ATOM     37  H   UNL     1       1.442  -4.489 -12.527  0.00  0.00    +0.143 HD
ATOM     38  H   UNL     1       1.415  -5.707 -13.683  0.00  0.00    +0.143 HD
ENDBRANCH  32  36
BRANCH  33  39
ATOM     39  C   UNL     1       1.030  -8.368 -13.194  0.00  0.00    +0.102 C 
ATOM     40  N   UNL     1       1.079  -8.866 -14.213  0.00  0.00    -0.191 NA
ENDBRANCH  33  39
ENDBRANCH  27  30
ENDBRANCH  25  26
ENDBRANCH   4  24
TORSDOF 10
