REMARK  Name = ZINC65298096
REMARK  4 active torsions:
REMARK  status: ('A' for Active; 'I' for Inactive)
REMARK    1  A    between atoms: C_1  and  C_2
REMARK    2  A    between atoms: C_5  and  C_8
REMARK    3  A    between atoms: C_17  and  C_20
REMARK    4  A    between atoms: C_25  and  O_26
REMARK                            x       y       z     vdW  Elec       q    Type
REMARK                         _______ _______ _______ _____ _____    ______ ____
ROOT
ATOM      1  C   UNL     1       0.059  -4.249  -0.021  0.00  0.00    +0.047 C 
ATOM      2  N   UNL     1       0.067  -4.852  -1.150  0.00  0.00    -0.266 NA
ATOM      3  C   UNL     1       0.097  -6.302  -1.304  0.00  0.00    +0.109 C 
ATOM      4  C   UNL     1      -0.858  -6.718  -2.428  0.00  0.00    +0.027 C 
ATOM      5  C   UNL     1      -0.381  -6.104  -3.746  0.00  0.00    -0.079 C 
ATOM      6  N   UNL     1       0.972  -6.585  -4.052  0.00  0.00    +0.379 N 
ATOM      7  C   UNL     1       1.907  -6.134  -3.015  0.00  0.00    -0.079 C 
ATOM      8  C   UNL     1       1.517  -6.749  -1.669  0.00  0.00    +0.027 C 
ATOM      9  N   UNL     1      -0.310  -6.960  -0.055  0.00  0.00    -0.286 NA
ATOM     10  C   UNL     1       0.473  -6.433   1.075  0.00  0.00    +0.095 C 
ATOM     11  C   UNL     1       0.075  -4.972   1.297  0.00  0.00    +0.079 C 
ATOM     12  H   UNL     1       0.970  -7.593  -4.087  0.00  0.00    -0.086 HD
ATOM     13  H   UNL     1      -1.300  -6.847   0.107  0.00  0.00    +0.125 HD
ATOM     14  H   UNL     1       1.262  -6.220  -4.947  0.00  0.00    -0.086 HD
ENDROOT
BRANCH   1  19
ATOM     15  C   UNL     1      -0.018   1.503   0.010  0.00  0.00    +0.044 C 
ATOM     16  C   UNL     1       0.002  -0.004   0.002  0.00  0.00    -0.050 A 
ATOM     17  C   UNL     1       0.006  -0.686  -1.202  0.00  0.00    +0.004 A 
ATOM     18  C   UNL     1       0.024  -2.065  -1.217  0.00  0.00    +0.010 A 
ATOM     19  C   UNL     1       0.040  -2.773  -0.013  0.00  0.00    -0.004 A 
ATOM     20  C   UNL     1       0.036  -2.079   1.198  0.00  0.00    +0.010 A 
ATOM     21  C   UNL     1       0.023  -0.699   1.198  0.00  0.00    +0.004 A 
ENDBRANCH   1  19
BRANCH  10  22
ATOM     22  C   UNL     1       0.181  -7.236   2.316  0.00  0.00    +0.012 A 
ATOM     23  C   UNL     1      -0.971  -7.997   2.391  0.00  0.00    +0.024 A 
ATOM     24  C   UNL     1      -1.240  -8.735   3.530  0.00  0.00    +0.018 A 
ATOM     25  C   UNL     1      -0.357  -8.713   4.596  0.00  0.00    +0.019 A 
ATOM     26  C   UNL     1       0.795  -7.955   4.524  0.00  0.00    +0.047 A 
ATOM     27  C   UNL     1       1.069  -7.218   3.381  0.00  0.00    +0.122 A 
ATOM     28 BR   UNL     1      -2.817  -9.774   3.631  0.00  0.00    -0.050 Br
BRANCH  27  29
ATOM     29  O   UNL     1       2.205  -6.475   3.306  0.00  0.00    -0.506 OA
ATOM     30  H   UNL     1       2.105  -5.569   3.631  0.00  0.00    +0.292 HD
ENDBRANCH  27  29
ENDBRANCH  10  22
TORSDOF 3
