REMARK  Name = ZINC43553452
REMARK  18 active torsions:
REMARK  status: ('A' for Active; 'I' for Inactive)
REMARK    1  A    between atoms: CD1_1  and  CG_2
REMARK    2  A    between atoms: CG_2  and  CD2_3
REMARK    3  A    between atoms: CG_2  and  CB_4
REMARK    4  A    between atoms: CB_4  and  CA_5
REMARK    5  A    between atoms: CA_5  and  C_7
REMARK    6  A    between atoms: CA_5  and  N_9
REMARK    7  A    between atoms: C_7  and  O_8
REMARK    8  A    between atoms: C_10  and  C_12
REMARK    9  A    between atoms: C_12  and  C_13
REMARK   10  A    between atoms: C_21  and  C_23
REMARK   11  A    between atoms: C_23  and  C_24
REMARK   12  A    between atoms: C_23  and  C_25
REMARK   13  A    between atoms: C_23  and  C_26
REMARK   14  A    between atoms: C_30  and  C_40
REMARK   15  A    between atoms: C_33  and  O_39
REMARK   16  A    between atoms: C_35  and  C_36
REMARK   17  A    between atoms: C_35  and  C_37
REMARK   18  A    between atoms: C_37  and  O_38
REMARK                            x       y       z     vdW  Elec       q    Type
REMARK                         _______ _______ _______ _____ _____    ______ ____
ROOT
ATOM      1  C   UNK A   0      -1.178  -0.282  -6.008  0.00  0.00    +0.054 C 
ATOM      2  C   UNK A   0      -2.628  -0.394  -6.432  0.00  0.00    +0.058 A 
ATOM      3  C   UNK A   0      -2.947  -0.108  -7.719  0.00  0.00    +0.015 A 
ATOM      4  S   UNK A   0      -4.701  -0.365  -7.738  0.00  0.00    -0.057 S 
ATOM      5  C   UNK A   0      -4.877  -0.808  -6.122  0.00  0.00    +0.165 A 
ATOM      6  N   UNK A   0      -3.647  -0.747  -5.659  0.00  0.00    -0.229 NA
ATOM      7  N   UNK A   0      -6.039  -1.154  -5.442  0.00  0.00    -0.264 N 
ATOM      8  C   UNK A   0      -7.221  -1.160  -6.089  0.00  0.00    +0.224 C 
ATOM      9  O   UNK A   0      -7.271  -0.864  -7.264  0.00  0.00    -0.275 OA
ATOM     10  C   UNK A   0      -2.035   0.309  -8.815  0.00  0.00    +0.049 C 
ATOM     11  C   UNK A   0      -0.574   0.442  -8.346  0.00  0.00    +0.011 C 
ATOM     12  C   UNK A   0      -0.273  -0.537  -7.218  0.00  0.00    -0.019 C 
ATOM     13  C   UNK A   0      -0.413  -1.962  -7.739  0.00  0.00    +0.010 C 
ATOM     14  C   UNK A   0       0.611  -2.197  -8.849  0.00  0.00    +0.032 C 
ATOM     15  C   UNK A   0       0.443  -1.217  -9.994  0.00  0.00    +0.123 C 
ATOM     16  C   UNK A   0       0.311   0.238  -9.575  0.00  0.00    +0.021 C 
ATOM     17  C   UNK A   0       1.699   0.866  -9.395  0.00  0.00    +0.016 C 
ATOM     18  C   UNK A   0       1.153  -0.349  -6.678  0.00  0.00    +0.012 C 
ATOM     19  H   UNK A   0      -5.998  -1.391  -4.502  0.00  0.00    +0.157 HD
ENDROOT
BRANCH   8  20
ATOM     20  C   UNK A   0      -8.481  -1.534  -5.352  0.00  0.00    +0.039 C 
ATOM     21  C   UNK A   0      -9.672  -1.462  -6.309  0.00  0.00    +0.020 C 
ATOM     22  C   UNK A   0      -8.350  -2.959  -4.808  0.00  0.00    +0.020 C 
ATOM     23  C   UNK A   0      -8.700  -0.563  -4.190  0.00  0.00    +0.020 C 
ENDBRANCH   8  20
BRANCH  15  24
ATOM     24  O   UNK A   0      -0.675  -1.602 -10.802  0.00  0.00    -0.391 OA
ATOM     25  H   UNK A   0      -0.593  -2.483 -11.193  0.00  0.00    +0.210 HD
ENDBRANCH  15  24
BRANCH   1  26
ATOM     26  C   UNK A   0      -0.868  -1.269  -4.886  0.00  0.00    +0.106 C 
BRANCH  26  28
ATOM     27  N   LEU A   1      -1.527  -1.621  -2.528  0.00  0.00    -0.310 N 
ATOM     28  C   UNK A   0      -1.644  -0.886  -3.652  0.00  0.00    +0.214 C 
ATOM     29  O   UNK A   0      -2.373   0.083  -3.670  0.00  0.00    -0.276 OA
ATOM     30  H   LEU A   1      -0.944  -2.396  -2.514  0.00  0.00    +0.149 HD
BRANCH  27  31
ATOM     31  CA  LEU A   1      -2.280  -1.248  -1.328  0.00  0.00    +0.098 C 
BRANCH  31  32
ATOM     32  CB  LEU A   1      -1.560  -1.781  -0.088  0.00  0.00    +0.027 C 
BRANCH  32  34
ATOM     33  CD1 LEU A   1      -0.423   0.405   0.321  0.00  0.00    +0.007 C 
ATOM     34  CG  LEU A   1      -0.205  -1.085   0.053  0.00  0.00    -0.015 C 
ATOM     35  CD2 LEU A   1       0.568  -1.705   1.219  0.00  0.00    +0.007 C 
ENDBRANCH  32  34
ENDBRANCH  31  32
BRANCH  31  36
ATOM     36  C   LEU A   1      -3.685  -1.851  -1.401  0.00  0.00    +0.178 C 
BRANCH  36  37
ATOM     37  O   LEU A   1      -3.594  -3.277  -1.363  0.00  0.00    -0.393 OA
ATOM     38  H   LEU A   1      -4.449  -3.727  -1.405  0.00  0.00    +0.209 HD
ENDBRANCH  36  37
ENDBRANCH  31  36
ENDBRANCH  27  31
ENDBRANCH  26  28
ENDBRANCH   1  26
BRANCH  16  39
ATOM     39  C   UNK A   0      -0.329   1.001 -10.766  0.00  0.00    +0.165 C 
BRANCH  39  40
ATOM     40  O   UNK A   0       0.479   0.827 -11.932  0.00  0.00    -0.394 OA
ATOM     41  H   UNK A   0       0.138   1.278 -12.716  0.00  0.00    +0.209 HD
ENDBRANCH  39  40
ENDBRANCH  16  39
TORSDOF 11
