REMARK  Name = ZINC39623339
REMARK  7 active torsions:
REMARK  status: ('A' for Active; 'I' for Inactive)
REMARK    1  A    between atoms: C_1  and  C_2
REMARK    2  A    between atoms: C_2  and  C_3
REMARK    3  A    between atoms: C_3  and  C_4
REMARK    4  A    between atoms: C_4  and  C_5
REMARK    5  A    between atoms: C_5  and  N_6
REMARK    6  A    between atoms: C_7  and  C_9
REMARK    7  A    between atoms: C_20  and  C_22
REMARK                            x       y       z     vdW  Elec       q    Type
REMARK                         _______ _______ _______ _____ _____    ______ ____
ROOT
ATOM      1  C   UNL     1      -3.713  -6.858  -0.019  0.00  0.00    +0.100 C 
ATOM      2  C   UNL     1      -2.985  -7.081   1.325  0.00  0.00    +0.121 C 
ATOM      3  N   UNL     1      -4.073  -7.288   2.310  0.00  0.00    -0.296 N 
ATOM      4  C   UNL     1      -5.074  -8.108   1.587  0.00  0.00    +0.115 C 
ATOM      5  C   UNL     1      -5.082  -7.536   0.155  0.00  0.00    -0.004 C 
ATOM      6  C   UNL     1      -6.202  -6.512   0.004  0.00  0.00    -0.010 C 
ATOM      7  C   UNL     1      -7.554  -7.220   0.125  0.00  0.00    -0.082 C 
ATOM      8  N   UNL     1      -7.663  -8.252  -0.914  0.00  0.00    +0.379 N 
ATOM      9  C   UNL     1      -6.639  -9.282  -0.706  0.00  0.00    -0.082 C 
ATOM     10  C   UNL     1      -5.248  -8.661  -0.862  0.00  0.00    -0.010 C 
ATOM     11  C   UNL     1      -4.138  -6.833   3.577  0.00  0.00    +0.247 C 
ATOM     12  O   UNL     1      -3.292  -6.064   3.991  0.00  0.00    -0.270 OA
ATOM     13  H   UNL     1      -8.578  -8.675  -0.871  0.00  0.00    -0.086 HD
ATOM     14  H   UNL     1      -7.534  -7.829  -1.821  0.00  0.00    -0.086 HD
ENDROOT
BRANCH  11  15
ATOM     15  C   UNL     1      -5.237  -7.269   4.464  0.00  0.00    +0.037 A 
ATOM     16  C   UNL     1      -5.930  -8.460   4.181  0.00  0.00    +0.013 A 
ATOM     17  C   UNL     1      -6.943  -8.882   4.980  0.00  0.00    +0.009 A 
ATOM     18  C   UNL     1      -7.312  -8.125   6.108  0.00  0.00    -0.018 A 
ATOM     19  C   UNL     1      -8.357  -8.541   6.949  0.00  0.00    +0.008 A 
ATOM     20  C   UNL     1      -8.691  -7.788   8.033  0.00  0.00    +0.001 A 
ATOM     21  C   UNL     1      -8.013  -6.606   8.323  0.00  0.00    +0.001 A 
ATOM     22  C   UNL     1      -6.995  -6.171   7.531  0.00  0.00    +0.008 A 
ATOM     23  C   UNL     1      -6.621  -6.923   6.403  0.00  0.00    -0.017 A 
ATOM     24  C   UNL     1      -5.572  -6.505   5.569  0.00  0.00    +0.021 A 
ENDBRANCH  11  15
BRANCH   1  26
ATOM     25  N   UNL     1      -4.036  -4.939  -1.546  0.00  0.00    -0.315 N 
ATOM     26  C   UNL     1      -3.887  -5.384  -0.283  0.00  0.00    +0.218 C 
ATOM     27  O   UNL     1      -3.894  -4.599   0.641  0.00  0.00    -0.275 OA
ATOM     28  H   UNL     1      -4.030  -5.567  -2.286  0.00  0.00    +0.149 HD
BRANCH  25  29
ATOM     29  C   UNL     1      -4.205  -3.507  -1.803  0.00  0.00    +0.104 C 
BRANCH  29  30
ATOM     30  C   UNL     1      -4.352  -3.272  -3.308  0.00  0.00    +0.019 C 
BRANCH  30  31
ATOM     31  C   UNL     1      -4.529  -1.776  -3.576  0.00  0.00    +0.001 C 
BRANCH  31  33
ATOM     32  C   UNL     1      -4.852  -0.045  -5.349  0.00  0.00    +0.004 C 
ATOM     33  C   UNL     1      -4.675  -1.541  -5.081  0.00  0.00    -0.003 C 
ENDBRANCH  31  33
ENDBRANCH  30  31
ENDBRANCH  29  30
ENDBRANCH  25  29
ENDBRANCH   1  26
TORSDOF 6
