REMARK  Name = ZINC38664304
REMARK  1 active torsions:
REMARK  status: ('A' for Active; 'I' for Inactive)
REMARK    1  A    between atoms: C_15  and  C_21
REMARK                            x       y       z     vdW  Elec       q    Type
REMARK                         _______ _______ _______ _____ _____    ______ ____
ROOT
ATOM      1  C   UNL     1      -0.017   1.388   0.010  0.00  0.00    +0.000 A 
ATOM      2  C   UNL     1       1.150   2.126   0.003  0.00  0.00    +0.002 A 
ATOM      3  C   UNL     1       2.399   1.528  -0.024  0.00  0.00    +0.028 A 
ATOM      4  C   UNL     1       2.437   0.126  -0.040  0.00  0.00    +0.068 A 
ATOM      5  C   UNL     1       1.234  -0.613  -0.013  0.00  0.00    -0.013 A 
ATOM      6  C   UNL     1       0.002  -0.004   0.002  0.00  0.00    +0.006 A 
ATOM      7  C   UNL     1       1.654  -2.044   0.028  0.00  0.00    +0.071 C 
ATOM      8  C   UNL     1       1.139  -2.862  -1.157  0.00  0.00    +0.020 C 
ATOM      9  C   UNL     1       1.695  -4.283  -1.072  0.00  0.00    +0.054 C 
ATOM     10  C   UNL     1       3.196  -4.318  -0.985  0.00  0.00    +0.043 C 
ATOM     11  N   UNL     1       3.851  -5.385  -1.372  0.00  0.00    -0.183 NA
ATOM     12  C   UNL     1       5.170  -5.498  -1.275  0.00  0.00    +0.257 C 
ATOM     13  O   UNL     1       5.688  -6.513  -1.695  0.00  0.00    -0.272 OA
ATOM     14  C   UNL     1       6.059  -4.450  -0.679  0.00  0.00    +0.202 C 
ATOM     15  C   UNL     1       5.280  -3.224  -0.294  0.00  0.00    +0.012 C 
ATOM     16  C   UNL     1       3.949  -3.166  -0.458  0.00  0.00    +0.014 C 
ATOM     17  C   UNL     1       3.172  -1.950  -0.142  0.00  0.00    +0.058 C 
ATOM     18  N   UNL     1       3.503  -0.710  -0.092  0.00  0.00    -0.251 NA
ENDROOT
BRANCH  14  19
ATOM     19  C   UNL     1       7.088  -4.076  -1.663  0.00  0.00    +0.080 C 
ATOM     20  N   UNL     1       7.883  -3.787  -2.422  0.00  0.00    -0.195 NA
ENDBRANCH  14  19
TORSDOF 1
