REMARK  Name = ZINC45551529
REMARK  10 active torsions:
REMARK  status: ('A' for Active; 'I' for Inactive)
REMARK    1  A    between atoms: C_1  and  C_2
REMARK    2  A    between atoms: C_2  and  N_3
REMARK    3  A    between atoms: N_3  and  C_4
REMARK    4  A    between atoms: C_4  and  C_5
REMARK    5  A    between atoms: C_4  and  C_6
REMARK    6  A    between atoms: C_4  and  C_17
REMARK    7  A    between atoms: C_6  and  C_7
REMARK    8  A    between atoms: C_7  and  C_8
REMARK    9  A    between atoms: C_8  and  S_9
REMARK   10  A    between atoms: S_9  and  C_10
REMARK                            x       y       z     vdW  Elec       q    Type
REMARK                         _______ _______ _______ _____ _____    ______ ____
ROOT
ATOM      1  C   UNL     1       0.710  -1.947  -1.215  0.00  0.00    +0.007 C 
ATOM      2  C   UNL     1      -0.726  -2.476  -1.204  0.00  0.00    -0.001 C 
ENDROOT
BRANCH   1   3
ATOM      3  C   UNL     1       1.438  -2.446   0.006  0.00  0.00    +0.199 C 
ATOM      4  O   UNL     1       1.078  -3.467   0.552  0.00  0.00    -0.278 OA
ATOM      5  N   UNL     1       2.491  -1.757   0.491  0.00  0.00    -0.330 N 
ATOM      6  H   UNL     1       2.779  -0.941   0.055  0.00  0.00    +0.145 HD
ATOM      7  H   UNL     1       2.960  -2.079   1.277  0.00  0.00    +0.145 HD
ENDBRANCH   1   3
BRANCH   1   8
ATOM      8  N   UNL     1       0.690  -0.478  -1.207  0.00  0.00    +0.388 N 
ATOM      9  H   UNL     1       0.202  -0.144  -2.024  0.00  0.00    -0.084 HD
ATOM     10  H   UNL     1       1.636  -0.129  -1.214  0.00  0.00    -0.084 HD
BRANCH   8  12
ATOM     11  C   UNL     1      -0.019   1.526   0.010  0.00  0.00    -0.017 C 
ATOM     12  C   UNL     1       0.002  -0.004   0.002  0.00  0.00    -0.085 C 
ENDBRANCH   8  12
ENDBRANCH   1   8
BRANCH   1  13
ATOM     13  C   UNL     1       1.426  -2.440  -2.474  0.00  0.00    -0.003 C 
BRANCH  13  14
ATOM     14  C   UNL     1       1.446  -3.970  -2.482  0.00  0.00    +0.010 C 
BRANCH  14  15
ATOM     15  C   UNL     1       2.163  -4.463  -3.741  0.00  0.00    +0.074 C 
BRANCH  15  16
ATOM     16  S   UNL     1       2.187  -6.277  -3.751  0.00  0.00    -0.125 S 
BRANCH  16  17
ATOM     17  C   UNL     1       3.034  -6.684  -5.242  0.00  0.00    +0.008 A 
ATOM     18  C   UNL     1       3.500  -5.674  -6.075  0.00  0.00    +0.016 A 
ATOM     19  C   UNL     1       4.164  -5.996  -7.242  0.00  0.00    +0.016 A 
ATOM     20  C   UNL     1       4.364  -7.322  -7.583  0.00  0.00    +0.018 A 
ATOM     21  C   UNL     1       3.900  -8.330  -6.755  0.00  0.00    +0.016 A 
ATOM     22  C   UNL     1       3.241  -8.015  -5.584  0.00  0.00    +0.016 A 
ATOM     23 BR   UNL     1       5.272  -7.759  -9.183  0.00  0.00    -0.050 Br
ENDBRANCH  16  17
ENDBRANCH  15  16
ENDBRANCH  14  15
ENDBRANCH  13  14
ENDBRANCH   1  13
TORSDOF 8
