REMARK  Name = ZINC12329188
REMARK  8 active torsions:
REMARK  status: ('A' for Active; 'I' for Inactive)
REMARK    1  A    between atoms: C_1  and  C_2
REMARK    2  A    between atoms: C_3  and  C_14
REMARK    3  A    between atoms: C_6  and  O_12
REMARK    4  A    between atoms: O_12  and  C_13
REMARK    5  A    between atoms: C_14  and  C_16
REMARK    6  A    between atoms: C_14  and  O_33
REMARK    7  A    between atoms: C_16  and  N_61
REMARK    8  A    between atoms: C_23  and  O_32
REMARK                            x       y       z     vdW  Elec       q    Type
REMARK                         _______ _______ _______ _____ _____    ______ ____
ROOT
ATOM      1  C   UNL     1      -3.413   5.271  -3.084  0.00  0.00    -0.075 C 
ATOM      2  C   UNL     1      -2.344   6.202  -2.508  0.00  0.00    +0.029 C 
ATOM      3  C   UNL     1      -2.268   6.011  -0.992  0.00  0.00    +0.110 C 
ATOM      4  C   UNL     1      -3.643   6.275  -0.376  0.00  0.00    +0.029 C 
ATOM      5  C   UNL     1      -4.673   5.341  -1.015  0.00  0.00    -0.075 C 
ATOM      6  C   UNL     1      -1.246   6.989  -0.403  0.00  0.00    +0.084 C 
ATOM      7  C   UNL     1       0.092   6.775  -1.116  0.00  0.00    +0.152 C 
ATOM      8  C   UNL     1       0.416   5.303  -1.156  0.00  0.00    +0.023 A 
ATOM      9  C   UNL     1       1.721   4.915  -1.408  0.00  0.00    +0.010 A 
ATOM     10  C   UNL     1       2.052   3.575  -1.459  0.00  0.00    +0.001 A 
ATOM     11  C   UNL     1       1.078   2.614  -1.259  0.00  0.00    +0.004 A 
ATOM     12  C   UNL     1      -0.224   2.995  -1.011  0.00  0.00    +0.046 A 
ATOM     13  C   UNL     1      -0.560   4.344  -0.951  0.00  0.00    +0.127 A 
ATOM     14  O   UNL     1      -1.851   4.679  -0.693  0.00  0.00    -0.485 OA
ATOM     15  N   UNL     1      -4.717   5.601  -2.470  0.00  0.00    +0.382 N 
ATOM     16  H   UNL     1      -4.916   6.596  -2.625  0.00  0.00    -0.082 HD
ENDROOT
BRANCH   7  17
ATOM     17  O   UNL     1       1.123   7.470  -0.412  0.00  0.00    -0.387 OA
ATOM     18  H   UNL     1       2.000   7.381  -0.809  0.00  0.00    +0.210 HD
ENDBRANCH   7  17
BRANCH  15  19
ATOM     19  C   UNL     1      -5.786   4.795  -3.094  0.00  0.00    -0.042 C 
BRANCH  19  20
ATOM     20  C   UNL     1      -7.105   5.068  -2.368  0.00  0.00    +0.130 C 
BRANCH  20  23
ATOM     21  C   UNL     1      -8.441   2.453  -1.363  0.00  0.00    +0.063 C 
ATOM     22  C   UNL     1      -8.804   3.191  -2.626  0.00  0.00    +0.019 A 
ATOM     23  C   UNL     1      -8.220   4.322  -3.053  0.00  0.00    +0.007 A 
ATOM     24  C   UNL     1      -8.868   4.689  -4.314  0.00  0.00    +0.009 A 
ATOM     25  C   UNL     1      -8.700   5.738  -5.221  0.00  0.00    +0.056 A 
ATOM     26  C   UNL     1      -9.494   5.799  -6.348  0.00  0.00    +0.121 A 
ATOM     27  C   UNL     1     -10.458   4.821  -6.582  0.00  0.00    +0.047 A 
ATOM     28  C   UNL     1     -10.633   3.783  -5.695  0.00  0.00    +0.030 A 
ATOM     29  C   UNL     1      -9.842   3.703  -4.553  0.00  0.00    +0.047 A 
ATOM     30  N   UNL     1      -9.780   2.809  -3.505  0.00  0.00    -0.358 N 
ATOM     31  H   UNL     1     -10.341   2.023  -3.409  0.00  0.00    +0.166 HD
BRANCH  26  32
ATOM     32  O   UNL     1      -9.335   6.819  -7.234  0.00  0.00    -0.495 OA
ATOM     33  C   UNL     1     -10.190   6.822  -8.379  0.00  0.00    +0.277 C 
ENDBRANCH  26  32
ENDBRANCH  20  23
BRANCH  20  34
ATOM     34  O   UNL     1      -7.382   6.470  -2.396  0.00  0.00    -0.389 OA
ATOM     35  H   UNL     1      -7.523   6.825  -3.284  0.00  0.00    +0.210 HD
ENDBRANCH  20  34
ENDBRANCH  19  20
ENDBRANCH  15  19
TORSDOF 6
