REMARK  Name = ZINC67267138
REMARK  11 active torsions:
REMARK  status: ('A' for Active; 'I' for Inactive)
REMARK    1  A    between atoms: C_1  and  C_2
REMARK    2  A    between atoms: C_2  and  N_3
REMARK    3  A    between atoms: N_6  and  C_7
REMARK    4  A    between atoms: C_7  and  C_12
REMARK    5  A    between atoms: N_14  and  C_15
REMARK    6  A    between atoms: C_15  and  C_16
REMARK    7  A    between atoms: C_16  and  C_18
REMARK    8  A    between atoms: C_16  and  N_25
REMARK    9  A    between atoms: C_21  and  C_24
REMARK   10  A    between atoms: N_25  and  C_26
REMARK   11  A    between atoms: N_25  and  C_27
REMARK                            x       y       z     vdW  Elec       q    Type
REMARK                         _______ _______ _______ _____ _____    ______ ____
ROOT
ATOM      1  C   UNL     1       2.614  -4.330  -1.579  0.00  0.00    +0.237 C 
ATOM      2  O   UNL     1       3.597  -5.041  -1.605  0.00  0.00    -0.273 OA
ATOM      3  N   UNL     1       2.096  -3.939  -0.398  0.00  0.00    -0.315 N 
ATOM      4  H   UNL     1       1.357  -3.310  -0.377  0.00  0.00    +0.149 HD
ENDROOT
BRANCH   1   5
ATOM      5  C   UNL     1       1.972  -3.885  -2.868  0.00  0.00    +0.112 C 
ATOM      6  C   UNL     1       0.935  -4.930  -3.332  0.00  0.00    +0.035 C 
ATOM      7  C   UNL     1       1.075  -4.945  -4.874  0.00  0.00    +0.003 C 
ATOM      8  C   UNL     1       2.601  -4.786  -5.081  0.00  0.00    +0.003 C 
ATOM      9  C   UNL     1       3.031  -3.794  -3.981  0.00  0.00    +0.035 C 
BRANCH   5  13
ATOM     10  N   UNL     1      -0.260  -1.255  -1.602  0.00  0.00    -0.300 N 
ATOM     11  C   UNL     1       0.267  -2.469  -1.857  0.00  0.00    +0.300 C 
ATOM     12  O   UNL     1      -0.212  -3.460  -1.341  0.00  0.00    -0.253 OA
ATOM     13  N   UNL     1       1.325  -2.584  -2.683  0.00  0.00    -0.285 N 
ATOM     14  H   UNL     1       0.122  -0.464  -2.014  0.00  0.00    +0.150 HD
ATOM     15  H   UNL     1       1.659  -1.805  -3.156  0.00  0.00    +0.151 HD
BRANCH  10  17
ATOM     16  C   UNL     1      -1.808   0.343  -0.587  0.00  0.00    +0.024 C 
ATOM     17  C   UNL     1      -1.410  -1.129  -0.703  0.00  0.00    +0.102 C 
ENDBRANCH  10  17
ENDBRANCH   5  13
ENDBRANCH   1   5
BRANCH   3  18
ATOM     18  C   UNL     1       2.648  -4.463   0.853  0.00  0.00    +0.093 C 
BRANCH  18  19
ATOM     19  C   UNL     1       2.011  -5.819   1.164  0.00  0.00    -0.021 C 
BRANCH  19  20
ATOM     20  C   UNL     1       0.536  -5.635   1.413  0.00  0.00    -0.059 A 
ATOM     21  C   UNL     1       0.093  -5.179   2.640  0.00  0.00    +0.002 A 
ATOM     22  C   UNL     1      -1.260  -5.011   2.868  0.00  0.00    +0.003 A 
ATOM     23  C   UNL     1      -2.170  -5.299   1.869  0.00  0.00    -0.050 A 
ATOM     24  C   UNL     1      -1.728  -5.754   0.641  0.00  0.00    +0.003 A 
ATOM     25  C   UNL     1      -0.374  -5.918   0.411  0.00  0.00    +0.002 A 
ATOM     26  C   UNL     1      -3.645  -5.116   2.118  0.00  0.00    +0.044 C 
ENDBRANCH  19  20
BRANCH  19  27
ATOM     27  N   UNL     1       2.642  -6.394   2.360  0.00  0.00    +0.382 N 
ATOM     28  C   UNL     1       2.066  -7.718   2.627  0.00  0.00    -0.096 C 
ATOM     29  C   UNL     1       4.088  -6.523   2.136  0.00  0.00    -0.096 C 
ATOM     30  H   UNL     1       2.476  -5.789   3.151  0.00  0.00    -0.082 HD
ENDBRANCH  19  27
ENDBRANCH  18  19
ENDBRANCH   3  18
TORSDOF 7
