REMARK  Name = ZINC49508788
REMARK  7 active torsions:
REMARK  status: ('A' for Active; 'I' for Inactive)
REMARK    1  A    between atoms: C_1  and  N_2
REMARK    2  A    between atoms: C_9  and  C_11
REMARK    3  A    between atoms: C_11  and  C_13
REMARK    4  A    between atoms: C_11  and  N_34
REMARK    5  A    between atoms: C_13  and  N_14
REMARK    6  A    between atoms: C_15  and  C_17
REMARK    7  A    between atoms: N_19  and  C_20
REMARK                            x       y       z     vdW  Elec       q    Type
REMARK                         _______ _______ _______ _____ _____    ______ ____
ROOT
ATOM      1  N   UNL     1       2.446  -4.631   3.530  0.00  0.00    -0.309 N 
ATOM      2  C   UNL     1       3.745  -4.981   3.611  0.00  0.00    +0.299 C 
ATOM      3  O   UNL     1       4.366  -4.776   4.633  0.00  0.00    -0.265 OA
ATOM      4  H   UNL     1       1.949  -4.795   2.713  0.00  0.00    +0.149 HD
ENDROOT
BRANCH   2   5
ATOM      5  C   UNL     1       4.420  -5.621   2.442  0.00  0.00    +0.303 C 
ATOM      6  O   UNL     1       3.798  -5.826   1.420  0.00  0.00    -0.265 OA
ATOM      7  N   UNL     1       5.719  -5.971   2.523  0.00  0.00    -0.278 N 
ATOM      8  H   UNL     1       6.234  -5.744   3.313  0.00  0.00    +0.155 HD
BRANCH   7   9
ATOM      9  C   UNL     1       6.324  -6.659   1.467  0.00  0.00    +0.034 A 
ATOM     10  C   UNL     1       5.964  -6.379   0.157  0.00  0.00    +0.028 A 
ATOM     11  C   UNL     1       6.566  -7.053  -0.891  0.00  0.00    -0.024 A 
ATOM     12  C   UNL     1       7.539  -8.008  -0.629  0.00  0.00    +0.043 A 
ATOM     13  C   UNL     1       7.887  -8.301   0.684  0.00  0.00    -0.023 A 
ATOM     14  C   UNL     1       7.291  -7.621   1.728  0.00  0.00    +0.028 A 
ATOM     15  C   UNL     1       8.903  -9.373   0.982  0.00  0.00    +0.046 C 
ATOM     16  C   UNL     1       9.955  -9.416  -0.124  0.00  0.00    +0.101 C 
ATOM     17  C   UNL     1       9.281  -9.412  -1.470  0.00  0.00    +0.220 C 
ATOM     18  O   UNL     1       9.748 -10.069  -2.376  0.00  0.00    -0.275 OA
ATOM     19  N   UNL     1       8.168  -8.690  -1.679  0.00  0.00    -0.271 N 
ATOM     20  C   UNL     1       7.594  -8.610  -3.030  0.00  0.00    +0.114 C 
ATOM     21  C   UNL     1       7.223  -7.146  -3.295  0.00  0.00    +0.024 C 
ATOM     22  C   UNL     1       6.143  -6.725  -2.299  0.00  0.00    +0.038 C 
ENDBRANCH   7   9
ENDBRANCH   2   5
BRANCH   1  23
ATOM     23  C   UNL     1       1.784  -4.004   4.676  0.00  0.00    +0.094 C 
BRANCH  23  24
ATOM     24  C   UNL     1       0.296  -3.821   4.369  0.00  0.00    -0.020 C 
BRANCH  24  33
ATOM     25  C   UNL     1      -0.294   0.959  -0.335  0.00  0.00    +0.129 C 
ATOM     26  N   UNL     1      -0.334  -0.497  -0.180  0.00  0.00    -0.332 N 
ATOM     27  C   UNL     1      -0.559  -1.451  -1.270  0.00  0.00    +0.109 C 
ATOM     28  C   UNL     1      -0.512  -2.838  -0.607  0.00  0.00    +0.056 C 
ATOM     29  C   UNL     1      -0.255  -2.552   0.855  0.00  0.00    -0.025 A 
ATOM     30  C   UNL     1      -0.158  -1.179   1.025  0.00  0.00    +0.033 A 
ATOM     31  C   UNL     1       0.085  -0.670   2.302  0.00  0.00    +0.023 A 
ATOM     32  C   UNL     1       0.230  -1.524   3.375  0.00  0.00    +0.004 A 
ATOM     33  C   UNL     1       0.136  -2.891   3.194  0.00  0.00    -0.059 A 
ATOM     34  C   UNL     1      -0.113  -3.403   1.934  0.00  0.00    +0.007 A 
ENDBRANCH  24  33
BRANCH  24  35
ATOM     35  N   UNL     1      -0.380  -3.250   5.541  0.00  0.00    +0.385 N 
ATOM     36  C   UNL     1      -0.160  -4.120   6.703  0.00  0.00    -0.078 C 
ATOM     37  C   UNL     1      -0.793  -3.489   7.945  0.00  0.00    -0.019 C 
ATOM     38  C   UNL     1      -2.297  -3.315   7.712  0.00  0.00    -0.004 C 
ATOM     39  C   UNL     1      -2.515  -2.468   6.455  0.00  0.00    -0.019 C 
ATOM     40  C   UNL     1      -1.818  -3.137   5.269  0.00  0.00    -0.078 C 
ATOM     41  H   UNL     1      -0.002  -2.334   5.733  0.00  0.00    -0.081 HD
ENDBRANCH  24  35
ENDBRANCH  23  24
ENDBRANCH   1  23
TORSDOF 6
