REMARK  Name = ZINC67573695
REMARK  18 active torsions:
REMARK  status: ('A' for Active; 'I' for Inactive)
REMARK    1  A    between atoms: C_1  and  C_2
REMARK    2  A    between atoms: C_2  and  N_3
REMARK    3  A    between atoms: N_3  and  C_4
REMARK    4  A    between atoms: N_3  and  C_6
REMARK    5  A    between atoms: C_4  and  C_5
REMARK    6  A    between atoms: C_6  and  C_8
REMARK    7  A    between atoms: C_6  and  C_9
REMARK    8  A    between atoms: C_9  and  N_10
REMARK    9  A    between atoms: C_11  and  C_13
REMARK   10  A    between atoms: C_18  and  C_21
REMARK   11  A    between atoms: N_23  and  C_24
REMARK   12  A    between atoms: C_24  and  C_25
REMARK   13  A    between atoms: C_25  and  C_27
REMARK   14  A    between atoms: C_25  and  N_28
REMARK   15  A    between atoms: N_28  and  C_29
REMARK   16  A    between atoms: N_28  and  C_31
REMARK   17  A    between atoms: C_29  and  C_30
REMARK   18  A    between atoms: C_31  and  C_32
REMARK                            x       y       z     vdW  Elec       q    Type
REMARK                         _______ _______ _______ _____ _____    ______ ____
ROOT
ATOM      1  C   UNL     1      -3.820  -5.318   1.235  0.00  0.00    +0.076 C 
ATOM      2  C   UNL     1      -2.912  -4.265   0.596  0.00  0.00    +0.013 C 
ATOM      3  C   UNL     1      -3.510  -3.820  -0.740  0.00  0.00    +0.001 C 
ATOM      4  C   UNL     1      -4.897  -3.220  -0.504  0.00  0.00    +0.013 C 
ATOM      5  C   UNL     1      -5.805  -4.272   0.136  0.00  0.00    +0.076 C 
ATOM      6  C   UNL     1      -5.208  -4.718   1.472  0.00  0.00    +0.025 C 
ENDROOT
BRANCH   1   8
ATOM      7  N   UNL     1      -2.834  -7.197  -0.036  0.00  0.00    -0.317 N 
ATOM      8  C   UNL     1      -3.937  -6.506   0.315  0.00  0.00    +0.216 C 
ATOM      9  O   UNL     1      -5.022  -6.840  -0.109  0.00  0.00    -0.276 OA
ATOM     10  H   UNL     1      -1.966  -6.930   0.303  0.00  0.00    +0.149 HD
BRANCH   7  11
ATOM     11  C   UNL     1      -2.947  -8.352  -0.930  0.00  0.00    +0.088 C 
BRANCH  11  12
ATOM     12  C   UNL     1      -1.576  -9.013  -1.085  0.00  0.00    -0.054 C 
ATOM     13  C   UNL     1      -1.704 -10.249  -1.979  0.00  0.00    -0.012 C 
BRANCH  12  14
ATOM     14  N   UNL     1      -0.641  -8.061  -1.698  0.00  0.00    +0.382 N 
ATOM     15  H   UNL     1      -0.633  -7.205  -1.163  0.00  0.00    -0.081 HD
BRANCH  14  17
ATOM     16  C   UNL     1       1.213  -8.796  -0.277  0.00  0.00    -0.017 C 
ATOM     17  C   UNL     1       0.709  -8.641  -1.713  0.00  0.00    -0.082 C 
ENDBRANCH  14  17
BRANCH  14  18
ATOM     18  C   UNL     1      -1.065  -7.774  -3.075  0.00  0.00    -0.082 C 
ATOM     19  C   UNL     1      -0.179  -6.674  -3.663  0.00  0.00    -0.017 C 
ENDBRANCH  14  18
ENDBRANCH  12  14
ENDBRANCH  11  12
ENDBRANCH   7  11
ENDBRANCH   1   8
BRANCH   5  20
ATOM     20  C   UNL     1      -7.172  -3.682   0.369  0.00  0.00    +0.216 C 
ATOM     21  O   UNL     1      -7.623  -3.623   1.493  0.00  0.00    -0.276 OA
ATOM     22  N   UNL     1      -7.893  -3.219  -0.672  0.00  0.00    -0.317 N 
ATOM     23  H   UNL     1      -7.532  -3.266  -1.571  0.00  0.00    +0.149 HD
BRANCH  22  24
ATOM     24  C   UNL     1      -9.221  -2.645  -0.445  0.00  0.00    +0.088 C 
BRANCH  24  25
ATOM     25  C   UNL     1      -9.744  -2.038  -1.749  0.00  0.00    -0.054 C 
ATOM     26  C   UNL     1     -11.270  -1.944  -1.692  0.00  0.00    -0.012 C 
BRANCH  25  27
ATOM     27  N   UNL     1      -9.177  -0.695  -1.925  0.00  0.00    +0.382 N 
ATOM     28  H   UNL     1      -9.622  -0.242  -2.710  0.00  0.00    -0.081 HD
BRANCH  27  29
ATOM     29  C   UNL     1      -9.406   0.098  -0.710  0.00  0.00    -0.082 C 
ATOM     30  C   UNL     1      -9.005   1.552  -0.965  0.00  0.00    -0.017 C 
ENDBRANCH  27  29
BRANCH  27  31
ATOM     31  C   UNL     1      -7.734  -0.801  -2.176  0.00  0.00    -0.082 C 
ATOM     32  C   UNL     1      -7.496  -1.603  -3.457  0.00  0.00    -0.017 C 
ENDBRANCH  27  31
ENDBRANCH  25  27
ENDBRANCH  24  25
ENDBRANCH  22  24
ENDBRANCH   5  20
TORSDOF 12
