REMARK  Name = ZINC20118370
REMARK  11 active torsions:
REMARK  status: ('A' for Active; 'I' for Inactive)
REMARK    1  A    between atoms: C_1  and  C_2
REMARK    2  A    between atoms: C_5  and  O_9
REMARK    3  A    between atoms: O_9  and  C_10
REMARK    4  A    between atoms: C_10  and  C_11
REMARK    5  A    between atoms: C_11  and  O_12
REMARK    6  A    between atoms: O_12  and  C_13
REMARK    7  A    between atoms: C_13  and  C_14
REMARK    8  A    between atoms: C_14  and  N_15
REMARK    9  A    between atoms: N_15  and  C_16
REMARK   10  A    between atoms: C_16  and  C_17
REMARK   11  A    between atoms: C_17  and  N_18
REMARK                            x       y       z     vdW  Elec       q    Type
REMARK                         _______ _______ _______ _____ _____    ______ ____
ROOT
ATOM      1  C   UNL     1      -4.260   0.760   1.099  0.00  0.00    +0.200 C 
ENDROOT
BRANCH   1   2
ATOM      2  C   UNL     1      -2.955   1.533   1.298  0.00  0.00    +0.257 C 
BRANCH   2   3
ATOM      3  O   UNL     1      -2.403   1.871   0.024  0.00  0.00    -0.487 OA
BRANCH   3   8
ATOM      4  C   UNL     1       2.442   4.746   0.004  0.00  0.00    +0.044 C 
ATOM      5  C   UNL     1       1.146   3.977   0.013  0.00  0.00    -0.048 A 
ATOM      6  C   UNL     1      -0.059   4.656   0.028  0.00  0.00    +0.027 A 
ATOM      7  C   UNL     1      -1.249   3.953   0.036  0.00  0.00    +0.084 A 
ATOM      8  C   UNL     1      -1.234   2.565   0.022  0.00  0.00    +0.153 A 
ATOM      9  C   UNL     1      -0.024   1.887   0.012  0.00  0.00    +0.061 A 
ATOM     10  C   UNL     1       1.164   2.595   0.005  0.00  0.00    +0.022 A 
ATOM     11 BR   UNL     1       0.002  -0.004   0.002  0.00  0.00    -0.046 Br
ATOM     12 CL   UNL     1      -2.761   4.805   0.057  0.00  0.00    -0.080 Cl
ENDBRANCH   3   8
ENDBRANCH   2   3
ENDBRANCH   1   2
BRANCH   1  13
ATOM     13  O   UNL     1      -3.982  -0.490   0.464  0.00  0.00    -0.375 OA
BRANCH  13  14
ATOM     14  C   UNL     1      -5.140  -1.294   0.231  0.00  0.00    +0.175 C 
BRANCH  14  15
ATOM     15  C   UNL     1      -4.726  -2.600  -0.449  0.00  0.00    +0.109 C 
BRANCH  15  16
ATOM     16  N   UNL     1      -3.886  -3.384   0.467  0.00  0.00    -0.316 NA
ATOM     17  H   UNL     1      -2.988  -2.805   0.727  0.00  0.00    +0.122 HD
BRANCH  16  18
ATOM     18  C   UNL     1      -3.468  -4.648  -0.154  0.00  0.00    +0.061 C 
BRANCH  18  19
ATOM     19  C   UNL     1      -2.597  -5.435   0.827  0.00  0.00    -0.071 C 
BRANCH  19  20
ATOM     20  N   UNL     1      -2.179  -6.699   0.207  0.00  0.00    +0.379 N 
ATOM     21  H   UNL     1      -1.553  -7.265   0.912  0.00  0.00    -0.090 HD
ATOM     22  H   UNL     1      -1.603  -6.486  -0.706  0.00  0.00    -0.090 HD
ATOM     23  H   UNL     1      -3.069  -7.292  -0.051  0.00  0.00    -0.090 HD
ENDBRANCH  19  20
ENDBRANCH  18  19
ENDBRANCH  16  18
ENDBRANCH  15  16
ENDBRANCH  14  15
ENDBRANCH  13  14
ENDBRANCH   1  13
TORSDOF 10
