REMARK  Name = ZINC43373367
REMARK  7 active torsions:
REMARK  status: ('A' for Active; 'I' for Inactive)
REMARK    1  A    between atoms: C_1  and  C_2
REMARK    2  A    between atoms: C_2  and  C_3
REMARK    3  A    between atoms: C_2  and  C_4
REMARK    4  A    between atoms: C_4  and  C_5
REMARK    5  A    between atoms: N_13  and  C_14
REMARK    6  A    between atoms: C_14  and  C_15
REMARK    7  A    between atoms: N_19  and  C_20
REMARK                            x       y       z     vdW  Elec       q    Type
REMARK                         _______ _______ _______ _____ _____    ______ ____
ROOT
ATOM      1  C   UNL     1       2.165  -0.079  -1.208  0.00  0.00    +0.104 A 
ATOM      2  N   UNL     1       3.211  -0.711  -0.715  0.00  0.00    -0.145 NA
ATOM      3  N   UNL     1       4.348  -0.165  -0.784  0.00  0.00    -0.126 NA
ATOM      4  C   UNL     1       4.519   1.020  -1.336  0.00  0.00    +0.189 A 
ATOM      5  S   UNL     1       2.949   1.410  -1.810  0.00  0.00    -0.035 S 
ATOM      6  N   UNL     1       5.690   1.755  -1.492  0.00  0.00    -0.247 N 
ATOM      7  C   UNL     1       6.861   1.260  -1.043  0.00  0.00    +0.306 C 
ATOM      8  O   UNL     1       6.894   0.171  -0.503  0.00  0.00    -0.252 OA
ATOM      9  N   UNL     1       7.995   1.972  -1.194  0.00  0.00    -0.292 N 
ATOM     10  H   UNL     1       5.664   2.623  -1.923  0.00  0.00    +0.158 HD
ATOM     11  H   UNL     1       7.969   2.840  -1.625  0.00  0.00    +0.151 HD
ENDROOT
BRANCH   1  12
ATOM     12  C   UNL     1       0.718  -0.497  -1.257  0.00  0.00    +0.068 C 
BRANCH  12  14
ATOM     13  C   UNL     1      -0.019   1.526   0.010  0.00  0.00    +0.007 C 
ATOM     14  C   UNL     1       0.002  -0.004   0.002  0.00  0.00    -0.011 C 
ATOM     15  C   UNL     1      -1.433  -0.534   0.013  0.00  0.00    +0.007 C 
ENDBRANCH  12  14
ENDBRANCH   1  12
BRANCH   9  16
ATOM     16  C   UNL     1       9.268   1.433  -0.707  0.00  0.00    +0.182 C 
BRANCH  16  17
ATOM     17  C   UNL     1      10.373   2.417  -0.996  0.00  0.00    +0.150 A 
ATOM     18  N   UNL     1      11.100   2.467  -2.079  0.00  0.00    -0.133 NA
ATOM     19  N   UNL     1      11.946   3.431  -1.988  0.00  0.00    -0.138 NA
ATOM     20  C   UNL     1      11.798   4.039  -0.842  0.00  0.00    +0.224 A 
ATOM     21  N   UNL     1      10.792   3.416  -0.182  0.00  0.00    -0.319 N 
ATOM     22  C   UNL     1      10.266   3.752   1.143  0.00  0.00    +0.151 C 
ENDBRANCH  16  17
ENDBRANCH   9  16
TORSDOF 4
