REMARK  Name = ZINC42362446
REMARK  9 active torsions:
REMARK  status: ('A' for Active; 'I' for Inactive)
REMARK    1  A    between atoms: C_1  and  N_2
REMARK    2  A    between atoms: N_2  and  C_3
REMARK    3  A    between atoms: N_2  and  C_11
REMARK    4  A    between atoms: C_3  and  C_4
REMARK    5  A    between atoms: C_4  and  C_5
REMARK    6  A    between atoms: C_5  and  C_6
REMARK    7  A    between atoms: C_6  and  C_7
REMARK    8  A    between atoms: N_8  and  O_9
REMARK    9  A    between atoms: C_11  and  C_12
REMARK                            x       y       z     vdW  Elec       q    Type
REMARK                         _______ _______ _______ _____ _____    ______ ____
ROOT
ATOM      1  C   UNL     1      -1.376  -0.512   0.012  0.00  0.00    -0.079 C 
ENDROOT
BRANCH   1   3
ATOM      2  C   UNL     1      -0.018   1.465   0.010  0.00  0.00    -0.096 C 
ATOM      3  N   UNL     1       0.002  -0.004   0.002  0.00  0.00    +0.381 N 
ATOM      4  H   UNL     1       0.490  -0.338   0.820  0.00  0.00    -0.082 HD
BRANCH   3   5
ATOM      5  C   UNL     1       0.690  -0.478  -1.207  0.00  0.00    -0.043 C 
BRANCH   5   6
ATOM      6  C   UNL     1       2.137  -0.060  -1.158  0.00  0.00    -0.056 A 
ATOM      7  C   UNL     1       2.534   1.155  -1.686  0.00  0.00    +0.024 A 
ATOM      8  C   UNL     1       3.844   1.500  -1.625  0.00  0.00    +0.055 A 
ATOM      9  S   UNL     1       4.561   0.087  -0.803  0.00  0.00    -0.090 S 
ATOM     10  C   UNL     1       3.067  -0.866  -0.591  0.00  0.00    +0.048 A 
ATOM     11 BR   UNL     1       4.692   3.071  -2.250  0.00  0.00    -0.043 Br
ENDBRANCH   5   6
ENDBRANCH   3   5
ENDBRANCH   1   3
BRANCH   1  12
ATOM     12  C   UNL     1      -2.053  -0.124   1.328  0.00  0.00    -0.018 C 
BRANCH  12  13
ATOM     13  C   UNL     1      -3.488  -0.654   1.339  0.00  0.00    +0.006 C 
BRANCH  13  14
ATOM     14  C   UNL     1      -4.165  -0.265   2.655  0.00  0.00    +0.074 C 
BRANCH  14  15
ATOM     15  C   UNL     1      -5.579  -0.787   2.666  0.00  0.00    +0.132 C 
ATOM     16  N   UNL     1      -6.031  -1.449   1.653  0.00  0.00    -0.077 NA
ATOM     17  N   UNL     1      -6.389  -0.558   3.756  0.00  0.00    -0.344 N 
ATOM     18  H   UNL     1      -6.050  -0.061   4.517  0.00  0.00    +0.144 HD
ATOM     19  H   UNL     1      -7.299  -0.894   3.763  0.00  0.00    +0.144 HD
BRANCH  16  20
ATOM     20  O   UNL     1      -7.360  -1.939   1.663  0.00  0.00    -0.408 OA
ATOM     21  H   UNL     1      -7.607  -2.421   0.862  0.00  0.00    +0.328 HD
ENDBRANCH  16  20
ENDBRANCH  14  15
ENDBRANCH  13  14
ENDBRANCH  12  13
ENDBRANCH   1  12
TORSDOF 8
