REMARK  Name = ZINC66975963
REMARK  12 active torsions:
REMARK  status: ('A' for Active; 'I' for Inactive)
REMARK    1  A    between atoms: C_1  and  C_2
REMARK    2  A    between atoms: C_2  and  C_3
REMARK    3  A    between atoms: C_2  and  N_4
REMARK    4  A    between atoms: N_4  and  C_5
REMARK    5  A    between atoms: N_4  and  C_23
REMARK    6  A    between atoms: C_5  and  C_6
REMARK    7  A    between atoms: C_6  and  N_7
REMARK    8  A    between atoms: N_10  and  C_11
REMARK    9  A    between atoms: C_11  and  C_12
REMARK   10  A    between atoms: C_12  and  O_22
REMARK   11  A    between atoms: C_23  and  C_24
REMARK   12  A    between atoms: C_23  and  C_25
REMARK                            x       y       z     vdW  Elec       q    Type
REMARK                         _______ _______ _______ _____ _____    ______ ____
ROOT
ATOM      1  N   UNL     1      -4.223   0.341  -2.238  0.00  0.00    -0.301 N 
ATOM      2  C   UNL     1      -5.364   1.056  -2.293  0.00  0.00    +0.300 C 
ATOM      3  O   UNL     1      -5.875   1.465  -1.269  0.00  0.00    -0.253 OA
ATOM      4  N   UNL     1      -5.938   1.318  -3.484  0.00  0.00    -0.296 N 
ATOM      5  H   UNL     1      -3.815   0.014  -3.055  0.00  0.00    +0.150 HD
ATOM      6  H   UNL     1      -5.530   0.991  -4.302  0.00  0.00    +0.150 HD
ENDROOT
BRANCH   1   7
ATOM      7  C   UNL     1      -3.599   0.056  -0.943  0.00  0.00    +0.087 C 
BRANCH   7   8
ATOM      8  C   UNL     1      -2.327  -0.765  -1.159  0.00  0.00    -0.059 C 
BRANCH   8   9
ATOM      9  N   UNL     1      -1.722  -1.083   0.141  0.00  0.00    +0.384 N 
ATOM     10  H   UNL     1      -1.587  -0.233   0.666  0.00  0.00    -0.081 HD
BRANCH   9  12
ATOM     11  C   UNL     1       0.494  -0.811  -0.865  0.00  0.00    -0.014 C 
ATOM     12  C   UNL     1      -0.425  -1.740  -0.069  0.00  0.00    -0.074 C 
ATOM     13  C   UNL     1       0.214  -2.053   1.285  0.00  0.00    -0.014 C 
ENDBRANCH   9  12
BRANCH   9  14
ATOM     14  C   UNL     1      -2.611  -1.984   0.887  0.00  0.00    -0.074 C 
ATOM     15  C   UNL     1      -2.357  -3.428   0.453  0.00  0.00    -0.014 C 
ATOM     16  C   UNL     1      -2.336  -1.846   2.386  0.00  0.00    -0.014 C 
ENDBRANCH   9  14
ENDBRANCH   8   9
ENDBRANCH   7   8
ENDBRANCH   1   7
BRANCH   4  17
ATOM     17  C   UNL     1      -7.178   2.095  -3.545  0.00  0.00    +0.145 C 
BRANCH  17  18
ATOM     18  C   UNL     1      -7.685   2.136  -4.988  0.00  0.00    +0.107 C 
ATOM     19  C   UNL     1      -7.838   0.708  -5.508  0.00  0.00    +0.041 C 
ATOM     20  C   UNL     1      -8.548   0.761  -6.866  0.00  0.00    +0.008 C 
ATOM     21  C   UNL     1      -9.999   1.176  -6.635  0.00  0.00    +0.035 C 
ATOM     22  C   UNL     1     -10.066   2.421  -5.790  0.00  0.00    -0.041 A 
ATOM     23  C   UNL     1      -9.005   2.860  -5.031  0.00  0.00    -0.011 A 
ATOM     24  C   UNL     1      -9.134   4.013  -4.269  0.00  0.00    +0.007 A 
ATOM     25  C   UNL     1     -10.317   4.725  -4.269  0.00  0.00    +0.000 A 
ATOM     26  C   UNL     1     -11.381   4.286  -5.034  0.00  0.00    +0.000 A 
ATOM     27  C   UNL     1     -11.255   3.139  -5.790  0.00  0.00    +0.004 A 
BRANCH  18  28
ATOM     28  O   UNL     1      -6.738   2.833  -5.800  0.00  0.00    -0.382 OA
ATOM     29  H   UNL     1      -6.581   3.747  -5.525  0.00  0.00    +0.211 HD
ENDBRANCH  18  28
ENDBRANCH  17  18
ENDBRANCH   4  17
TORSDOF 8
