REMARK  Name = ZINC44879856
REMARK  7 active torsions:
REMARK  status: ('A' for Active; 'I' for Inactive)
REMARK    1  A    between atoms: C_1  and  C_2
REMARK    2  A    between atoms: C_2  and  C_3
REMARK    3  A    between atoms: C_3  and  C_5
REMARK    4  A    between atoms: C_3  and  C_9
REMARK    5  A    between atoms: N_6  and  O_7
REMARK    6  A    between atoms: N_11  and  C_12
REMARK    7  A    between atoms: N_16  and  C_18
REMARK                            x       y       z     vdW  Elec       q    Type
REMARK                         _______ _______ _______ _____ _____    ______ ____
ROOT
ATOM      1  C   UNL     1       0.632  -2.000  -1.327  0.00  0.00    +0.223 C 
ATOM      2  O   UNL     1       1.645  -2.666  -1.337  0.00  0.00    -0.275 OA
ATOM      3  N   UNL     1      -0.572  -2.604  -1.380  0.00  0.00    -0.314 N 
ATOM      4  H   UNL     1      -1.383  -2.072  -1.372  0.00  0.00    +0.149 HD
ENDROOT
BRANCH   3   5
ATOM      5  C   UNL     1      -0.656  -4.065  -1.449  0.00  0.00    +0.055 C 
ATOM      6  C   UNL     1      -0.661  -4.670  -0.026  0.00  0.00    +0.002 C 
ATOM      7  C   UNL     1      -2.169  -4.889   0.253  0.00  0.00    -0.077 C 
ATOM      8  N   UNL     1      -2.699  -5.320  -1.066  0.00  0.00    +0.383 N 
ATOM      9  C   UNL     1      -1.996  -4.495  -2.075  0.00  0.00    -0.056 C 
ATOM     10  H   UNL     1      -2.501  -6.298  -1.218  0.00  0.00    -0.081 HD
BRANCH   8  11
ATOM     11  C   UNL     1      -4.147  -5.079  -1.134  0.00  0.00    -0.069 C 
ATOM     12  C   UNL     1      -5.064  -6.302  -1.195  0.00  0.00    -0.017 C 
ATOM     13  C   UNL     1      -4.862  -5.434  -2.439  0.00  0.00    -0.017 C 
ENDBRANCH   8  11
ENDBRANCH   3   5
BRANCH   1  14
ATOM     14  C   UNL     1       0.718  -0.497  -1.257  0.00  0.00    +0.141 C 
BRANCH  14  15
ATOM     15  C   UNL     1       2.165  -0.079  -1.208  0.00  0.00    +0.144 C 
ATOM     16  N   UNL     1       2.736   0.142  -0.070  0.00  0.00    -0.076 NA
ATOM     17  N   UNL     1       2.880   0.066  -2.376  0.00  0.00    -0.343 N 
ATOM     18  H   UNL     1       2.451  -0.100  -3.231  0.00  0.00    +0.144 HD
ATOM     19  H   UNL     1       3.811   0.335  -2.345  0.00  0.00    +0.144 HD
BRANCH  16  20
ATOM     20  O   UNL     1       4.095   0.535  -0.024  0.00  0.00    -0.408 OA
ATOM     21  H   UNL     1       4.433   0.678   0.870  0.00  0.00    +0.328 HD
ENDBRANCH  16  20
ENDBRANCH  14  15
BRANCH  14  23
ATOM     22  C   UNL     1      -0.019   1.526   0.010  0.00  0.00    +0.005 C 
ATOM     23  C   UNL     1       0.002  -0.004   0.002  0.00  0.00    +0.017 C 
ENDBRANCH  14  23
ENDBRANCH   1  14
TORSDOF 6
