REMARK  Name = ZINC34388551
REMARK  13 active torsions:
REMARK  status: ('A' for Active; 'I' for Inactive)
REMARK    1  A    between atoms: C_1  and  O_2
REMARK    2  A    between atoms: O_2  and  C_3
REMARK    3  A    between atoms: C_5  and  C_12
REMARK    4  A    between atoms: C_7  and  O_10
REMARK    5  A    between atoms: C_8  and  O_9
REMARK    6  A    between atoms: O_10  and  C_11
REMARK    7  A    between atoms: N_20  and  C_23
REMARK    8  A    between atoms: C_29  and  C_31
REMARK    9  A    between atoms: C_29  and  C_36
REMARK   10  A    between atoms: C_31  and  C_32
REMARK   11  A    between atoms: C_32  and  C_33
REMARK   12  A    between atoms: C_33  and  C_34
REMARK   13  A    between atoms: C_34  and  N_35
REMARK                            x       y       z     vdW  Elec       q    Type
REMARK                         _______ _______ _______ _____ _____    ______ ____
ROOT
ATOM      1  C   UNL     1       2.462   0.340   4.203  0.00  0.00    -0.026 C 
ATOM      2  C   UNL     1       1.573   0.354   5.443  0.00  0.00    +0.077 C 
ATOM      3  C   UNL     1       2.672   0.830   6.467  0.00  0.00    +0.086 C 
ATOM      4  C   UNL     1       1.871   1.280   7.579  0.00  0.00    +0.225 C 
ATOM      5  O   UNL     1       2.143   1.216   8.759  0.00  0.00    -0.275 OA
ATOM      6  N   UNL     1       0.732   1.795   7.011  0.00  0.00    -0.239 N 
ATOM      7  C   UNL     1       0.595   1.462   5.679  0.00  0.00    +0.225 C 
ATOM      8  O   UNL     1      -0.152   1.960   4.865  0.00  0.00    -0.275 OA
ATOM      9  C   UNL     1       3.810  -0.054   6.183  0.00  0.00    +0.048 C 
ATOM     10  N   UNL     1       3.726  -0.300   4.695  0.00  0.00    +0.395 N 
ATOM     11  H   UNL     1       3.696  -1.294   4.522  0.00  0.00    -0.083 HD
ATOM     12  H   UNL     1       4.521   0.107   4.225  0.00  0.00    -0.083 HD
ENDROOT
BRANCH   1  15
ATOM     13  C   UNL     1       0.626  -0.619   1.042  0.00  0.00    +0.165 A 
ATOM     14  C   UNL     1       1.202   0.138   2.051  0.00  0.00    +0.051 A 
ATOM     15  C   UNL     1       1.837  -0.486   3.109  0.00  0.00    -0.053 A 
ATOM     16  C   UNL     1       1.900  -1.866   3.166  0.00  0.00    +0.051 A 
ATOM     17  C   UNL     1       1.327  -2.630   2.160  0.00  0.00    +0.165 A 
ATOM     18  C   UNL     1       0.683  -2.006   1.098  0.00  0.00    +0.201 A 
BRANCH  13  20
ATOM     19  C   UNL     1      -0.017   1.425   0.010  0.00  0.00    +0.277 C 
ATOM     20  O   UNL     1       0.002  -0.004   0.002  0.00  0.00    -0.491 OA
ENDBRANCH  13  20
BRANCH  18  21
ATOM     21  O   UNL     1       0.114  -2.753   0.113  0.00  0.00    -0.501 OA
ATOM     22  H   UNL     1       0.710  -2.955  -0.621  0.00  0.00    +0.292 HD
ENDBRANCH  18  21
BRANCH  17  23
ATOM     23  O   UNL     1       1.390  -3.987   2.217  0.00  0.00    -0.491 OA
ATOM     24  C   UNL     1       2.062  -4.559   3.340  0.00  0.00    +0.277 C 
ENDBRANCH  17  23
ENDBRANCH   1  15
BRANCH   6  25
ATOM     25  C   UNL     1      -0.246   2.603   7.743  0.00  0.00    +0.084 C 
ATOM     26  C   UNL     1      -1.609   1.909   7.710  0.00  0.00    +0.023 C 
ATOM     27  C   UNL     1      -2.630   2.753   8.475  0.00  0.00    +0.002 C 
ATOM     28  C   UNL     1      -2.744   4.131   7.821  0.00  0.00    +0.000 C 
ATOM     29  C   UNL     1      -1.381   4.826   7.853  0.00  0.00    +0.002 C 
ATOM     30  C   UNL     1      -0.360   3.982   7.088  0.00  0.00    +0.023 C 
ENDBRANCH   6  25
BRANCH   9  31
ATOM     31  C   UNL     1       3.683  -1.339   6.961  0.00  0.00    +0.346 C 
ATOM     32  O   UNL     1       3.621  -2.405   6.373  0.00  0.00    -0.248 OA
ATOM     33  O   UNL     1       3.644  -1.312   8.180  0.00  0.00    -0.248 OA
ENDBRANCH   9  31
BRANCH   9  34
ATOM     34  C   UNL     1       5.127   0.647   6.519  0.00  0.00    -0.001 C 
BRANCH  34  35
ATOM     35  C   UNL     1       6.300  -0.242   6.100  0.00  0.00    -0.003 C 
BRANCH  35  36
ATOM     36  C   UNL     1       7.617   0.459   6.436  0.00  0.00    -0.020 C 
BRANCH  36  37
ATOM     37  C   UNL     1       8.790  -0.431   6.017  0.00  0.00    -0.086 C 
BRANCH  37  38
ATOM     38  N   UNL     1      10.055   0.243   6.339  0.00  0.00    +0.378 N 
ATOM     39  H   UNL     1      10.104   1.120   5.844  0.00  0.00    -0.090 HD
ATOM     40  H   UNL     1      10.101   0.414   7.333  0.00  0.00    -0.090 HD
ATOM     41  H   UNL     1      10.828  -0.344   6.063  0.00  0.00    -0.090 HD
ENDBRANCH  37  38
ENDBRANCH  36  37
ENDBRANCH  35  36
ENDBRANCH  34  35
ENDBRANCH   9  34
TORSDOF 11
