REMARK  Name = ZINC36897382
REMARK  4 active torsions:
REMARK  status: ('A' for Active; 'I' for Inactive)
REMARK    1  A    between atoms: C_2  and  C_12
REMARK    2  A    between atoms: C_12  and  C_14
REMARK    3  A    between atoms: C_12  and  O_16
REMARK    4  A    between atoms: C_14  and  N_15
REMARK                            x       y       z     vdW  Elec       q    Type
REMARK                         _______ _______ _______ _____ _____    ______ ____
ROOT
ATOM      1  C   UNL     1      -0.017   1.383   0.010  0.00  0.00    +0.055 A 
ATOM      2  C   UNL     1       1.170   2.092   0.002  0.00  0.00    -0.016 A 
ATOM      3  C   UNL     1       2.378   1.421  -0.013  0.00  0.00    +0.025 A 
ATOM      4  C   UNL     1       2.405   0.038  -0.023  0.00  0.00    +0.063 A 
ATOM      5  C   UNL     1       1.217  -0.679  -0.016  0.00  0.00    +0.176 A 
ATOM      6  C   UNL     1       0.002  -0.004   0.002  0.00  0.00    +0.164 A 
ATOM      7  O   UNL     1      -1.174  -0.688   0.017  0.00  0.00    -0.485 OA
ATOM      8  C   UNL     1      -1.122  -2.066  -0.368  0.00  0.00    +0.270 C 
ATOM      9  C   UNL     1       0.061  -2.723   0.356  0.00  0.00    +0.270 C 
ATOM     10  O   UNL     1       1.258  -2.039  -0.029  0.00  0.00    -0.484 OA
ATOM     11 BR   UNL     1       4.060  -0.875  -0.046  0.00  0.00    -0.046 Br
ENDROOT
BRANCH   2  12
ATOM     12  C   UNL     1       1.146   3.599   0.010  0.00  0.00    +0.127 C 
BRANCH  12  13
ATOM     13  O   UNL     1       2.249   4.088   0.775  0.00  0.00    -0.389 OA
ATOM     14  H   UNL     1       3.113   3.819   0.436  0.00  0.00    +0.210 HD
ENDBRANCH  12  13
BRANCH  12  15
ATOM     15  C   UNL     1       1.250   4.118  -1.425  0.00  0.00    -0.050 C 
BRANCH  15  16
ATOM     16  N   UNL     1       1.226   5.587  -1.417  0.00  0.00    +0.380 N 
ATOM     17  H   UNL     1       0.362   5.907  -1.005  0.00  0.00    -0.090 HD
ATOM     18  H   UNL     1       2.005   5.933  -0.877  0.00  0.00    -0.090 HD
ATOM     19  H   UNL     1       1.294   5.929  -2.364  0.00  0.00    -0.090 HD
ENDBRANCH  15  16
ENDBRANCH  12  15
ENDBRANCH   2  12
TORSDOF 4
