REMARK  Name = ZINC04063782
REMARK  5 active torsions:
REMARK  status: ('A' for Active; 'I' for Inactive)
REMARK    1  A    between atoms: C_1  and  C_2
REMARK    2  A    between atoms: C_8  and  C_32
REMARK    3  A    between atoms: C_9  and  O_31
REMARK    4  A    between atoms: C_19  and  C_21
REMARK    5  A    between atoms: C_21  and  N_61
REMARK                            x       y       z     vdW  Elec       q    Type
REMARK                         _______ _______ _______ _____ _____    ______ ____
ROOT
ATOM      1  C   UNL     1      -2.153   2.496   3.987  0.00  0.00    +0.008 C 
ATOM      2  C   UNL     1      -0.983   3.237   3.334  0.00  0.00    -0.001 C 
ATOM      3  C   UNL     1      -0.119   3.843   4.437  0.00  0.00    +0.008 C 
ATOM      4  C   UNL     1       1.010   4.650   3.790  0.00  0.00    +0.027 C 
ATOM      5  C   UNL     1       1.768   3.749   2.858  0.00  0.00    -0.027 C 
ATOM      6  C   UNL     1       1.236   2.709   2.290  0.00  0.00    -0.061 C 
ATOM      7  C   UNL     1      -0.185   2.258   2.477  0.00  0.00    +0.018 C 
ATOM      8  C   UNL     1      -0.847   2.127   1.109  0.00  0.00    +0.132 C 
ATOM      9  C   UNL     1      -0.021   1.529   0.013  0.00  0.00    +0.071 C 
ATOM     10  C   UNL     1       1.459   1.930  -0.042  0.00  0.00    +0.187 C 
ATOM     11  C   UNL     1       2.097   1.885   1.352  0.00  0.00    +0.076 C 
ATOM     12  O   UNL     1       2.066   0.828  -0.808  0.00  0.00    -0.460 OA
ATOM     13  C   UNL     1       1.444  -0.318  -0.477  0.00  0.00    +0.309 C 
ATOM     14  O   UNL     1       1.929  -1.425  -0.533  0.00  0.00    -0.251 OA
ATOM     15  C   UNL     1       0.027  -0.004  -0.022  0.00  0.00    +0.090 C 
ATOM     16  C   UNL     1      -0.195   0.904   3.191  0.00  0.00    +0.018 C 
ENDROOT
BRANCH   8  17
ATOM     17  O   UNL     1      -2.048   1.354   1.242  0.00  0.00    -0.391 OA
ATOM     18  H   UNL     1      -2.591   1.330   0.443  0.00  0.00    +0.210 HD
ENDBRANCH   8  17
BRANCH  15  19
ATOM     19  C   UNL     1      -0.979  -0.548  -1.046  0.00  0.00    -0.064 C 
BRANCH  19  29
ATOM     20  C   UNL     1      -1.103  -2.537   0.327  0.00  0.00    -0.074 C 
ATOM     21  C   UNL     1      -0.910  -4.056   0.320  0.00  0.00    +0.046 C 
ATOM     22  C   UNL     1      -1.937  -4.691  -0.621  0.00  0.00    +0.167 C 
ATOM     23  C   UNL     1      -1.787  -4.094  -2.022  0.00  0.00    +0.046 C 
ATOM     24  C   UNL     1      -1.954  -2.574  -1.943  0.00  0.00    -0.074 C 
ATOM     25  O   UNL     1      -1.721  -6.109  -0.678  0.00  0.00    -0.346 OA
ATOM     26  C   UNL     1      -2.645  -6.663   0.290  0.00  0.00    +0.191 C 
ATOM     27  C   UNL     1      -3.866  -5.723   0.134  0.00  0.00    +0.191 C 
ATOM     28  O   UNL     1      -3.259  -4.441  -0.129  0.00  0.00    -0.346 OA
ATOM     29  N   UNL     1      -0.914  -2.023  -1.046  0.00  0.00    +0.380 N 
ATOM     30  H   UNL     1       0.009  -2.317  -1.388  0.00  0.00    -0.082 HD
ENDBRANCH  19  29
ENDBRANCH  15  19
TORSDOF 3
