REMARK  Name = ZINC09126037
REMARK  7 active torsions:
REMARK  status: ('A' for Active; 'I' for Inactive)
REMARK    1  A    between atoms: C_4  and  C_7
REMARK    2  A    between atoms: C_7  and  C_8
REMARK    3  A    between atoms: C_13  and  N_14
REMARK    4  A    between atoms: C_15  and  C_17
REMARK    5  A    between atoms: C_17  and  N_56
REMARK    6  A    between atoms: N_20  and  S_23
REMARK    7  A    between atoms: S_23  and  C_26
REMARK                            x       y       z     vdW  Elec       q    Type
REMARK                         _______ _______ _______ _____ _____    ______ ____
ROOT
ATOM      1  N   UNL     1       3.173  -1.747  -7.715  0.00  0.00    -0.287 N 
ATOM      2  C   UNL     1       3.489  -1.683  -6.406  0.00  0.00    +0.201 C 
ATOM      3  O   UNL     1       3.680  -2.703  -5.778  0.00  0.00    -0.278 OA
ATOM      4  H   UNL     1       3.098  -0.932  -8.236  0.00  0.00    +0.155 HD
ENDROOT
BRANCH   1  10
ATOM      5  C   UNL     1       3.038  -3.113  -9.702  0.00  0.00    -0.022 A 
ATOM      6  C   UNL     1       2.827  -4.341 -10.297  0.00  0.00    +0.006 A 
ATOM      7  C   UNL     1       2.521  -5.444  -9.521  0.00  0.00    +0.000 A 
ATOM      8  C   UNL     1       2.431  -5.322  -8.147  0.00  0.00    +0.002 A 
ATOM      9  C   UNL     1       2.647  -4.098  -7.545  0.00  0.00    +0.023 A 
ATOM     10  C   UNL     1       2.954  -2.989  -8.322  0.00  0.00    +0.037 A 
BRANCH   5  11
ATOM     11  C   UNL     1       3.365  -1.910 -10.549  0.00  0.00    +0.072 C 
BRANCH  11  15
ATOM     12  C   UNL     1       7.604  -1.417 -10.747  0.00  0.00    +0.000 A 
ATOM     13  C   UNL     1       6.953  -2.192 -11.688  0.00  0.00    +0.000 A 
ATOM     14  C   UNL     1       5.582  -2.352 -11.624  0.00  0.00    +0.004 A 
ATOM     15  C   UNL     1       4.860  -1.736 -10.619  0.00  0.00    -0.043 A 
ATOM     16  C   UNL     1       5.510  -0.957  -9.680  0.00  0.00    +0.004 A 
ATOM     17  C   UNL     1       6.882  -0.801  -9.741  0.00  0.00    +0.000 A 
ENDBRANCH  11  15
ENDBRANCH   5  11
ENDBRANCH   1  10
BRANCH   2  18
ATOM     18  C   UNL     1       3.605  -0.344  -5.724  0.00  0.00    +0.019 C 
BRANCH  18  24
ATOM     19  C   UNL     1       3.084  -1.276  -3.550  0.00  0.00    -0.061 C 
ATOM     20  C   UNL     1       3.525  -1.298  -2.083  0.00  0.00    +0.091 C 
ATOM     21  N   UNL     1       4.897  -1.826  -2.015  0.00  0.00    -0.180 NA
ATOM     22  C   UNL     1       5.919  -1.220  -2.882  0.00  0.00    +0.091 C 
ATOM     23  C   UNL     1       5.382  -1.204  -4.322  0.00  0.00    -0.061 C 
ATOM     24  N   UNL     1       4.077  -0.509  -4.333  0.00  0.00    +0.387 N 
ATOM     25  H   UNL     1       4.191   0.419  -3.908  0.00  0.00    -0.081 HD
BRANCH  21  26
ATOM     26  S   UNL     1       5.281  -3.064  -0.985  0.00  0.00    +0.067 S 
ATOM     27  O   UNL     1       4.316  -3.039   0.058  0.00  0.00    -0.152 OA
ATOM     28  O   UNL     1       6.677  -2.965  -0.735  0.00  0.00    -0.152 OA
BRANCH  26  29
ATOM     29  C   UNL     1       5.033  -4.570  -1.866  0.00  0.00    +0.144 A 
ATOM     30  C   UNL     1       5.910  -5.268  -2.627  0.00  0.00    +0.038 A 
ATOM     31  C   UNL     1       5.491  -6.438  -3.232  0.00  0.00    +0.030 A 
ATOM     32  C   UNL     1       4.213  -6.853  -3.044  0.00  0.00    +0.080 A 
ATOM     33  S   UNL     1       3.560  -5.571  -1.987  0.00  0.00    -0.057 S 
ATOM     34 CL   UNL     1       3.417  -8.261  -3.675  0.00  0.00    -0.076 Cl
ENDBRANCH  26  29
ENDBRANCH  21  26
ENDBRANCH  18  24
ENDBRANCH   2  18
TORSDOF 7
