REMARK  Name = ZINC33886911
REMARK  8 active torsions:
REMARK  status: ('A' for Active; 'I' for Inactive)
REMARK    1  A    between atoms: C_1  and  C_2
REMARK    2  A    between atoms: C_2  and  C_3
REMARK    3  A    between atoms: C_3  and  C_4
REMARK    4  A    between atoms: C_4  and  C_5
REMARK    5  A    between atoms: C_5  and  C_7
REMARK    6  A    between atoms: C_5  and  N_28
REMARK    7  A    between atoms: C_9  and  C_12
REMARK    8  A    between atoms: N_14  and  C_15
REMARK                            x       y       z     vdW  Elec       q    Type
REMARK                         _______ _______ _______ _____ _____    ______ ____
ROOT
ATOM      1  C   UNL     1      -3.224  -7.215   1.856  0.00  0.00    +0.266 C 
ATOM      2  O   UNL     1      -3.074  -8.362   1.480  0.00  0.00    -0.268 OA
ATOM      3  N   UNL     1      -3.604  -6.966   3.124  0.00  0.00    -0.299 N 
ATOM      4  H   UNL     1      -3.724  -6.051   3.424  0.00  0.00    +0.150 HD
ENDROOT
BRANCH   3   5
ATOM      5  C   UNL     1      -3.837  -8.076   4.051  0.00  0.00    +0.135 C 
ATOM      6  C   UNL     1      -5.268  -8.544   3.953  0.00  0.00    -0.015 A 
ATOM      7  C   UNL     1      -6.002  -9.066   2.909  0.00  0.00    +0.006 A 
ATOM      8  C   UNL     1      -7.326  -9.418   3.101  0.00  0.00    +0.000 A 
ATOM      9  C   UNL     1      -7.916  -9.248   4.340  0.00  0.00    +0.001 A 
ATOM     10  C   UNL     1      -7.190  -8.727   5.390  0.00  0.00    +0.009 A 
ATOM     11  C   UNL     1      -5.853  -8.369   5.204  0.00  0.00    -0.012 A 
ATOM     12  C   UNL     1      -4.855  -7.796   6.141  0.00  0.00    -0.012 A 
ATOM     13  C   UNL     1      -3.646  -7.614   5.475  0.00  0.00    -0.015 A 
ATOM     14  C   UNL     1      -2.558  -7.090   6.140  0.00  0.00    +0.006 A 
ATOM     15  C   UNL     1      -2.663  -6.744   7.475  0.00  0.00    +0.000 A 
ATOM     16  C   UNL     1      -3.860  -6.922   8.146  0.00  0.00    +0.001 A 
ATOM     17  C   UNL     1      -4.954  -7.445   7.488  0.00  0.00    +0.009 A 
ENDBRANCH   3   5
BRANCH   1  20
ATOM     18  C   UNL     1      -2.828  -4.096   0.131  0.00  0.00    +0.182 A 
ATOM     19  N   UNL     1      -3.119  -4.771   1.202  0.00  0.00    -0.210 NA
ATOM     20  C   UNL     1      -2.990  -6.097   0.923  0.00  0.00    +0.163 A 
ATOM     21  C   UNL     1      -2.605  -6.197  -0.378  0.00  0.00    +0.230 A 
ATOM     22  O   UNL     1      -2.514  -4.946  -0.857  0.00  0.00    -0.449 OA
BRANCH  18  23
ATOM     23  C   UNL     1      -2.848  -2.593   0.015  0.00  0.00    +0.013 C 
BRANCH  23  24
ATOM     24  N   UNL     1      -3.522  -2.207  -1.232  0.00  0.00    +0.386 N 
ATOM     25  H   UNL     1      -4.468  -2.556  -1.224  0.00  0.00    -0.089 HD
ATOM     26  H   UNL     1      -3.535  -1.201  -1.309  0.00  0.00    -0.089 HD
ATOM     27  H   UNL     1      -3.025  -2.598  -2.018  0.00  0.00    -0.089 HD
ENDBRANCH  23  24
BRANCH  23  28
ATOM     28  C   UNL     1      -1.413  -2.063   0.004  0.00  0.00    -0.007 C 
BRANCH  28  29
ATOM     29  C   UNL     1      -1.433  -0.534   0.013  0.00  0.00    -0.001 C 
BRANCH  29  31
ATOM     30  C   UNL     1      -0.019   1.526   0.010  0.00  0.00    +0.004 C 
ATOM     31  C   UNL     1       0.002  -0.004   0.002  0.00  0.00    -0.003 C 
ENDBRANCH  29  31
ENDBRANCH  28  29
ENDBRANCH  23  28
ENDBRANCH  18  23
ENDBRANCH   1  20
TORSDOF 7
