REMARK  Name = ZINC58421281
REMARK  7 active torsions:
REMARK  status: ('A' for Active; 'I' for Inactive)
REMARK    1  A    between atoms: C_1  and  C_2
REMARK    2  A    between atoms: C_2  and  C_3
REMARK    3  A    between atoms: C_3  and  C_4
REMARK    4  A    between atoms: C_4  and  C_6
REMARK    5  A    between atoms: C_4  and  N_8
REMARK    6  A    between atoms: C_9  and  C_11
REMARK    7  A    between atoms: N_19  and  C_22
REMARK                            x       y       z     vdW  Elec       q    Type
REMARK                         _______ _______ _______ _____ _____    ______ ____
ROOT
ATOM      1  C   UNL     1      -2.301  -4.285   1.026  0.00  0.00    +0.039 A 
ATOM      2  C   UNL     1      -3.282  -3.490   1.637  0.00  0.00    +0.014 A 
ATOM      3  C   UNL     1      -4.561  -3.939   1.770  0.00  0.00    +0.016 A 
ATOM      4  C   UNL     1      -4.907  -5.211   1.293  0.00  0.00    +0.065 A 
ATOM      5  C   UNL     1      -3.925  -6.027   0.673  0.00  0.00    +0.080 A 
ATOM      6  C   UNL     1      -2.615  -5.544   0.540  0.00  0.00    +0.041 A 
ATOM      7  N   UNL     1      -4.273  -7.241   0.222  0.00  0.00    -0.222 NA
ATOM      8  C   UNL     1      -5.516  -7.679   0.350  0.00  0.00    +0.183 A 
ATOM      9  N   UNL     1      -6.482  -6.947   0.929  0.00  0.00    -0.290 N 
ATOM     10  C   UNL     1      -6.221  -5.713   1.412  0.00  0.00    +0.262 A 
ATOM     11  O   UNL     1      -7.189  -4.981   1.991  0.00  0.00    -0.267 OA
ATOM     12  C   UNL     1      -7.836  -7.494   1.037  0.00  0.00    +0.154 C 
ATOM     13  S   UNL     1      -5.905  -9.237  -0.243  0.00  0.00    -0.011 S 
ENDROOT
BRANCH   1  15
ATOM     14  N   UNL     1      -0.605  -2.548   1.364  0.00  0.00    -0.296 N 
ATOM     15  C   UNL     1      -0.918  -3.772   0.893  0.00  0.00    +0.245 C 
ATOM     16  O   UNL     1      -0.065  -4.454   0.361  0.00  0.00    -0.270 OA
ATOM     17  H   UNL     1      -1.286  -2.004   1.789  0.00  0.00    +0.150 HD
BRANCH  14  18
ATOM     18  C   UNL     1       0.763  -2.041   1.233  0.00  0.00    +0.176 C 
BRANCH  18  19
ATOM     19  C   UNL     1       1.576  -2.527   2.360  0.00  0.00    +0.085 C 
ATOM     20  N   UNL     1       2.204  -2.902   3.229  0.00  0.00    -0.195 NA
ENDBRANCH  18  19
BRANCH  18  21
ATOM     21  C   UNL     1       0.742  -0.511   1.242  0.00  0.00    +0.037 C 
BRANCH  21  23
ATOM     22  C   UNL     1      -0.019   1.526   0.010  0.00  0.00    +0.004 C 
ATOM     23  C   UNL     1       0.002  -0.004   0.002  0.00  0.00    -0.001 C 
ENDBRANCH  21  23
ENDBRANCH  18  21
ENDBRANCH  14  18
ENDBRANCH   1  15
TORSDOF 5
