REMARK  Name = ZINC50341052
REMARK  8 active torsions:
REMARK  status: ('A' for Active; 'I' for Inactive)
REMARK    1  A    between atoms: C_1  and  C_2
REMARK    2  A    between atoms: C_2  and  C_4
REMARK    3  A    between atoms: C_2  and  N_14
REMARK    4  A    between atoms: C_7  and  S_10
REMARK    5  A    between atoms: S_10  and  N_13
REMARK    6  A    between atoms: N_14  and  C_15
REMARK    7  A    between atoms: C_15  and  C_17
REMARK    8  A    between atoms: C_15  and  C_18
REMARK                            x       y       z     vdW  Elec       q    Type
REMARK                         _______ _______ _______ _____ _____    ______ ____
ROOT
ATOM      1  C   UNL     1       0.319   1.620  -0.027  0.00  0.00    -0.009 C 
ATOM      2  C   UNL     1       0.085   0.108  -0.010  0.00  0.00    -0.043 C 
ENDROOT
BRANCH   2   3
ATOM      3  C   UNL     1       0.820  -0.501   1.157  0.00  0.00    -0.062 A 
ATOM      4  C   UNL     1       2.178  -0.741   1.069  0.00  0.00    +0.004 A 
ATOM      5  C   UNL     1       2.852  -1.300   2.139  0.00  0.00    +0.029 A 
ATOM      6  C   UNL     1       2.167  -1.617   3.297  0.00  0.00    +0.105 A 
ATOM      7  C   UNL     1       0.809  -1.376   3.385  0.00  0.00    +0.029 A 
ATOM      8  C   UNL     1       0.136  -0.813   2.317  0.00  0.00    +0.004 A 
BRANCH   6   9
ATOM      9  S   UNL     1       3.026  -2.330   4.661  0.00  0.00    +0.056 S 
ATOM     10  O   UNL     1       2.059  -3.037   5.425  0.00  0.00    -0.153 OA
ATOM     11  O   UNL     1       4.184  -2.958   4.128  0.00  0.00    -0.153 OA
BRANCH   9  12
ATOM     12  N   UNL     1       3.559  -1.082   5.610  0.00  0.00    -0.204 NA
ATOM     13  H   UNL     1       3.371  -0.165   5.356  0.00  0.00    +0.144 HD
ATOM     14  H   UNL     1       4.060  -1.268   6.419  0.00  0.00    +0.144 HD
ENDBRANCH   9  12
ENDBRANCH   6   9
ENDBRANCH   2   3
BRANCH   2  15
ATOM     15  N   UNL     1       0.582  -0.478  -1.261  0.00  0.00    +0.388 N 
ATOM     16  H   UNL     1       1.544  -0.208  -1.401  0.00  0.00    -0.084 HD
ATOM     17  H   UNL     1       0.519  -1.484  -1.210  0.00  0.00    -0.084 HD
BRANCH  15  18
ATOM     18  C   UNL     1      -0.230   0.006  -2.386  0.00  0.00    -0.043 C 
ATOM     19  C   UNL     1       0.374  -0.489  -3.701  0.00  0.00    -0.009 C 
BRANCH  18  20
ATOM     20  C   UNL     1      -1.637  -0.517  -2.251  0.00  0.00    -0.055 A 
ATOM     21  C   UNL     1      -2.717   0.289  -2.557  0.00  0.00    +0.009 A 
ATOM     22  C   UNL     1      -3.970  -0.212  -2.425  0.00  0.00    +0.045 A 
ATOM     23  S   UNL     1      -3.645  -1.871  -1.852  0.00  0.00    -0.105 S 
ATOM     24  C   UNL     1      -1.862  -1.787  -1.833  0.00  0.00    +0.047 A 
ENDBRANCH  18  20
ENDBRANCH  15  18
ENDBRANCH   2  15
TORSDOF 6
