REMARK  Name = ZINC48803684
REMARK  9 active torsions:
REMARK  status: ('A' for Active; 'I' for Inactive)
REMARK    1  A    between atoms: C_1  and  C_2
REMARK    2  A    between atoms: C_2  and  C_4
REMARK    3  A    between atoms: C_2  and  N_12
REMARK    4  A    between atoms: C_13  and  C_15
REMARK    5  A    between atoms: N_17  and  C_18
REMARK    6  A    between atoms: C_22  and  C_24
REMARK    7  A    between atoms: C_24  and  N_25
REMARK    8  A    between atoms: N_25  and  C_26
REMARK    9  A    between atoms: N_25  and  C_27
REMARK                            x       y       z     vdW  Elec       q    Type
REMARK                         _______ _______ _______ _____ _____    ______ ____
ROOT
ATOM      1  C   UNL     1      -3.430  -1.171   1.191  0.00  0.00    +0.303 C 
ATOM      2  O   UNL     1      -3.981  -1.454   0.147  0.00  0.00    -0.265 OA
ATOM      3  N   UNL     1      -4.086  -1.316   2.360  0.00  0.00    -0.278 N 
ATOM      4  H   UNL     1      -3.625  -1.155   3.198  0.00  0.00    +0.155 HD
ENDROOT
BRANCH   3   5
ATOM      5  C   UNL     1      -5.430  -1.700   2.364  0.00  0.00    +0.034 A 
ATOM      6  C   UNL     1      -5.902  -2.592   1.409  0.00  0.00    +0.023 A 
ATOM      7  C   UNL     1      -7.230  -2.969   1.416  0.00  0.00    +0.002 A 
ATOM      8  C   UNL     1      -8.091  -2.459   2.371  0.00  0.00    +0.002 A 
ATOM      9  C   UNL     1      -7.624  -1.570   3.322  0.00  0.00    -0.062 A 
ATOM     10  C   UNL     1      -6.295  -1.194   3.325  0.00  0.00    +0.025 A 
BRANCH   9  11
ATOM     11  C   UNL     1      -8.566  -1.016   4.360  0.00  0.00    -0.044 C 
BRANCH  11  12
ATOM     12  N   UNL     1      -8.568  -1.894   5.538  0.00  0.00    +0.379 N 
ATOM     13  C   UNL     1      -9.391  -1.294   6.595  0.00  0.00    -0.096 C 
ATOM     14  C   UNL     1      -9.121  -3.204   5.171  0.00  0.00    -0.096 C 
ATOM     15  H   UNL     1      -7.623  -2.010   5.872  0.00  0.00    -0.082 HD
ENDBRANCH  11  12
ENDBRANCH   9  11
ENDBRANCH   3   5
BRANCH   1  17
ATOM     16  N   UNL     1      -1.370  -0.516   0.013  0.00  0.00    -0.301 N 
ATOM     17  C   UNL     1      -2.026  -0.661   1.181  0.00  0.00    +0.300 C 
ATOM     18  O   UNL     1      -1.476  -0.379   2.225  0.00  0.00    -0.265 OA
ATOM     19  H   UNL     1      -1.810  -0.742  -0.821  0.00  0.00    +0.150 HD
BRANCH  16  21
ATOM     20  C   UNL     1      -0.005   1.513   0.018  0.00  0.00    +0.033 C 
ATOM     21  C   UNL     1       0.007  -0.017   0.003  0.00  0.00    +0.101 C 
BRANCH  21  22
ATOM     22  C   UNL     1       0.708  -0.501  -1.239  0.00  0.00    -0.026 A 
ATOM     23  C   UNL     1       0.036  -0.523  -2.447  0.00  0.00    +0.007 A 
ATOM     24  C   UNL     1       0.678  -0.968  -3.588  0.00  0.00    +0.022 A 
ATOM     25  C   UNL     1       1.994  -1.391  -3.521  0.00  0.00    +0.059 A 
ATOM     26  C   UNL     1       2.667  -1.368  -2.311  0.00  0.00    +0.060 A 
ATOM     27  C   UNL     1       2.024  -0.917  -1.172  0.00  0.00    +0.027 A 
ATOM     28 CL   UNL     1       4.318  -1.898  -2.225  0.00  0.00    -0.082 Cl
ATOM     29 CL   UNL     1       2.801  -1.950  -4.953  0.00  0.00    -0.082 Cl
ENDBRANCH  21  22
ENDBRANCH  16  21
ENDBRANCH   1  17
TORSDOF 6
