REMARK  Name = ZINC53714934
REMARK  3 active torsions:
REMARK  status: ('A' for Active; 'I' for Inactive)
REMARK    1  A    between atoms: C_2  and  C_15
REMARK    2  A    between atoms: N_4  and  C_7
REMARK    3  A    between atoms: C_5  and  N_6
REMARK                            x       y       z     vdW  Elec       q    Type
REMARK                         _______ _______ _______ _____ _____    ______ ____
ROOT
ATOM      1  C   UNL     1      -0.016   1.357   0.009  0.00  0.00    +0.065 A 
ATOM      2  C   UNL     1       1.308   1.803  -0.001  0.00  0.00    +0.039 A 
ATOM      3  N   UNL     1       2.094   0.757  -0.014  0.00  0.00    -0.300 N 
ATOM      4  N   UNL     1       1.297  -0.395  -0.012  0.00  0.00    -0.269 N 
ATOM      5  C   UNL     1       0.002  -0.004   0.002  0.00  0.00    +0.113 A 
ATOM      6  H   UNL     1       3.064   0.776  -0.023  0.00  0.00    +0.187 HD
ENDROOT
BRANCH   4   7
ATOM      7  C   UNL     1       1.780  -1.777  -0.025  0.00  0.00    +0.129 C 
ATOM      8  C   UNL     1       2.631  -2.010  -1.284  0.00  0.00    +0.051 C 
ATOM      9  C   UNL     1       3.381  -3.362  -1.120  0.00  0.00    +0.168 C 
ATOM     10  S   UNL     1       3.867  -3.265   0.655  0.00  0.00    -0.029 S 
ATOM     11  O   UNL     1       5.165  -2.696   0.748  0.00  0.00    -0.174 OA
ATOM     12  O   UNL     1       3.606  -4.517   1.275  0.00  0.00    -0.174 OA
ATOM     13  C   UNL     1       2.632  -2.035   1.241  0.00  0.00    +0.192 C 
ENDBRANCH   4   7
BRANCH   2  14
ATOM     14  C   UNL     1       1.755   3.242   0.002  0.00  0.00    +0.037 C 
ATOM     15  C   UNL     1       1.866   3.728   1.462  0.00  0.00    +0.010 C 
ATOM     16  C   UNL     1       2.769   4.931   1.498  0.00  0.00    +0.001 C 
ATOM     17  C   UNL     1       1.987   6.257   1.418  0.00  0.00    +0.000 C 
ATOM     18  C   UNL     1       0.837   6.211   0.394  0.00  0.00    +0.000 C 
ATOM     19  C   UNL     1       1.227   5.512  -0.880  0.00  0.00    +0.001 C 
ATOM     20  C   UNL     1       0.810   4.031  -0.774  0.00  0.00    +0.010 C 
ENDBRANCH   2  14
BRANCH   5  21
ATOM     21  N   UNL     1      -1.110  -0.842   0.009  0.00  0.00    -0.343 N 
ATOM     22  H   UNL     1      -2.002  -0.463   0.019  0.00  0.00    +0.144 HD
ATOM     23  H   UNL     1      -0.992  -1.805   0.003  0.00  0.00    +0.144 HD
ENDBRANCH   5  21
TORSDOF 3
