REMARK  Name = ZINC59489386
REMARK  14 active torsions:
REMARK  status: ('A' for Active; 'I' for Inactive)
REMARK    1  A    between atoms: C_1  and  C_2
REMARK    2  A    between atoms: C_2  and  C_3
REMARK    3  A    between atoms: C_3  and  C_4
REMARK    4  A    between atoms: C_4  and  C_5
REMARK    5  A    between atoms: C_5  and  C_6
REMARK    6  A    between atoms: C_6  and  O_7
REMARK    7  A    between atoms: O_7  and  C_8
REMARK    8  A    between atoms: C_11  and  N_14
REMARK    9  A    between atoms: C_18  and  S_22
REMARK   10  A    between atoms: S_22  and  C_23
REMARK   11  A    between atoms: N_25  and  N_26
REMARK   12  A    between atoms: C_27  and  C_28
REMARK   13  A    between atoms: C_27  and  C_29
REMARK   14  A    between atoms: C_32  and  O_35
REMARK                            x       y       z     vdW  Elec       q    Type
REMARK                         _______ _______ _______ _____ _____    ______ ____
ROOT
ATOM      1  N   UNL     1      -4.818 -10.111  -0.005  0.00  0.00    -0.209 N 
ATOM      2  C   UNL     1      -3.789 -10.961  -0.107  0.00  0.00    +0.228 C 
ATOM      3  O   UNL     1      -2.623 -10.645  -0.204  0.00  0.00    -0.275 OA
ATOM      4  C   UNL     1      -4.313 -12.381  -0.082  0.00  0.00    +0.120 C 
ATOM      5  C   UNL     1      -5.839 -12.201   0.053  0.00  0.00    +0.149 C 
ATOM      6  C   UNL     1      -6.016 -10.699   0.096  0.00  0.00    +0.240 C 
ATOM      7  O   UNL     1      -7.076 -10.120   0.203  0.00  0.00    -0.274 OA
ENDROOT
BRANCH   1  11
ATOM      8  C   UNL     1      -4.327  -5.968   0.013  0.00  0.00    +0.121 A 
ATOM      9  C   UNL     1      -4.766  -6.619   1.156  0.00  0.00    +0.047 A 
ATOM     10  C   UNL     1      -4.929  -7.990   1.151  0.00  0.00    +0.027 A 
ATOM     11  C   UNL     1      -4.653  -8.717   0.001  0.00  0.00    +0.044 A 
ATOM     12  C   UNL     1      -4.213  -8.065  -1.143  0.00  0.00    +0.027 A 
ATOM     13  C   UNL     1      -4.056  -6.693  -1.139  0.00  0.00    +0.047 A 
BRANCH   8  14
ATOM     14  O   UNL     1      -4.167  -4.618   0.018  0.00  0.00    -0.492 OA
BRANCH  14  15
ATOM     15  C   UNL     1      -4.464  -3.934   1.238  0.00  0.00    +0.229 C 
BRANCH  15  16
ATOM     16  C   UNL     1      -4.227  -2.434   1.052  0.00  0.00    +0.041 C 
BRANCH  16  17
ATOM     17  C   UNL     1      -4.545  -1.703   2.358  0.00  0.00    +0.003 C 
BRANCH  17  18
ATOM     18  C   UNL     1      -4.308  -0.203   2.173  0.00  0.00    -0.000 C 
BRANCH  18  20
ATOM     19  C   UNL     1      -4.390   2.029   3.293  0.00  0.00    +0.004 C 
ATOM     20  C   UNL     1      -4.627   0.529   3.478  0.00  0.00    -0.003 C 
ENDBRANCH  18  20
ENDBRANCH  17  18
ENDBRANCH  16  17
ENDBRANCH  15  16
ENDBRANCH  14  15
ENDBRANCH   8  14
ENDBRANCH   1  11
BRANCH   5  21
ATOM     21  S   UNL     1      -6.437 -12.957   1.590  0.00  0.00    -0.078 S 
BRANCH  21  22
ATOM     22  C   UNL     1      -8.188 -12.784   1.496  0.00  0.00    +0.146 C 
ATOM     23  N   UNL     1      -8.732 -12.207   0.460  0.00  0.00    -0.380 N 
ATOM     24  N   UNL     1      -8.982 -13.258   2.516  0.00  0.00    -0.217 N 
ATOM     25  H   UNL     1      -9.696 -12.112   0.409  0.00  0.00    +0.158 HD
ATOM     26  H   UNL     1      -8.578 -13.687   3.287  0.00  0.00    +0.176 HD
ATOM     27  H   UNL     1      -8.173 -11.873  -0.258  0.00  0.00    +0.158 HD
BRANCH  24  28
ATOM     28  N   UNL     1     -10.374 -13.120   2.442  0.00  0.00    -0.185 NA
ATOM     29  C   UNL     1     -11.123 -13.567   3.404  0.00  0.00    +0.063 C 
ATOM     30  C   UNL     1     -10.494 -14.233   4.600  0.00  0.00    +0.068 C 
BRANCH  29  31
ATOM     31  C   UNL     1     -12.588 -13.422   3.325  0.00  0.00    -0.002 A 
ATOM     32  C   UNL     1     -13.396 -13.897   4.362  0.00  0.00    +0.013 A 
ATOM     33  C   UNL     1     -14.764 -13.759   4.285  0.00  0.00    +0.046 A 
ATOM     34  C   UNL     1     -15.342 -13.150   3.179  0.00  0.00    +0.117 A 
ATOM     35  C   UNL     1     -14.543 -12.677   2.146  0.00  0.00    +0.046 A 
ATOM     36  C   UNL     1     -13.173 -12.805   2.217  0.00  0.00    +0.013 A 
BRANCH  34  37
ATOM     37  O   UNL     1     -16.692 -13.016   3.107  0.00  0.00    -0.507 OA
ATOM     38  H   UNL     1     -17.027 -12.193   3.489  0.00  0.00    +0.292 HD
ENDBRANCH  34  37
ENDBRANCH  29  31
ENDBRANCH  24  28
ENDBRANCH  21  22
ENDBRANCH   5  21
TORSDOF 12
