REMARK  Name = ZINC05271575
REMARK  9 active torsions:
REMARK  status: ('A' for Active; 'I' for Inactive)
REMARK    1  A    between atoms: C_1  and  C_2
REMARK    2  A    between atoms: C_2  and  C_3
REMARK    3  A    between atoms: C_2  and  C_4
REMARK    4  A    between atoms: C_4  and  C_5
REMARK    5  A    between atoms: C_5  and  C_7
REMARK    6  A    between atoms: C_5  and  N_16
REMARK    7  A    between atoms: N_9  and  C_10
REMARK    8  A    between atoms: C_10  and  C_11
REMARK    9  A    between atoms: C_17  and  C_19
REMARK                            x       y       z     vdW  Elec       q    Type
REMARK                         _______ _______ _______ _____ _____    ______ ____
ROOT
ATOM      1  N   UNL     1      -5.550   0.208  -0.647  0.00  0.00    -0.305 N 
ATOM      2  C   UNL     1      -5.273   1.070   0.351  0.00  0.00    +0.200 C 
ATOM      3  O   UNL     1      -5.933   1.053   1.369  0.00  0.00    -0.278 OA
ATOM      4  H   UNL     1      -5.073   0.271  -1.489  0.00  0.00    +0.149 HD
ENDROOT
BRANCH   2   5
ATOM      5  C   UNL     1      -4.141   2.054   0.204  0.00  0.00    +0.021 C 
ATOM      6  C   UNL     1      -2.814   1.362   0.515  0.00  0.00    +0.028 C 
ATOM      7  C   UNL     1      -1.710   2.385   0.601  0.00  0.00    -0.047 A 
ATOM      8  C   UNL     1      -0.396   1.948   0.529  0.00  0.00    +0.004 A 
ATOM      9  C   UNL     1       0.645   2.850   0.618  0.00  0.00    +0.000 A 
ATOM     10  C   UNL     1       0.376   4.196   0.785  0.00  0.00    +0.000 A 
ATOM     11  C   UNL     1      -0.931   4.632   0.859  0.00  0.00    +0.002 A 
ATOM     12  C   UNL     1      -1.979   3.727   0.769  0.00  0.00    -0.061 A 
ATOM     13  C   UNL     1      -3.389   4.251   0.851  0.00  0.00    -0.045 C 
ATOM     14  N   UNL     1      -4.328   3.163   1.158  0.00  0.00    +0.389 N 
ATOM     15  H   UNL     1      -4.156   2.824   2.112  0.00  0.00    -0.084 HD
ATOM     16  H   UNL     1      -5.290   3.515   1.088  0.00  0.00    -0.084 HD
ENDBRANCH   2   5
BRANCH   1  17
ATOM     17  C   UNL     1      -6.573  -0.824  -0.460  0.00  0.00    +0.159 C 
BRANCH  17  18
ATOM     18  C   UNL     1      -7.096  -1.263  -1.804  0.00  0.00    +0.234 C 
ATOM     19  O   UNL     1      -6.648  -0.771  -2.818  0.00  0.00    -0.274 OA
ATOM     20  N   UNL     1      -8.061  -2.201  -1.879  0.00  0.00    -0.307 N 
ATOM     21  H   UNL     1      -8.419  -2.594  -1.067  0.00  0.00    +0.149 HD
BRANCH  20  22
ATOM     22  C   UNL     1      -8.569  -2.627  -3.185  0.00  0.00    +0.178 C 
BRANCH  22  23
ATOM     23  C   UNL     1      -9.633  -3.676  -2.992  0.00  0.00    +0.122 A 
ATOM     24  C   UNL     1     -10.950  -3.444  -2.850  0.00  0.00    +0.046 A 
ATOM     25  C   UNL     1     -11.574  -4.704  -2.696  0.00  0.00    +0.041 A 
ATOM     26  C   UNL     1     -10.600  -5.630  -2.754  0.00  0.00    +0.195 A 
ATOM     27  O   UNL     1      -9.428  -5.003  -2.939  0.00  0.00    -0.466 OA
ENDBRANCH  22  23
ENDBRANCH  20  22
ENDBRANCH  17  18
BRANCH  17  28
ATOM     28  C   UNL     1      -5.961  -2.024   0.265  0.00  0.00    +0.034 C 
BRANCH  28  30
ATOM     29  C   UNL     1      -3.994  -3.564   0.336  0.00  0.00    +0.007 C 
ATOM     30  C   UNL     1      -4.712  -2.491  -0.485  0.00  0.00    -0.015 C 
ATOM     31  C   UNL     1      -5.119  -3.072  -1.841  0.00  0.00    +0.007 C 
ENDBRANCH  28  30
ENDBRANCH  17  28
ENDBRANCH   1  17
TORSDOF 7
