REMARK  Name = ZINC12603860
REMARK  14 active torsions:
REMARK  status: ('A' for Active; 'I' for Inactive)
REMARK    1  A    between atoms: C_1  and  C_2
REMARK    2  A    between atoms: C_2  and  C_3
REMARK    3  A    between atoms: C_2  and  N_4
REMARK    4  A    between atoms: N_7  and  C_8
REMARK    5  A    between atoms: C_8  and  C_9
REMARK    6  A    between atoms: C_11  and  O_27
REMARK    7  A    between atoms: C_13  and  O_26
REMARK    8  A    between atoms: C_15  and  C_18
REMARK    9  A    between atoms: C_18  and  C_19
REMARK   10  A    between atoms: N_21  and  C_22
REMARK   11  A    between atoms: C_22  and  C_23
REMARK   12  A    between atoms: C_23  and  N_54
REMARK   13  A    between atoms: C_24  and  N_54
REMARK   14  A    between atoms: C_25  and  N_54
REMARK                            x       y       z     vdW  Elec       q    Type
REMARK                         _______ _______ _______ _____ _____    ______ ____
ROOT
ATOM      1  C   UNL     1       1.171   3.098  -0.039  0.00  0.00    +0.167 C 
ATOM      2  C   UNL     1       1.286   1.562  -0.002  0.00  0.00    +0.176 C 
ATOM      3  C   UNL     1       2.039   1.203  -1.306  0.00  0.00    +0.175 C 
ATOM      4  C   UNL     1       1.789   2.464  -2.179  0.00  0.00    +0.158 C 
ATOM      5  O   UNL     1       1.843   3.548  -1.227  0.00  0.00    -0.366 OA
ENDROOT
BRANCH   3   6
ATOM      6  O   UNL     1       1.478   0.038  -1.915  0.00  0.00    -0.387 OA
ATOM      7  H   UNL     1       1.529  -0.756  -1.366  0.00  0.00    +0.210 HD
ENDBRANCH   3   6
BRANCH   2   8
ATOM      8  O   UNL     1      -0.011   0.963   0.007  0.00  0.00    -0.387 OA
ATOM      9  H   UNL     1       0.002  -0.004   0.002  0.00  0.00    +0.210 HD
ENDBRANCH   2   8
BRANCH   1  10
ATOM     10  C   UNL     1       1.842   3.700   1.197  0.00  0.00    +0.140 C 
BRANCH  10  14
ATOM     11  N   UNL     1       1.927   7.227   2.234  0.00  0.00    -0.297 N 
ATOM     12  C   UNL     1       2.128   5.894   2.218  0.00  0.00    +0.300 C 
ATOM     13  O   UNL     1       2.763   5.364   3.109  0.00  0.00    -0.253 OA
ATOM     14  N   UNL     1       1.624   5.149   1.214  0.00  0.00    -0.297 N 
ATOM     15  H   UNL     1       1.420   7.649   1.523  0.00  0.00    +0.150 HD
ATOM     16  H   UNL     1       1.117   5.571   0.504  0.00  0.00    +0.150 HD
BRANCH  11  18
ATOM     17  C   UNL     1       3.925   8.407   3.006  0.00  0.00    +0.027 C 
ATOM     18  C   UNL     1       2.475   8.037   3.324  0.00  0.00    +0.068 C 
ATOM     19  C   UNL     1       1.645   9.313   3.478  0.00  0.00    +0.027 C 
ENDBRANCH  11  18
ENDBRANCH  10  14
ENDBRANCH   1  10
BRANCH   4  20
ATOM     20  C   UNL     1       2.888   2.616  -3.232  0.00  0.00    +0.130 C 
BRANCH  20  21
ATOM     21  C   UNL     1       2.613   3.837  -4.071  0.00  0.00    +0.216 C 
ATOM     22  O   UNL     1       1.635   4.519  -3.849  0.00  0.00    -0.276 OA
ATOM     23  N   UNL     1       3.455   4.172  -5.069  0.00  0.00    -0.317 N 
ATOM     24  H   UNL     1       4.238   3.627  -5.247  0.00  0.00    +0.149 HD
BRANCH  23  25
ATOM     25  C   UNL     1       3.188   5.359  -5.885  0.00  0.00    +0.085 C 
BRANCH  25  26
ATOM     26  C   UNL     1       4.287   5.511  -6.939  0.00  0.00    -0.061 C 
BRANCH  26  29
ATOM     27  C   UNL     1       5.167   7.017  -8.619  0.00  0.00    -0.097 C 
ATOM     28  C   UNL     1       2.796   6.531  -8.551  0.00  0.00    -0.097 C 
ATOM     29  N   UNL     1       4.016   6.724  -7.739  0.00  0.00    +0.377 N 
ATOM     30  H   UNL     1       3.872   7.518  -7.104  0.00  0.00    -0.083 HD
ENDBRANCH  26  29
ENDBRANCH  25  26
ENDBRANCH  23  25
ENDBRANCH  20  21
ENDBRANCH   4  20
TORSDOF 10
