REMARK  Name = ZINC01904209
REMARK  11 active torsions:
REMARK  status: ('A' for Active; 'I' for Inactive)
REMARK    1  A    between atoms: C_1  and  C_2
REMARK    2  A    between atoms: C_2  and  N_3
REMARK    3  A    between atoms: N_3  and  C_4
REMARK    4  A    between atoms: N_3  and  C_6
REMARK    5  A    between atoms: C_4  and  C_5
REMARK    6  A    between atoms: C_9  and  C_12
REMARK    7  A    between atoms: C_21  and  C_28
REMARK    8  A    between atoms: C_23  and  C_24
REMARK    9  A    between atoms: C_23  and  N_63
REMARK   10  A    between atoms: C_24  and  O_26
REMARK   11  A    between atoms: O_26  and  C_27
REMARK                            x       y       z     vdW  Elec       q    Type
REMARK                         _______ _______ _______ _____ _____    ______ ____
ROOT
ATOM      1  C   UNL     1      -5.274  -1.936   3.689  0.00  0.00    +0.049 C 
ATOM      2  N   UNL     1      -6.340  -1.179   4.362  0.00  0.00    -0.353 N 
ATOM      3  C   UNL     1      -7.642  -1.692   4.322  0.00  0.00    +0.028 A 
ATOM      4  C   UNL     1      -8.619  -1.168   5.159  0.00  0.00    +0.024 A 
ATOM      5  C   UNL     1      -9.904  -1.672   5.116  0.00  0.00    +0.017 A 
ATOM      6  C   UNL     1     -10.215  -2.697   4.241  0.00  0.00    +0.018 A 
ATOM      7  C   UNL     1      -9.243  -3.221   3.408  0.00  0.00    +0.019 A 
ATOM      8  C   UNL     1      -7.954  -2.722   3.446  0.00  0.00    -0.035 A 
ATOM      9  C   UNL     1      -6.904  -3.307   2.538  0.00  0.00    -0.001 C 
ATOM     10 BR   UNL     1     -11.976  -3.384   4.182  0.00  0.00    -0.050 Br
ATOM     11  H   UNL     1      -6.146  -0.347   4.822  0.00  0.00    +0.145 HD
ATOM     12  N   UNL     1      -5.796  -2.348   2.365  0.00  0.00    +0.409 N 
ATOM     13  H   UNL     1      -6.146  -1.518   1.871  0.00  0.00    -0.076 HD
ENDROOT
BRANCH   1  17
ATOM     14  C   UNL     1      -1.847   0.559   3.149  0.00  0.00    +0.030 A 
ATOM     15  C   UNL     1      -3.073   0.937   2.618  0.00  0.00    +0.023 A 
ATOM     16  C   UNL     1      -4.178   0.126   2.790  0.00  0.00    +0.005 A 
ATOM     17  C   UNL     1      -4.066  -1.057   3.498  0.00  0.00    -0.044 A 
ATOM     18  C   UNL     1      -2.847  -1.434   4.032  0.00  0.00    +0.005 A 
ATOM     19  C   UNL     1      -1.738  -0.630   3.860  0.00  0.00    +0.023 A 
BRANCH  14  20
ATOM     20  N   UNL     1      -0.726   1.375   2.973  0.00  0.00    -0.330 N 
BRANCH  20  22
ATOM     21  C   UNL     1      -1.203   3.764   3.182  0.00  0.00    +0.024 C 
ATOM     22  C   UNL     1      -0.843   2.628   2.223  0.00  0.00    +0.102 C 
ENDBRANCH  20  22
BRANCH  20  23
ATOM     23  C   UNL     1       0.565   0.977   3.539  0.00  0.00    +0.102 C 
ATOM     24  C   UNL     1       0.696   1.539   4.956  0.00  0.00    +0.024 C 
ENDBRANCH  20  23
ENDBRANCH  14  20
ENDBRANCH   1  17
BRANCH   9  25
ATOM     25  C   UNL     1      -7.514  -3.591   1.190  0.00  0.00    -0.057 A 
ATOM     26  C   UNL     1      -7.690  -2.565   0.280  0.00  0.00    +0.002 A 
ATOM     27  C   UNL     1      -8.245  -2.827  -0.958  0.00  0.00    +0.000 A 
ATOM     28  C   UNL     1      -8.633  -4.114  -1.284  0.00  0.00    +0.000 A 
ATOM     29  C   UNL     1      -8.462  -5.139  -0.372  0.00  0.00    +0.000 A 
ATOM     30  C   UNL     1      -7.902  -4.878   0.865  0.00  0.00    +0.002 A 
ENDBRANCH   9  25
BRANCH  12  31
ATOM     31  C   UNL     1      -4.716  -2.962   1.565  0.00  0.00    +0.048 C 
BRANCH  31  32
ATOM     32  C   UNL     1      -4.228  -4.228   2.221  0.00  0.00    +0.290 C 
ATOM     33  O   UNL     1      -4.644  -4.542   3.311  0.00  0.00    -0.253 OA
BRANCH  32  34
ATOM     34  O   UNL     1      -3.330  -5.006   1.596  0.00  0.00    -0.469 OA
ATOM     35  C   UNL     1      -2.905  -6.210   2.288  0.00  0.00    +0.280 C 
ENDBRANCH  32  34
ENDBRANCH  31  32
ENDBRANCH  12  31
TORSDOF 8
