REMARK  Name = ZINC22010495
REMARK  6 active torsions:
REMARK  status: ('A' for Active; 'I' for Inactive)
REMARK    1  A    between atoms: C_1  and  C_2
REMARK    2  A    between atoms: C_2  and  C_4
REMARK    3  A    between atoms: C_2  and  N_18
REMARK    4  A    between atoms: N_10  and  C_11
REMARK    5  A    between atoms: N_21  and  S_24
REMARK    6  A    between atoms: S_24  and  C_27
REMARK                            x       y       z     vdW  Elec       q    Type
REMARK                         _______ _______ _______ _____ _____    ______ ____
ROOT
ATOM      1  C   UNL     1       5.335   0.851   1.679  0.00  0.00    -0.005 C 
ATOM      2  C   UNL     1       4.776   0.752   0.259  0.00  0.00    -0.002 C 
ENDROOT
BRANCH   2   3
ATOM      3  C   UNL     1       3.499   1.546   0.164  0.00  0.00    +0.123 A 
ATOM      4  N   UNL     1       3.546   2.866   0.118  0.00  0.00    -0.201 NA
ATOM      5  C   UNL     1       2.420   3.572   0.035  0.00  0.00    +0.217 A 
ATOM      6  N   UNL     1       1.248   2.947  -0.002  0.00  0.00    -0.181 NA
ATOM      7  C   UNL     1       1.205   1.620   0.045  0.00  0.00    +0.224 A 
ATOM      8  N   UNL     1       2.335   0.922   0.134  0.00  0.00    -0.201 NA
ATOM      9  N   UNL     1      -0.011   0.966   0.007  0.00  0.00    -0.284 N 
ATOM     10  N   UNL     1       2.470   4.950  -0.014  0.00  0.00    -0.327 N 
ATOM     11  H   UNL     1      -0.053  -0.126   0.139  0.00  0.00    +0.155 HD
ATOM     12  H   UNL     1       1.540   5.532  -0.083  0.00  0.00    +0.145 HD
ATOM     13  H   UNL     1       3.441   5.466   0.016  0.00  0.00    +0.145 HD
BRANCH   9  14
ATOM     14  C   UNL     1      -1.189   1.691  -0.198  0.00  0.00    +0.034 A 
ATOM     15  C   UNL     1      -2.354   1.328   0.465  0.00  0.00    +0.023 A 
ATOM     16  C   UNL     1      -3.514   2.050   0.264  0.00  0.00    +0.002 A 
ATOM     17  C   UNL     1      -3.520   3.126  -0.605  0.00  0.00    +0.000 A 
ATOM     18  C   UNL     1      -2.362   3.486  -1.272  0.00  0.00    +0.002 A 
ATOM     19  C   UNL     1      -1.198   2.772  -1.071  0.00  0.00    +0.023 A 
ENDBRANCH   9  14
ENDBRANCH   2   3
BRANCH   2  20
ATOM     20  N   UNL     1       5.758   1.289  -0.693  0.00  0.00    +0.388 N 
ATOM     21  C   UNL     1       5.215   1.304  -2.058  0.00  0.00    -0.060 C 
ATOM     22  C   UNL     1       6.194   2.033  -2.985  0.00  0.00    +0.091 C 
ATOM     23  N   UNL     1       7.519   1.410  -2.849  0.00  0.00    -0.180 NA
ATOM     24  C   UNL     1       8.070   1.235  -1.497  0.00  0.00    +0.091 C 
ATOM     25  C   UNL     1       7.019   0.537  -0.629  0.00  0.00    -0.060 C 
ATOM     26  H   UNL     1       5.974   2.329  -0.407  0.00  0.00    -0.081 HD
BRANCH  23  27
ATOM     27  S   UNL     1       8.367   0.919  -4.184  0.00  0.00    +0.061 S 
ATOM     28  O   UNL     1       7.886   1.688  -5.277  0.00  0.00    -0.153 OA
ATOM     29  O   UNL     1       9.738   0.901  -3.809  0.00  0.00    -0.153 OA
BRANCH  27  30
ATOM     30  C   UNL     1       7.912  -0.753  -4.505  0.00  0.00    +0.106 A 
ATOM     31  C   UNL     1       8.627  -1.786  -3.929  0.00  0.00    +0.031 A 
ATOM     32  C   UNL     1       8.267  -3.098  -4.177  0.00  0.00    +0.040 A 
ATOM     33  C   UNL     1       7.197  -3.376  -5.009  0.00  0.00    +0.124 A 
ATOM     34  C   UNL     1       6.484  -2.340  -5.589  0.00  0.00    +0.040 A 
ATOM     35  C   UNL     1       6.842  -1.030  -5.336  0.00  0.00    +0.031 A 
ATOM     36  F   UNL     1       6.847  -4.658  -5.255  0.00  0.00    -0.205 F 
ENDBRANCH  27  30
ENDBRANCH  23  27
ENDBRANCH   2  20
TORSDOF 5
