REMARK  Name = ZINC59461299
REMARK  10 active torsions:
REMARK  status: ('A' for Active; 'I' for Inactive)
REMARK    1  A    between atoms: C_1  and  C_2
REMARK    2  A    between atoms: C_4  and  C_36
REMARK    3  A    between atoms: C_5  and  N_9
REMARK    4  A    between atoms: C_6  and  C_8
REMARK    5  A    between atoms: C_10  and  C_12
REMARK    6  A    between atoms: C_12  and  S_13
REMARK    7  A    between atoms: S_13  and  C_14
REMARK    8  A    between atoms: C_19  and  N_23
REMARK    9  A    between atoms: C_24  and  C_25
REMARK   10  A    between atoms: C_34  and  O_35
REMARK                            x       y       z     vdW  Elec       q    Type
REMARK                         _______ _______ _______ _____ _____    ______ ____
ROOT
ATOM      1  C   UNL     1      -0.738  -8.847   2.096  0.00  0.00    +0.136 A 
ATOM      2  N   UNL     1      -0.991  -9.460   0.961  0.00  0.00    -0.233 NA
ATOM      3  C   UNL     1      -1.219 -10.789   0.889  0.00  0.00    +0.080 A 
ATOM      4  C   UNL     1      -1.502 -11.563  -0.262  0.00  0.00    +0.031 A 
ATOM      5  C   UNL     1      -1.711 -12.901  -0.173  0.00  0.00    +0.030 A 
ATOM      6  C   UNL     1      -1.656 -13.569   1.057  0.00  0.00    +0.065 A 
ATOM      7  C   UNL     1      -1.379 -12.835   2.215  0.00  0.00    +0.045 A 
ATOM      8  C   UNL     1      -1.169 -11.486   2.120  0.00  0.00    +0.042 A 
ATOM      9  S   UNL     1      -0.792 -10.189   3.275  0.00  0.00    -0.061 S 
ENDROOT
BRANCH   6  10
ATOM     10  N   UNL     1      -1.871 -14.917   1.125  0.00  0.00    -0.255 NA
ATOM     11  C   UNL     1      -2.866 -15.454   0.471  0.00  0.00    +0.123 C 
BRANCH  11  12
ATOM     12  C   UNL     1      -3.096 -16.899   0.543  0.00  0.00    +0.042 A 
ATOM     13  C   UNL     1      -4.202 -17.518  -0.188  0.00  0.00    -0.006 A 
ATOM     14  C   UNL     1      -5.073 -16.757  -0.976  0.00  0.00    +0.009 A 
ATOM     15  C   UNL     1      -6.091 -17.372  -1.643  0.00  0.00    +0.001 A 
ATOM     16  C   UNL     1      -6.278 -18.749  -1.549  0.00  0.00    +0.001 A 
ATOM     17  C   UNL     1      -5.449 -19.519  -0.791  0.00  0.00    +0.008 A 
ATOM     18  C   UNL     1      -4.389 -18.918  -0.091  0.00  0.00    -0.017 A 
ATOM     19  C   UNL     1      -3.512 -19.681   0.702  0.00  0.00    +0.012 A 
ATOM     20  C   UNL     1      -2.490 -19.092   1.375  0.00  0.00    +0.046 A 
ATOM     21  C   UNL     1      -2.261 -17.718   1.307  0.00  0.00    +0.126 A 
BRANCH  21  22
ATOM     22  O   UNL     1      -1.224 -17.172   1.992  0.00  0.00    -0.506 OA
ATOM     23  H   UNL     1      -1.449 -16.896   2.890  0.00  0.00    +0.292 HD
ENDBRANCH  21  22
ENDBRANCH  11  12
ENDBRANCH   6  10
BRANCH   1  24
ATOM     24  S   UNL     1      -0.418  -7.138   2.382  0.00  0.00    -0.089 S 
BRANCH  24  25
ATOM     25  C   UNL     1      -0.526  -6.390   0.733  0.00  0.00    +0.172 C 
BRANCH  25  27
ATOM     26  N   UNL     1      -0.299  -4.141  -0.272  0.00  0.00    -0.284 N 
ATOM     27  C   UNL     1      -0.270  -4.908   0.836  0.00  0.00    +0.227 C 
ATOM     28  O   UNL     1      -0.036  -4.407   1.915  0.00  0.00    -0.275 OA
ATOM     29  H   UNL     1      -0.421  -4.551  -1.143  0.00  0.00    +0.155 HD
BRANCH  26  34
ATOM     30  C   UNL     1       0.286   1.486   0.157  0.00  0.00    +0.044 C 
ATOM     31  C   UNL     1       0.130  -0.009   0.043  0.00  0.00    -0.050 A 
ATOM     32  C   UNL     1       1.121  -0.844   0.526  0.00  0.00    +0.008 A 
ATOM     33  C   UNL     1       0.982  -2.215   0.423  0.00  0.00    -0.029 A 
ATOM     34  C   UNL     1      -0.155  -2.753  -0.166  0.00  0.00    +0.039 A 
ATOM     35  C   UNL     1      -1.148  -1.911  -0.649  0.00  0.00    -0.029 A 
ATOM     36  C   UNL     1      -1.005  -0.542  -0.539  0.00  0.00    +0.008 A 
ATOM     37  C   UNL     1      -2.383  -2.491  -1.289  0.00  0.00    +0.045 C 
ATOM     38  C   UNL     1       2.062  -3.124   0.949  0.00  0.00    +0.045 C 
ENDBRANCH  26  34
ENDBRANCH  25  27
ENDBRANCH  24  25
ENDBRANCH   1  24
TORSDOF 7
