REMARK  Name = ZINC02793838
REMARK  12 active torsions:
REMARK  status: ('A' for Active; 'I' for Inactive)
REMARK    1  A    between atoms: C_1  and  N_58
REMARK    2  A    between atoms: C_2  and  N_58
REMARK    3  A    between atoms: C_3  and  C_4
REMARK    4  A    between atoms: C_3  and  N_58
REMARK    5  A    between atoms: C_4  and  C_5
REMARK    6  A    between atoms: C_5  and  N_6
REMARK    7  A    between atoms: N_6  and  C_7
REMARK    8  A    between atoms: C_7  and  N_9
REMARK    9  A    between atoms: N_9  and  N_10
REMARK   10  A    between atoms: C_11  and  C_13
REMARK   11  A    between atoms: C_18  and  C_31
REMARK   12  A    between atoms: C_21  and  C_24
REMARK                            x       y       z     vdW  Elec       q    Type
REMARK                         _______ _______ _______ _____ _____    ______ ____
ROOT
ATOM      1  C   UNL     1      -2.546   4.096   0.036  0.00  0.00    +0.150 A 
ATOM      2  C   UNL     1      -2.711   5.500   0.051  0.00  0.00    +0.078 A 
ATOM      3  C   UNL     1      -4.035   5.754   0.051  0.00  0.00    +0.119 A 
ATOM      4  N   UNL     1      -4.697   4.559   0.050  0.00  0.00    -0.238 N 
ATOM      5  N   UNL     1      -3.745   3.541   0.040  0.00  0.00    -0.164 NA
ATOM      6  C   UNL     1      -6.158   4.440   0.061  0.00  0.00    +0.215 C 
ATOM      7  C   UNL     1      -6.760   5.761   0.552  0.00  0.00    +0.063 C 
ATOM      8  C   UNL     1      -6.151   6.934  -0.225  0.00  0.00    +0.104 C 
ATOM      9  N   UNL     1      -4.703   6.982   0.058  0.00  0.00    -0.322 N 
ATOM     10  H   UNL     1      -4.242   7.816   0.237  0.00  0.00    +0.148 HD
ENDROOT
BRANCH   8  11
ATOM     11  C   UNL     1      -6.799   8.222   0.213  0.00  0.00    -0.027 A 
ATOM     12  C   UNL     1      -6.399   8.832   1.387  0.00  0.00    +0.007 A 
ATOM     13  C   UNL     1      -6.990  10.017   1.786  0.00  0.00    +0.020 A 
ATOM     14  C   UNL     1      -7.988  10.586   1.015  0.00  0.00    +0.041 A 
ATOM     15  C   UNL     1      -8.392   9.971  -0.157  0.00  0.00    +0.020 A 
ATOM     16  C   UNL     1      -7.797   8.790  -0.557  0.00  0.00    +0.007 A 
ATOM     17 CL   UNL     1      -8.734  12.070   1.519  0.00  0.00    -0.084 Cl
ENDBRANCH   8  11
BRANCH   1  19
ATOM     18  N   UNL     1      -1.239   2.027   0.019  0.00  0.00    -0.230 N 
ATOM     19  C   UNL     1      -1.257   3.375   0.026  0.00  0.00    +0.280 C 
ATOM     20  O   UNL     1      -0.213   3.997   0.025  0.00  0.00    -0.267 OA
ATOM     21  H   UNL     1      -2.072   1.531   0.020  0.00  0.00    +0.173 HD
BRANCH  18  22
ATOM     22  N   UNL     1      -0.016   1.344   0.009  0.00  0.00    -0.246 N 
ATOM     23  H   UNL     1       0.817   1.840   0.004  0.00  0.00    +0.172 HD
BRANCH  22  24
ATOM     24  C   UNL     1       0.002  -0.004   0.002  0.00  0.00    +0.147 C 
ATOM     25  S   UNL     1       1.496  -0.840  -0.017  0.00  0.00    -0.017 S 
BRANCH  24  26
ATOM     26  N   UNL     1      -1.156  -0.694   0.009  0.00  0.00    -0.326 N 
ATOM     27  H   UNL     1      -2.002  -0.220   0.020  0.00  0.00    +0.148 HD
BRANCH  26  28
ATOM     28  C   UNL     1      -1.136  -2.159   0.001  0.00  0.00    +0.101 C 
BRANCH  28  29
ATOM     29  C   UNL     1      -2.571  -2.688   0.012  0.00  0.00    +0.000 C 
BRANCH  29  30
ATOM     30  C   UNL     1      -2.551  -4.218   0.004  0.00  0.00    -0.078 C 
BRANCH  30  33
ATOM     31  C   UNL     1      -4.627  -4.380  -1.231  0.00  0.00    -0.097 C 
ATOM     32  C   UNL     1      -3.953  -6.177   0.245  0.00  0.00    -0.097 C 
ATOM     33  N   UNL     1      -3.943  -4.714   0.036  0.00  0.00    +0.376 N 
ATOM     34  H   UNL     1      -4.440  -4.263   0.813  0.00  0.00    -0.083 HD
ENDBRANCH  30  33
ENDBRANCH  29  30
ENDBRANCH  28  29
ENDBRANCH  26  28
ENDBRANCH  24  26
ENDBRANCH  22  24
ENDBRANCH  18  22
ENDBRANCH   1  19
BRANCH   6  35
ATOM     35  C   UNL     1      -6.573   3.307   1.001  0.00  0.00    +0.412 C 
ATOM     36  F   UNL     1      -6.120   3.584   2.295  0.00  0.00    -0.168 F 
ATOM     37  F   UNL     1      -7.968   3.194   1.009  0.00  0.00    -0.168 F 
ATOM     38  F   UNL     1      -6.011   2.104   0.558  0.00  0.00    -0.168 F 
ENDBRANCH   6  35
TORSDOF 10
