REMARK  Name = ZINC21253957
REMARK  8 active torsions:
REMARK  status: ('A' for Active; 'I' for Inactive)
REMARK    1  A    between atoms: C_1  and  C_2
REMARK    2  A    between atoms: C_6  and  C_36
REMARK    3  A    between atoms: C_7  and  N_8
REMARK    4  A    between atoms: C_18  and  S_19
REMARK    5  A    between atoms: S_19  and  C_20
REMARK    6  A    between atoms: C_20  and  C_21
REMARK    7  A    between atoms: C_23  and  O_24
REMARK    8  A    between atoms: C_33  and  C_35
REMARK                            x       y       z     vdW  Elec       q    Type
REMARK                         _______ _______ _______ _____ _____    ______ ____
ROOT
ATOM      1  N   UNL     1       0.424   0.984  -3.905  0.00  0.00    -0.255 N 
ATOM      2  C   UNL     1       1.258   0.381  -4.785  0.00  0.00    +0.267 A 
ATOM      3  O   UNL     1       1.138   0.550  -5.984  0.00  0.00    -0.267 OA
ATOM      4  C   UNL     1       2.311  -0.484  -4.238  0.00  0.00    +0.065 A 
ATOM      5  C   UNL     1       3.219  -1.149  -5.062  0.00  0.00    +0.015 A 
ATOM      6  C   UNL     1       4.181  -1.943  -4.501  0.00  0.00    +0.001 A 
ATOM      7  C   UNL     1       4.262  -2.094  -3.123  0.00  0.00    +0.002 A 
ATOM      8  C   UNL     1       3.386  -1.454  -2.292  0.00  0.00    +0.028 A 
ATOM      9  C   UNL     1       2.391  -0.635  -2.835  0.00  0.00    +0.079 A 
ATOM     10  N   UNL     1       1.505   0.021  -2.050  0.00  0.00    -0.223 NA
ATOM     11  C   UNL     1       0.571   0.784  -2.560  0.00  0.00    +0.177 A 
ENDROOT
BRANCH   1  18
ATOM     12  C   UNL     1      -2.104  -0.183  -4.493  0.00  0.00    +0.046 C 
ATOM     13  C   UNL     1      -1.846   1.290  -4.675  0.00  0.00    -0.026 A 
ATOM     14  C   UNL     1      -2.853   2.117  -5.134  0.00  0.00    +0.005 A 
ATOM     15  C   UNL     1      -2.615   3.468  -5.307  0.00  0.00    +0.001 A 
ATOM     16  C   UNL     1      -1.371   3.997  -5.016  0.00  0.00    +0.005 A 
ATOM     17  C   UNL     1      -0.361   3.176  -4.551  0.00  0.00    -0.026 A 
ATOM     18  C   UNL     1      -0.598   1.819  -4.377  0.00  0.00    +0.058 A 
ATOM     19  C   UNL     1       0.994   3.753  -4.235  0.00  0.00    +0.046 C 
ENDBRANCH   1  18
BRANCH  11  20
ATOM     20  S   UNL     1      -0.544   1.596  -1.464  0.00  0.00    -0.083 S 
BRANCH  20  21
ATOM     21  C   UNL     1       0.086   0.998   0.124  0.00  0.00    +0.113 C 
BRANCH  21  22
ATOM     22  C   UNL     1      -0.739   1.580   1.243  0.00  0.00    -0.020 A 
ATOM     23  C   UNL     1      -1.842   0.935   1.704  0.00  0.00    +0.092 A 
ATOM     24  C   UNL     1      -2.598   1.500   2.753  0.00  0.00    +0.285 A 
ATOM     25  O   UNL     1      -2.257   2.669   3.317  0.00  0.00    -0.425 OA
ATOM     26  C   UNL     1      -1.172   3.360   2.906  0.00  0.00    +0.141 A 
ATOM     27  C   UNL     1      -0.369   2.852   1.868  0.00  0.00    +0.022 A 
ATOM     28  C   UNL     1       0.753   3.567   1.434  0.00  0.00    +0.013 A 
ATOM     29  C   UNL     1       1.072   4.753   2.029  0.00  0.00    +0.024 A 
ATOM     30  C   UNL     1       0.284   5.260   3.062  0.00  0.00    +0.037 A 
ATOM     31  C   UNL     1      -0.834   4.567   3.499  0.00  0.00    +0.070 A 
ATOM     32  N   UNL     1       0.623   6.475   3.659  0.00  0.00    -0.286 N 
ATOM     33  C   UNL     1       0.385   6.670   4.971  0.00  0.00    +0.214 C 
ATOM     34  O   UNL     1      -0.036   5.759   5.653  0.00  0.00    -0.276 OA
ATOM     35  C   UNL     1       0.640   8.020   5.591  0.00  0.00    +0.109 C 
ATOM     36  H   UNL     1       1.085   7.273   3.060  0.00  0.00    +0.155 HD
BRANCH  24  37
ATOM     37  O   UNL     1      -3.585   0.912   3.156  0.00  0.00    -0.480 OA
ATOM     38  H   UNL     1      -4.184   1.339   3.973  0.00  0.00    +0.295 HD
ENDBRANCH  24  37
ENDBRANCH  21  22
ENDBRANCH  20  21
ENDBRANCH  11  20
TORSDOF 5
