REMARK  Name = ZINC17218650
REMARK  16 active torsions:
REMARK  status: ('A' for Active; 'I' for Inactive)
REMARK    1  A    between atoms: C_1  and  C_2
REMARK    2  A    between atoms: C_7  and  C_30
REMARK    3  A    between atoms: C_8  and  C_9
REMARK    4  A    between atoms: C_8  and  C_10
REMARK    5  A    between atoms: C_10  and  C_11
REMARK    6  A    between atoms: C_11  and  C_12
REMARK    7  A    between atoms: C_12  and  C_29
REMARK    8  A    between atoms: C_13  and  C_14
REMARK    9  A    between atoms: C_14  and  C_15
REMARK   10  A    between atoms: C_15  and  C_16
REMARK   11  A    between atoms: C_16  and  C_28
REMARK   12  A    between atoms: C_17  and  C_18
REMARK   13  A    between atoms: C_18  and  S_19
REMARK   14  A    between atoms: S_19  and  C_22
REMARK   15  A    between atoms: C_22  and  C_23
REMARK   16  A    between atoms: C_23  and  N_24
REMARK                            x       y       z     vdW  Elec       q    Type
REMARK                         _______ _______ _______ _____ _____    ______ ____
ROOT
ATOM      1  C   UNL     1      -0.709   2.494   0.975  0.00  0.00    -0.075 C 
ATOM      2  C   UNL     1      -0.214   3.509   0.311  0.00  0.00    -0.006 C 
ATOM      3  C   UNL     1      -2.167   2.481   1.355  0.00  0.00    +0.039 C 
ENDROOT
BRANCH   1   4
ATOM      4  C   UNL     1       0.179   1.336   1.352  0.00  0.00    +0.034 C 
BRANCH   4   5
ATOM      5  C   UNL     1       0.705   1.539   2.775  0.00  0.00    +0.031 C 
BRANCH   5   7
ATOM      6  C   UNL     1       2.850   0.592   3.457  0.00  0.00    -0.076 C 
ATOM      7  C   UNL     1       1.593   0.382   3.152  0.00  0.00    -0.028 C 
ATOM      8  C   UNL     1       3.703  -0.544   3.959  0.00  0.00    +0.039 C 
BRANCH   6   9
ATOM      9  C   UNL     1       3.442   1.969   3.305  0.00  0.00    +0.031 C 
BRANCH   9  10
ATOM     10  C   UNL     1       3.368   2.707   4.644  0.00  0.00    +0.015 C 
BRANCH  10  17
ATOM     11  C   UNL     1       6.292   3.389   5.173  0.00  0.00    +0.008 C 
ATOM     12  C   UNL     1       5.443   3.955   4.033  0.00  0.00    -0.004 C 
ATOM     13  C   UNL     1       5.965   5.343   3.642  0.00  0.00    +0.008 C 
ATOM     14  C   UNL     1       5.216   5.807   2.390  0.00  0.00    +0.027 C 
ATOM     15  C   UNL     1       3.737   5.636   2.580  0.00  0.00    -0.027 C 
ATOM     16  C   UNL     1       3.204   4.889   3.493  0.00  0.00    -0.070 C 
ATOM     17  C   UNL     1       3.991   4.096   4.495  0.00  0.00    -0.008 C 
ATOM     18  C   UNL     1       3.959   4.813   5.846  0.00  0.00    +0.016 C 
ATOM     19  C   UNL     1       1.700   4.810   3.553  0.00  0.00    +0.039 C 
ENDBRANCH  10  17
ENDBRANCH   9  10
ENDBRANCH   6   9
ENDBRANCH   5   7
ENDBRANCH   4   5
ENDBRANCH   1   4
BRANCH   2  20
ATOM     20  C   UNL     1      -1.071   4.717   0.034  0.00  0.00    +0.193 C 
BRANCH  20  21
ATOM     21  S   UNL     1      -1.390   4.836  -1.748  0.00  0.00    -0.026 S 
ATOM     22  O   UNL     1      -0.157   5.083  -2.410  0.00  0.00    -0.174 OA
ATOM     23  O   UNL     1      -2.172   3.716  -2.140  0.00  0.00    -0.174 OA
BRANCH  21  24
ATOM     24  C   UNL     1      -2.417   6.326  -1.873  0.00  0.00    +0.187 C 
BRANCH  24  25
ATOM     25  C   UNL     1      -2.781   6.573  -3.338  0.00  0.00    +0.138 C 
BRANCH  25  26
ATOM     26  N   UNL     1      -3.611   7.777  -3.439  0.00  0.00    -0.356 N 
ATOM     27  C   UNL     1      -3.154   8.834  -4.049  0.00  0.00    +0.166 C 
ATOM     28  N   UNL     1      -1.921   8.798  -4.656  0.00  0.00    -0.372 N 
ATOM     29  N   UNL     1      -3.905   9.985  -4.085  0.00  0.00    -0.372 N 
ATOM     30  H   UNL     1      -1.535   9.691  -5.171  0.00  0.00    +0.159 HD
ATOM     31  H   UNL     1      -1.320   7.878  -4.627  0.00  0.00    +0.159 HD
ATOM     32  H   UNL     1      -3.520  10.877  -4.601  0.00  0.00    +0.159 HD
ATOM     33  H   UNL     1      -4.892  10.013  -3.600  0.00  0.00    +0.159 HD
ATOM     34  H   UNL     1      -4.619   7.788  -2.999  0.00  0.00    +0.162 HD
ENDBRANCH  25  26
ENDBRANCH  24  25
ENDBRANCH  21  24
ENDBRANCH  20  21
ENDBRANCH   2  20
TORSDOF 11
