REMARK  Name = ZINC09227835
REMARK  13 active torsions:
REMARK  status: ('A' for Active; 'I' for Inactive)
REMARK    1  A    between atoms: C_1  and  C_2
REMARK    2  A    between atoms: C_2  and  N_77
REMARK    3  A    between atoms: C_6  and  C_8
REMARK    4  A    between atoms: C_8  and  N_9
REMARK    5  A    between atoms: C_10  and  C_12
REMARK    6  A    between atoms: N_15  and  C_30
REMARK    7  A    between atoms: C_16  and  C_17
REMARK    8  A    between atoms: C_23  and  O_25
REMARK    9  A    between atoms: O_25  and  C_26
REMARK   10  A    between atoms: C_26  and  C_27
REMARK   11  A    between atoms: C_26  and  C_28
REMARK   12  A    between atoms: C_26  and  C_29
REMARK   13  A    between atoms: C_33  and  C_36
REMARK                            x       y       z     vdW  Elec       q    Type
REMARK                         _______ _______ _______ _____ _____    ______ ____
ROOT
ATOM      1  C   UNL     1      -3.735   2.463   5.378  0.00  0.00    +0.078 A 
ATOM      2  C   UNL     1      -2.725   1.674   5.974  0.00  0.00    +0.148 A 
ATOM      3  N   UNL     1      -2.820   1.808   7.269  0.00  0.00    -0.174 NA
ATOM      4  N   UNL     1      -3.878   2.676   7.559  0.00  0.00    -0.236 N 
ATOM      5  C   UNL     1      -4.430   3.078   6.400  0.00  0.00    +0.060 A 
ENDROOT
BRANCH   5   6
ATOM      6  C   UNL     1      -5.595   4.022   6.245  0.00  0.00    +0.042 C 
ATOM      7  C   UNL     1      -6.719   3.323   5.477  0.00  0.00    +0.029 C 
ATOM      8  C   UNL     1      -7.914   4.273   5.353  0.00  0.00    +0.112 C 
ATOM      9  N   UNL     1      -7.457   5.530   4.743  0.00  0.00    -0.267 N 
ATOM     10  C   UNL     1      -6.322   6.237   5.350  0.00  0.00    +0.112 C 
ATOM     11  C   UNL     1      -5.144   5.265   5.475  0.00  0.00    +0.029 C 
ATOM     12  C   UNL     1      -8.069   6.024   3.648  0.00  0.00    +0.403 C 
ATOM     13  O   UNL     1      -7.682   7.064   3.154  0.00  0.00    -0.226 OA
BRANCH  12  14
ATOM     14  O   UNL     1      -9.108   5.365   3.103  0.00  0.00    -0.445 OA
BRANCH  14  15
ATOM     15  C   UNL     1      -9.718   5.956   1.925  0.00  0.00    +0.107 C 
ATOM     16  C   UNL     1      -8.674   6.069   0.813  0.00  0.00    +0.055 C 
ATOM     17  C   UNL     1     -10.874   5.072   1.452  0.00  0.00    +0.055 C 
ATOM     18  C   UNL     1     -10.250   7.348   2.270  0.00  0.00    +0.055 C 
ENDBRANCH  14  15
ENDBRANCH  12  14
ENDBRANCH   5   6
BRANCH   4  19
ATOM     19  C   UNL     1      -4.290   3.066   8.841  0.00  0.00    +0.066 A 
ATOM     20  C   UNL     1      -4.597   4.395   9.099  0.00  0.00    +0.028 A 
ATOM     21  C   UNL     1      -5.007   4.775  10.362  0.00  0.00    +0.005 A 
ATOM     22  C   UNL     1      -5.102   3.835  11.371  0.00  0.00    -0.050 A 
ATOM     23  C   UNL     1      -4.793   2.511  11.119  0.00  0.00    +0.005 A 
ATOM     24  C   UNL     1      -4.387   2.124   9.857  0.00  0.00    +0.028 A 
ATOM     25  C   UNL     1      -5.544   4.255  12.750  0.00  0.00    +0.044 C 
ENDBRANCH   4  19
BRANCH   1  27
ATOM     26  N   UNL     1      -3.306   1.859   3.048  0.00  0.00    -0.313 N 
ATOM     27  C   UNL     1      -3.993   2.607   3.933  0.00  0.00    +0.247 C 
ATOM     28  O   UNL     1      -4.826   3.402   3.541  0.00  0.00    -0.270 OA
ATOM     29  H   UNL     1      -2.642   1.225   3.361  0.00  0.00    +0.149 HD
BRANCH  26  30
ATOM     30  C   UNL     1      -3.563   2.002   1.613  0.00  0.00    +0.089 C 
BRANCH  30  34
ATOM     31  C   UNL     1      -2.612  -0.237  -1.169  0.00  0.00    -0.078 C 
ATOM     32  C   UNL     1      -3.145  -1.251  -0.135  0.00  0.00    -0.020 C 
ATOM     33  C   UNL     1      -3.236  -0.464   1.188  0.00  0.00    -0.016 C 
ATOM     34  C   UNL     1      -2.750   0.960   0.843  0.00  0.00    -0.051 C 
ATOM     35  N   UNL     1      -2.983   1.058  -0.605  0.00  0.00    +0.382 N 
ATOM     36  H   UNL     1      -3.974   1.250  -0.789  0.00  0.00    -0.081 HD
BRANCH  35  38
ATOM     37  C   UNL     1      -2.610   2.445  -2.628  0.00  0.00    -0.017 C 
ATOM     38  C   UNL     1      -2.150   2.154  -1.198  0.00  0.00    -0.082 C 
ENDBRANCH  35  38
ENDBRANCH  30  34
ENDBRANCH  26  30
ENDBRANCH   1  27
TORSDOF 8
