REMARK  Name = ZINC66733871
REMARK  8 active torsions:
REMARK  status: ('A' for Active; 'I' for Inactive)
REMARK    1  A    between atoms: C_1  and  C_2
REMARK    2  A    between atoms: C_2  and  N_3
REMARK    3  A    between atoms: C_4  and  C_24
REMARK    4  A    between atoms: C_5  and  C_9
REMARK    5  A    between atoms: C_6  and  C_8
REMARK    6  A    between atoms: C_9  and  N_10
REMARK    7  A    between atoms: C_11  and  C_13
REMARK    8  A    between atoms: C_13  and  N_14
REMARK                            x       y       z     vdW  Elec       q    Type
REMARK                         _______ _______ _______ _____ _____    ______ ____
ROOT
ATOM      1  N   UNL     1       1.041  -0.371  -5.540  0.00  0.00    -0.310 N 
ATOM      2  C   UNL     1       0.911  -0.489  -6.877  0.00  0.00    +0.233 C 
ATOM      3  O   UNL     1       0.668  -1.571  -7.369  0.00  0.00    -0.274 OA
ATOM      4  H   UNL     1       1.236   0.493  -5.147  0.00  0.00    +0.149 HD
ENDROOT
BRANCH   1   5
ATOM      5  C   UNL     1       0.889  -1.549  -4.683  0.00  0.00    +0.143 C 
BRANCH   5   8
ATOM      6  N   UNL     1       0.688  -0.476  -1.203  0.00  0.00    -0.268 N 
ATOM      7  C   UNL     1       0.110  -0.737  -2.395  0.00  0.00    +0.041 A 
ATOM      8  C   UNL     1       1.081  -1.150  -3.242  0.00  0.00    +0.013 A 
ATOM      9  C   UNL     1       2.293  -1.141  -2.545  0.00  0.00    +0.065 A 
ATOM     10  N   UNL     1       2.060  -0.732  -1.324  0.00  0.00    -0.176 NA
ATOM     11  C   UNL     1       3.638  -1.529  -3.105  0.00  0.00    +0.068 C 
ATOM     12  C   UNL     1      -1.354  -0.595  -2.722  0.00  0.00    +0.065 C 
BRANCH   6  14
ATOM     13  C   UNL     1      -0.019   1.526   0.010  0.00  0.00    +0.029 C 
ATOM     14  C   UNL     1       0.002  -0.004   0.002  0.00  0.00    +0.140 C 
ENDBRANCH   6  14
ENDBRANCH   5   8
ENDBRANCH   1   5
BRANCH   2  15
ATOM     15  C   UNL     1       1.068   0.722  -7.759  0.00  0.00    +0.222 C 
BRANCH  15  16
ATOM     16  N   UNL     1       0.881   0.334  -9.159  0.00  0.00    -0.291 N 
ATOM     17  C   UNL     1       1.960  -0.070  -9.900  0.00  0.00    +0.111 A 
ATOM     18  C   UNL     1       1.788  -0.428 -11.191  0.00  0.00    +0.098 A 
ATOM     19  C   UNL     1       0.488  -0.377 -11.753  0.00  0.00    +0.268 A 
ATOM     20  O   UNL     1       0.308  -0.695 -12.914  0.00  0.00    -0.267 OA
ATOM     21  N   UNL     1      -0.547   0.027 -10.989  0.00  0.00    -0.274 N 
ATOM     22  H   UNL     1      -1.440   0.064 -11.367  0.00  0.00    +0.173 HD
ATOM     23  C   UNL     1      -0.348   0.372  -9.704  0.00  0.00    +0.330 A 
ATOM     24  O   UNL     1      -1.293   0.730  -9.026  0.00  0.00    -0.246 OA
ATOM     25 BR   UNL     1       3.261  -0.989 -12.235  0.00  0.00    -0.043 Br
ENDBRANCH  15  16
ENDBRANCH   2  15
TORSDOF 5
