REMARK  Name = ZINC33690071
REMARK  11 active torsions:
REMARK  status: ('A' for Active; 'I' for Inactive)
REMARK    1  A    between atoms: C_1  and  C_2
REMARK    2  A    between atoms: N_6  and  C_27
REMARK    3  A    between atoms: C_7  and  S_13
REMARK    4  A    between atoms: S_13  and  C_14
REMARK    5  A    between atoms: C_14  and  C_15
REMARK    6  A    between atoms: N_17  and  C_18
REMARK    7  A    between atoms: C_21  and  C_24
REMARK    8  A    between atoms: C_24  and  C_25
REMARK    9  A    between atoms: C_24  and  C_26
REMARK   10  A    between atoms: C_30  and  O_33
REMARK   11  A    between atoms: O_33  and  C_34
REMARK                            x       y       z     vdW  Elec       q    Type
REMARK                         _______ _______ _______ _____ _____    ______ ____
ROOT
ATOM      1  C   UNL     1      -0.560   1.565  -0.144  0.00  0.00    +0.068 C 
ATOM      2  C   UNL     1      -0.390   0.069  -0.107  0.00  0.00    +0.072 A 
ATOM      3  C   UNL     1      -0.490  -0.801  -1.216  0.00  0.00    +0.079 A 
ATOM      4  C   UNL     1      -0.750  -0.624  -2.589  0.00  0.00    +0.115 A 
ATOM      5  N   UNL     1      -0.978   0.634  -3.108  0.00  0.00    -0.344 N 
ATOM      6  N   UNL     1      -0.770  -1.701  -3.376  0.00  0.00    -0.276 N 
ATOM      7  C   UNL     1      -0.550  -2.920  -2.877  0.00  0.00    +0.177 A 
ATOM      8  N   UNL     1      -0.303  -3.126  -1.595  0.00  0.00    -0.204 NA
ATOM      9  C   UNL     1      -0.263  -2.106  -0.738  0.00  0.00    +0.162 A 
ATOM     10  N   UNL     1      -0.040  -1.996   0.603  0.00  0.00    -0.260 N 
ATOM     11  H   UNL     1       0.147  -2.728   1.211  0.00  0.00    +0.191 HD
ATOM     12  N   UNL     1      -0.122  -0.641   0.951  0.00  0.00    -0.177 NA
ATOM     13  H   UNL     1      -0.854   1.419  -2.550  0.00  0.00    +0.144 HD
ATOM     14  H   UNL     1      -1.261   0.735  -4.030  0.00  0.00    +0.144 HD
ENDROOT
BRANCH   6  15
ATOM     15  C   UNL     1      -1.022  -1.553  -4.724  0.00  0.00    +0.050 A 
ATOM     16  C   UNL     1      -2.263  -1.086  -5.155  0.00  0.00    +0.030 A 
ATOM     17  C   UNL     1      -2.512  -0.939  -6.504  0.00  0.00    +0.047 A 
ATOM     18  C   UNL     1      -1.530  -1.256  -7.431  0.00  0.00    +0.120 A 
ATOM     19  C   UNL     1      -0.294  -1.722  -7.005  0.00  0.00    +0.047 A 
ATOM     20  C   UNL     1      -0.036  -1.865  -5.657  0.00  0.00    +0.030 A 
BRANCH  18  21
ATOM     21  O   UNL     1      -1.778  -1.110  -8.760  0.00  0.00    -0.495 OA
ATOM     22  C   UNL     1      -0.723  -1.455  -9.659  0.00  0.00    +0.277 C 
ENDBRANCH  18  21
ENDBRANCH   6  15
BRANCH   7  23
ATOM     23  S   UNL     1      -0.591  -4.304  -3.967  0.00  0.00    -0.078 S 
BRANCH  23  24
ATOM     24  C   UNL     1      -0.248  -5.722  -2.888  0.00  0.00    +0.173 C 
BRANCH  24  25
ATOM     25  C   UNL     1      -0.254  -6.988  -3.706  0.00  0.00    +0.227 C 
ATOM     26  O   UNL     1      -0.469  -6.939  -4.899  0.00  0.00    -0.275 OA
ATOM     27  N   UNL     1      -0.021  -8.175  -3.112  0.00  0.00    -0.285 N 
ATOM     28  H   UNL     1       0.077  -8.224  -2.148  0.00  0.00    +0.155 HD
BRANCH  27  29
ATOM     29  C   UNL     1       0.081  -9.337  -3.885  0.00  0.00    +0.033 A 
ATOM     30  C   UNL     1      -0.364 -10.551  -3.379  0.00  0.00    +0.023 A 
ATOM     31  C   UNL     1      -0.263 -11.696  -4.145  0.00  0.00    +0.006 A 
ATOM     32  C   UNL     1       0.281 -11.634  -5.415  0.00  0.00    -0.045 A 
ATOM     33  C   UNL     1       0.725 -10.426  -5.922  0.00  0.00    +0.006 A 
ATOM     34  C   UNL     1       0.621  -9.277  -5.164  0.00  0.00    +0.023 A 
BRANCH  32  35
ATOM     35  C   UNL     1       0.390 -12.885  -6.248  0.00  0.00    +0.013 C 
ATOM     36  C   UNL     1      -0.411 -12.709  -7.540  0.00  0.00    +0.012 C 
ATOM     37  C   UNL     1       1.859 -13.143  -6.590  0.00  0.00    +0.012 C 
ENDBRANCH  32  35
ENDBRANCH  27  29
ENDBRANCH  24  25
ENDBRANCH  23  24
ENDBRANCH   7  23
TORSDOF 7
