REMARK  Name = ZINC22037158
REMARK  2 active torsions:
REMARK  status: ('A' for Active; 'I' for Inactive)
REMARK    1  A    between atoms: N_10  and  C_13
REMARK    2  A    between atoms: C_13  and  C_14
REMARK                            x       y       z     vdW  Elec       q    Type
REMARK                         _______ _______ _______ _____ _____    ______ ____
ROOT
ATOM      1  C   UNL     1      -3.539   2.452   6.036  0.00  0.00    +0.017 A 
ATOM      2  C   UNL     1      -2.716   3.294   5.323  0.00  0.00    +0.029 A 
ATOM      3  C   UNL     1      -2.377   2.978   4.006  0.00  0.00    +0.078 A 
ATOM      4  C   UNL     1      -2.886   1.795   3.425  0.00  0.00    +0.066 A 
ATOM      5  C   UNL     1      -3.717   0.956   4.163  0.00  0.00    +0.030 A 
ATOM      6  C   UNL     1      -4.038   1.289   5.462  0.00  0.00    +0.019 A 
ATOM      7 BR   UNL     1      -5.167   0.155   6.470  0.00  0.00    -0.050 Br
ATOM      8  C   UNL     1      -2.514   1.493   2.034  0.00  0.00    +0.262 A 
ATOM      9  O   UNL     1      -2.922   0.493   1.473  0.00  0.00    -0.267 OA
ATOM     10  N   UNL     1      -1.697   2.369   1.404  0.00  0.00    -0.293 N 
ATOM     11  C   UNL     1      -1.254   3.484   2.042  0.00  0.00    +0.203 A 
ATOM     12  N   UNL     1      -1.569   3.779   3.267  0.00  0.00    -0.237 NA
ENDROOT
BRANCH  10  13
ATOM     13  C   UNL     1      -1.291   2.116   0.020  0.00  0.00    +0.185 C 
BRANCH  13  14
ATOM     14  C   UNL     1      -0.016   1.312   0.009  0.00  0.00    +0.110 A 
ATOM     15  C   UNL     1       1.221   1.884   0.001  0.00  0.00    +0.123 A 
ATOM     16  S   UNL     1       2.236   0.480  -0.017  0.00  0.00    +0.049 S 
ATOM     17  N   UNL     1       1.120  -0.637  -0.012  0.00  0.00    -0.109 NA
ATOM     18  N   UNL     1       0.002  -0.004   0.002  0.00  0.00    -0.143 NA
ATOM     19 CL   UNL     1       1.661   3.563   0.004  0.00  0.00    -0.072 Cl
ENDBRANCH  13  14
ENDBRANCH  10  13
TORSDOF 2
