REMARK  Name = ZINC36483074
REMARK  16 active torsions:
REMARK  status: ('A' for Active; 'I' for Inactive)
REMARK    1  A    between atoms: C_1  and  C_2
REMARK    2  A    between atoms: C_3  and  C_4
REMARK    3  A    between atoms: C_4  and  C_6
REMARK    4  A    between atoms: C_4  and  N_17
REMARK    5  A    between atoms: N_8  and  C_9
REMARK    6  A    between atoms: C_9  and  C_10
REMARK    7  A    between atoms: C_9  and  C_11
REMARK    8  A    between atoms: C_9  and  C_12
REMARK    9  A    between atoms: C_12  and  C_13
REMARK   10  A    between atoms: C_13  and  C_14
REMARK   11  A    between atoms: C_13  and  C_15
REMARK   12  A    between atoms: C_13  and  C_16
REMARK   13  A    between atoms: N_17  and  C_18
REMARK   14  A    between atoms: C_25  and  C_27
REMARK   15  A    between atoms: C_29  and  N_36
REMARK   16  A    between atoms: C_31  and  N_33
REMARK                            x       y       z     vdW  Elec       q    Type
REMARK                         _______ _______ _______ _____ _____    ______ ____
ROOT
ATOM      1  N   UNL     1       1.052   0.560  -2.818  0.00  0.00    -0.252 N 
ATOM      2  C   UNL     1       2.301   1.047  -2.680  0.00  0.00    +0.252 C 
ATOM      3  O   UNL     1       3.212   0.578  -3.335  0.00  0.00    -0.270 OA
ENDROOT
BRANCH   1   4
ATOM      4  C   UNL     1      -0.002   1.123  -2.091  0.00  0.00    +0.039 A 
ATOM      5  C   UNL     1      -0.476   2.388  -2.418  0.00  0.00    +0.023 A 
ATOM      6  C   UNL     1      -1.517   2.941  -1.699  0.00  0.00    +0.003 A 
ATOM      7  C   UNL     1      -2.088   2.238  -0.653  0.00  0.00    +0.020 A 
ATOM      8  C   UNL     1      -1.618   0.979  -0.324  0.00  0.00    +0.043 A 
ATOM      9  C   UNL     1      -0.580   0.417  -1.044  0.00  0.00    +0.043 A 
ATOM     10 CL   UNL     1      -2.337   0.101   0.990  0.00  0.00    -0.083 Cl
ENDBRANCH   1   4
BRANCH   2  11
ATOM     11  C   UNL     1       2.564   2.151  -1.733  0.00  0.00    +0.042 A 
ATOM     12  C   UNL     1       1.865   2.221  -0.527  0.00  0.00    +0.046 A 
ATOM     13  C   UNL     1       2.115   3.254   0.353  0.00  0.00    +0.129 A 
ATOM     14  C   UNL     1       3.057   4.219   0.042  0.00  0.00    +0.065 A 
ATOM     15  C   UNL     1       3.753   4.155  -1.152  0.00  0.00    +0.129 A 
ATOM     16  C   UNL     1       3.517   3.124  -2.038  0.00  0.00    +0.046 A 
BRANCH  15  17
ATOM     17  N   UNL     1       4.759   5.192  -1.476  0.00  0.00    +0.057 N 
ATOM     18  O   UNL     1       4.971   6.093  -0.699  0.00  0.00    -0.126 OA
ATOM     19  O   UNL     1       5.368   5.138  -2.519  0.00  0.00    -0.126 OA
ENDBRANCH  15  17
BRANCH  13  20
ATOM     20  N   UNL     1       1.374   3.331   1.632  0.00  0.00    +0.057 N 
ATOM     21  O   UNL     1       0.491   2.539   1.868  0.00  0.00    -0.126 OA
ATOM     22  O   UNL     1       1.651   4.185   2.441  0.00  0.00    -0.126 OA
ENDBRANCH  13  20
ENDBRANCH   2  11
BRANCH   1  23
ATOM     23  C   UNL     1       0.798  -0.558  -3.729  0.00  0.00    +0.190 C 
BRANCH  23  24
ATOM     24  C   UNL     1      -0.257  -0.162  -4.729  0.00  0.00    +0.238 C 
ATOM     25  O   UNL     1      -0.748   0.947  -4.686  0.00  0.00    -0.273 OA
ATOM     26  N   UNL     1      -0.654  -1.038  -5.673  0.00  0.00    -0.308 N 
ATOM     27  H   UNL     1      -0.261  -1.924  -5.708  0.00  0.00    +0.149 HD
BRANCH  26  28
ATOM     28  C   UNL     1      -1.679  -0.652  -6.646  0.00  0.00    +0.030 C 
ATOM     29  C   UNL     1      -3.021  -0.479  -5.931  0.00  0.00    +0.031 C 
ATOM     30  C   UNL     1      -1.282   0.667  -7.310  0.00  0.00    +0.031 C 
BRANCH  28  31
ATOM     31  C   UNL     1      -1.806  -1.742  -7.712  0.00  0.00    +0.031 C 
BRANCH  31  32
ATOM     32  C   UNL     1      -0.479  -2.493  -7.834  0.00  0.00    -0.036 C 
ATOM     33  C   UNL     1      -0.373  -3.528  -6.713  0.00  0.00    +0.010 C 
ATOM     34  C   UNL     1      -0.416  -3.201  -9.189  0.00  0.00    +0.010 C 
ATOM     35  C   UNL     1       0.681  -1.501  -7.723  0.00  0.00    +0.010 C 
ENDBRANCH  31  32
ENDBRANCH  28  31
ENDBRANCH  26  28
ENDBRANCH  23  24
BRANCH  23  38
ATOM     36  C   UNL     1       2.365  -2.899  -3.613  0.00  0.00    +0.035 C 
ATOM     37  C   UNL     1       1.021  -2.856  -2.934  0.00  0.00    -0.032 C 
ATOM     38  C   UNL     1       0.319  -1.750  -2.940  0.00  0.00    +0.000 C 
ENDBRANCH  23  38
ENDBRANCH   1  23
TORSDOF 10
