REMARK  Name = ZINC67400590
REMARK  7 active torsions:
REMARK  status: ('A' for Active; 'I' for Inactive)
REMARK    1  A    between atoms: C_1  and  C_2
REMARK    2  A    between atoms: C_2  and  C_4
REMARK    3  A    between atoms: C_2  and  N_13
REMARK    4  A    between atoms: N_9  and  C_10
REMARK    5  A    between atoms: C_16  and  C_19
REMARK    6  A    between atoms: C_19  and  C_21
REMARK    7  A    between atoms: C_19  and  O_28
REMARK                            x       y       z     vdW  Elec       q    Type
REMARK                         _______ _______ _______ _____ _____    ______ ____
ROOT
ATOM      1  N   UNL     1      -1.096  -0.936  -0.287  0.00  0.00    +0.387 N 
ATOM      2  C   UNL     1      -1.747  -0.548  -1.544  0.00  0.00    -0.077 C 
ATOM      3  C   UNL     1      -2.942  -1.466  -1.809  0.00  0.00    -0.012 C 
ATOM      4  C   UNL     1      -2.454  -2.913  -1.911  0.00  0.00    +0.019 C 
ATOM      5  C   UNL     1      -1.712  -3.284  -0.624  0.00  0.00    -0.012 C 
ATOM      6  C   UNL     1      -0.562  -2.298  -0.403  0.00  0.00    -0.077 C 
ATOM      7  H   UNL     1      -1.770  -0.903   0.463  0.00  0.00    -0.081 HD
ENDROOT
BRANCH   1   9
ATOM      8  C   UNL     1      -0.555   1.415   0.136  0.00  0.00    -0.004 C 
ATOM      9  C   UNL     1       0.002  -0.004   0.002  0.00  0.00    +0.017 C 
BRANCH   9  10
ATOM     10  C   UNL     1       0.674  -0.404   1.290  0.00  0.00    +0.207 C 
ATOM     11  O   UNL     1       0.042  -0.978   2.151  0.00  0.00    -0.277 OA
ATOM     12  N   UNL     1       1.978  -0.123   1.486  0.00  0.00    -0.242 N 
ATOM     13  C   UNL     1       2.579  -0.481   2.638  0.00  0.00    +0.306 C 
ATOM     14  O   UNL     1       1.945  -1.056   3.501  0.00  0.00    -0.252 OA
ATOM     15  N   UNL     1       3.882  -0.200   2.833  0.00  0.00    -0.296 N 
ATOM     16  H   UNL     1       2.483   0.336   0.797  0.00  0.00    +0.159 HD
ATOM     17  H   UNL     1       4.388   0.260   2.145  0.00  0.00    +0.151 HD
BRANCH  15  18
ATOM     18  C   UNL     1       4.535  -0.588   4.086  0.00  0.00    +0.075 C 
ATOM     19  C   UNL     1       5.461   0.435   4.747  0.00  0.00    +0.024 C 
ATOM     20  C   UNL     1       6.051  -0.796   4.057  0.00  0.00    +0.024 C 
ENDBRANCH  15  18
ENDBRANCH   9  10
ENDBRANCH   1   9
BRANCH   4  21
ATOM     21  C   UNL     1      -3.653  -3.846  -2.096  0.00  0.00    +0.147 C 
BRANCH  21  22
ATOM     22  C   UNL     1      -3.171  -5.270  -2.197  0.00  0.00    -0.019 A 
ATOM     23  C   UNL     1      -2.656  -5.743  -3.390  0.00  0.00    +0.007 A 
ATOM     24  C   UNL     1      -2.214  -7.049  -3.482  0.00  0.00    +0.020 A 
ATOM     25  C   UNL     1      -2.286  -7.883  -2.381  0.00  0.00    +0.041 A 
ATOM     26  C   UNL     1      -2.802  -7.410  -1.188  0.00  0.00    +0.020 A 
ATOM     27  C   UNL     1      -3.239  -6.102  -1.095  0.00  0.00    +0.007 A 
ATOM     28 CL   UNL     1      -1.731  -9.524  -2.498  0.00  0.00    -0.084 Cl
ENDBRANCH  21  22
BRANCH  21  29
ATOM     29  O   UNL     1      -4.350  -3.493  -3.293  0.00  0.00    -0.387 OA
ATOM     30  H   UNL     1      -3.813  -3.557  -4.094  0.00  0.00    +0.210 HD
ENDBRANCH  21  29
ENDBRANCH   4  21
TORSDOF 6
