REMARK  Name = ZINC25680293
REMARK  8 active torsions:
REMARK  status: ('A' for Active; 'I' for Inactive)
REMARK    1  A    between atoms: C_1  and  C_2
REMARK    2  A    between atoms: C_2  and  C_4
REMARK    3  A    between atoms: C_2  and  N_17
REMARK    4  A    between atoms: N_6  and  C_7
REMARK    5  A    between atoms: C_11  and  S_13
REMARK    6  A    between atoms: S_13  and  N_16
REMARK    7  A    between atoms: C_20  and  C_23
REMARK    8  A    between atoms: C_26  and  O_29
REMARK                            x       y       z     vdW  Elec       q    Type
REMARK                         _______ _______ _______ _____ _____    ______ ____
ROOT
ATOM      1  C   UNL     1      -1.318  -0.174   0.339  0.00  0.00    -0.004 C 
ATOM      2  C   UNL     1       0.140   0.019  -0.085  0.00  0.00    +0.017 C 
ENDROOT
BRANCH   2   3
ATOM      3  N   UNL     1       0.400   1.447  -0.309  0.00  0.00    +0.390 N 
ATOM      4  C   UNL     1      -0.074   2.255   0.827  0.00  0.00    -0.073 C 
ATOM      5  C   UNL     1       0.499   3.668   0.691  0.00  0.00    +0.017 C 
ATOM      6  C   UNL     1       0.258   4.181  -0.701  0.00  0.00    -0.048 C 
ATOM      7  C   UNL     1      -0.062   3.392  -1.703  0.00  0.00    -0.041 C 
ATOM      8  C   UNL     1      -0.226   1.906  -1.556  0.00  0.00    -0.050 C 
ATOM      9  H   UNL     1       1.488   1.577  -0.401  0.00  0.00    -0.080 HD
BRANCH   6  10
ATOM     10  C   UNL     1       0.386   5.631  -0.954  0.00  0.00    -0.022 A 
ATOM     11  C   UNL     1       1.623   6.260  -0.810  0.00  0.00    +0.012 A 
ATOM     12  C   UNL     1       1.740   7.612  -1.052  0.00  0.00    +0.046 A 
ATOM     13  C   UNL     1       0.625   8.351  -1.427  0.00  0.00    +0.117 A 
ATOM     14  C   UNL     1      -0.609   7.730  -1.566  0.00  0.00    +0.046 A 
ATOM     15  C   UNL     1      -0.733   6.377  -1.331  0.00  0.00    +0.012 A 
BRANCH  13  16
ATOM     16  O   UNL     1       0.742   9.684  -1.659  0.00  0.00    -0.507 OA
ATOM     17  H   UNL     1      -0.140  10.271  -1.956  0.00  0.00    +0.292 HD
ENDBRANCH  13  16
ENDBRANCH   6  10
ENDBRANCH   2   3
BRANCH   2  18
ATOM     18  C   UNL     1       1.050  -0.493   1.002  0.00  0.00    +0.203 C 
ATOM     19  O   UNL     1       1.679   0.289   1.684  0.00  0.00    -0.277 OA
ATOM     20  N   UNL     1       1.167  -1.818   1.215  0.00  0.00    -0.287 N 
ATOM     21  H   UNL     1       0.664  -2.530   0.543  0.00  0.00    +0.155 HD
BRANCH  20  22
ATOM     22  C   UNL     1       1.926  -2.290   2.291  0.00  0.00    +0.035 A 
ATOM     23  C   UNL     1       1.985  -1.563   3.473  0.00  0.00    +0.023 A 
ATOM     24  C   UNL     1       2.735  -2.031   4.534  0.00  0.00    +0.004 A 
ATOM     25  C   UNL     1       3.429  -3.222   4.419  0.00  0.00    +0.028 A 
ATOM     26  C   UNL     1       3.372  -3.949   3.244  0.00  0.00    +0.107 A 
ATOM     27  C   UNL     1       2.619  -3.489   2.182  0.00  0.00    +0.051 A 
BRANCH  26  28
ATOM     28  S   UNL     1       4.256  -5.466   3.104  0.00  0.00    +0.056 S 
ATOM     29  O   UNL     1       4.480  -5.679   1.717  0.00  0.00    -0.153 OA
ATOM     30  O   UNL     1       5.318  -5.406   4.046  0.00  0.00    -0.153 OA
BRANCH  28  31
ATOM     31  N   UNL     1       3.242  -6.673   3.611  0.00  0.00    -0.204 NA
ATOM     32  H   UNL     1       3.759  -7.641   3.538  0.00  0.00    +0.144 HD
ATOM     33  H   UNL     1       2.344  -6.688   2.975  0.00  0.00    +0.144 HD
ENDBRANCH  28  31
ENDBRANCH  26  28
ENDBRANCH  20  22
ENDBRANCH   2  18
TORSDOF 7
