REMARK  Name = ZINC58224497
REMARK  7 active torsions:
REMARK  status: ('A' for Active; 'I' for Inactive)
REMARK    1  A    between atoms: C_1  and  C_2
REMARK    2  A    between atoms: C_2  and  C_4
REMARK    3  A    between atoms: C_2  and  N_21
REMARK    4  A    between atoms: N_6  and  C_7
REMARK    5  A    between atoms: C_10  and  N_13
REMARK    6  A    between atoms: C_14  and  C_16
REMARK    7  A    between atoms: C_24  and  O_27
REMARK                            x       y       z     vdW  Elec       q    Type
REMARK                         _______ _______ _______ _____ _____    ______ ____
ROOT
ATOM      1  C   UNL     1       0.753  -0.265  -1.040  0.00  0.00    +0.203 C 
ATOM      2  O   UNL     1       1.841  -0.756  -0.827  0.00  0.00    -0.277 OA
ATOM      3  N   UNL     1       0.364  -0.014  -2.306  0.00  0.00    -0.287 N 
ATOM      4  H   UNL     1      -0.479   0.436  -2.474  0.00  0.00    +0.155 HD
ENDROOT
BRANCH   3   5
ATOM      5  C   UNL     1       1.177  -0.403  -3.379  0.00  0.00    +0.033 A 
ATOM      6  C   UNL     1       0.600  -0.835  -4.566  0.00  0.00    +0.025 A 
ATOM      7  C   UNL     1       1.400  -1.218  -5.623  0.00  0.00    +0.025 A 
ATOM      8  C   UNL     1       2.783  -1.171  -5.500  0.00  0.00    +0.034 A 
ATOM      9  C   UNL     1       3.360  -0.738  -4.313  0.00  0.00    +0.025 A 
ATOM     10  C   UNL     1       2.559  -0.350  -3.257  0.00  0.00    +0.025 A 
BRANCH   8  11
ATOM     11  N   UNL     1       3.595  -1.559  -6.572  0.00  0.00    -0.281 N 
ATOM     12  C   UNL     1       3.200  -1.320  -7.838  0.00  0.00    +0.255 C 
ATOM     13  O   UNL     1       2.183  -0.686  -8.048  0.00  0.00    -0.269 OA
ATOM     14  H   UNL     1       4.442  -2.001  -6.403  0.00  0.00    +0.155 HD
BRANCH  12  15
ATOM     15  C   UNL     1       3.994  -1.825  -8.961  0.00  0.00    +0.074 A 
ATOM     16  C   UNL     1       3.770  -1.686 -10.323  0.00  0.00    +0.021 A 
ATOM     17  C   UNL     1       4.700  -2.276 -11.144  0.00  0.00    +0.008 A 
ATOM     18  C   UNL     1       5.747  -2.935 -10.588  0.00  0.00    +0.046 A 
ATOM     19  S   UNL     1       5.506  -2.769  -8.934  0.00  0.00    -0.092 S 
ENDBRANCH  12  15
ENDBRANCH   8  11
ENDBRANCH   3   5
BRANCH   1  21
ATOM     20  C   UNL     1      -0.226   1.583   0.293  0.00  0.00    -0.004 C 
ATOM     21  C   UNL     1      -0.164   0.065   0.109  0.00  0.00    +0.016 C 
BRANCH  21  22
ATOM     22  N   UNL     1       0.348  -0.557   1.338  0.00  0.00    +0.387 N 
ATOM     23  C   UNL     1       0.281  -2.018   1.209  0.00  0.00    -0.075 C 
ATOM     24  C   UNL     1       0.888  -2.671   2.453  0.00  0.00    +0.013 C 
ATOM     25  C   UNL     1       0.101  -2.229   3.690  0.00  0.00    +0.111 C 
ATOM     26  C   UNL     1       0.115  -0.700   3.773  0.00  0.00    +0.013 C 
ATOM     27  C   UNL     1      -0.463  -0.120   2.480  0.00  0.00    -0.075 C 
ATOM     28  H   UNL     1       1.307  -0.277   1.481  0.00  0.00    -0.081 HD
BRANCH  25  29
ATOM     29  O   UNL     1       0.707  -2.777   4.863  0.00  0.00    -0.392 OA
ATOM     30  H   UNL     1       0.260  -2.537   5.686  0.00  0.00    +0.210 HD
ENDBRANCH  25  29
ENDBRANCH  21  22
ENDBRANCH   1  21
TORSDOF 6
