REMARK  Name = ZINC09848360
REMARK  9 active torsions:
REMARK  status: ('A' for Active; 'I' for Inactive)
REMARK    1  A    between atoms: C_1  and  C_2
REMARK    2  A    between atoms: C_2  and  C_3
REMARK    3  A    between atoms: C_9  and  C_10
REMARK    4  A    between atoms: C_9  and  N_69
REMARK    5  A    between atoms: C_10  and  C_11
REMARK    6  A    between atoms: C_11  and  N_12
REMARK    7  A    between atoms: C_13  and  C_15
REMARK    8  A    between atoms: C_25  and  C_32
REMARK    9  A    between atoms: C_27  and  C_31
REMARK                            x       y       z     vdW  Elec       q    Type
REMARK                         _______ _______ _______ _____ _____    ______ ____
ROOT
ATOM      1  C   UNL     1      -0.195  -0.153  -0.113  0.00  0.00    +0.092 C 
ATOM      2  C   UNL     1       1.161   0.553  -0.023  0.00  0.00    +0.016 C 
ATOM      3  C   UNL     1       0.935   2.044   0.246  0.00  0.00    +0.020 C 
ATOM      4  C   UNL     1       0.127   2.208   1.535  0.00  0.00    +0.107 C 
ATOM      5  N   UNL     1      -1.161   1.516   1.397  0.00  0.00    -0.309 N 
ATOM      6  C   UNL     1      -0.971   0.075   1.186  0.00  0.00    +0.119 C 
ATOM      7  C   UNL     1      -1.969   1.753   2.491  0.00  0.00    +0.162 A 
ATOM      8  N   UNL     1      -2.364   2.902   2.990  0.00  0.00    -0.224 NA
ATOM      9  C   UNL     1      -3.162   2.984   4.077  0.00  0.00    +0.083 A 
ATOM     10  C   UNL     1      -3.656   4.148   4.711  0.00  0.00    -0.024 A 
ATOM     11  C   UNL     1      -4.463   4.055   5.815  0.00  0.00    +0.009 A 
ATOM     12  C   UNL     1      -4.823   2.826   6.349  0.00  0.00    -0.049 A 
ATOM     13  C   UNL     1      -4.358   1.667   5.754  0.00  0.00    +0.020 A 
ATOM     14  C   UNL     1      -3.550   1.751   4.648  0.00  0.00    +0.041 A 
ATOM     15  S   UNL     1      -2.750   0.574   3.584  0.00  0.00    -0.052 S 
ATOM     16  C   UNL     1      -5.711   2.754   7.564  0.00  0.00    +0.044 C 
ATOM     17  C   UNL     1      -3.291   5.505   4.167  0.00  0.00    +0.046 C 
ENDROOT
BRANCH   1  19
ATOM     18  N   UNL     1      -1.039  -2.457  -0.423  0.00  0.00    -0.315 N 
ATOM     19  C   UNL     1       0.020  -1.630  -0.318  0.00  0.00    +0.218 C 
ATOM     20  O   UNL     1       1.146  -2.075  -0.389  0.00  0.00    -0.275 OA
ATOM     21  H   UNL     1      -1.940  -2.101  -0.366  0.00  0.00    +0.149 HD
BRANCH  18  22
ATOM     22  C   UNL     1      -0.831  -3.893  -0.623  0.00  0.00    +0.102 C 
BRANCH  22  23
ATOM     23  C   UNL     1      -2.186  -4.598  -0.708  0.00  0.00    +0.000 C 
BRANCH  23  24
ATOM     24  C   UNL     1      -1.968  -6.098  -0.916  0.00  0.00    -0.077 C 
BRANCH  24  30
ATOM     25  C   UNL     1      -3.105  -8.234  -0.985  0.00  0.00    -0.069 C 
ATOM     26  C   UNL     1      -4.480  -8.903  -0.924  0.00  0.00    -0.015 C 
ATOM     27  C   UNL     1      -5.305  -8.475  -2.142  0.00  0.00    -0.003 C 
ATOM     28  C   UNL     1      -5.420  -6.948  -2.158  0.00  0.00    -0.019 C 
ATOM     29  C   UNL     1      -4.018  -6.336  -2.183  0.00  0.00    -0.078 C 
ATOM     30  N   UNL     1      -3.284  -6.767  -0.974  0.00  0.00    +0.382 N 
ATOM     31  H   UNL     1      -3.828  -6.504  -0.143  0.00  0.00    -0.081 HD
BRANCH  25  33
ATOM     32  C   UNL     1      -2.076 -10.159   0.231  0.00  0.00    +0.002 C 
ATOM     33  C   UNL     1      -2.285  -8.644   0.240  0.00  0.00    -0.019 C 
ENDBRANCH  25  33
ENDBRANCH  24  30
ENDBRANCH  23  24
ENDBRANCH  22  23
ENDBRANCH  18  22
ENDBRANCH   1  19
TORSDOF 6
