REMARK  Name = ZINC43406929
REMARK  3 active torsions:
REMARK  status: ('A' for Active; 'I' for Inactive)
REMARK    1  A    between atoms: C_3  and  O_9
REMARK    2  A    between atoms: O_9  and  C_10
REMARK    3  A    between atoms: C_11  and  C_19
REMARK                            x       y       z     vdW  Elec       q    Type
REMARK                         _______ _______ _______ _____ _____    ______ ____
ROOT
ATOM      1  C   UNL     1       3.480   3.459  -0.242  0.00  0.00    +0.231 A 
ATOM      2  C   UNL     1       4.668   4.206  -0.238  0.00  0.00    +0.074 A 
ATOM      3  C   UNL     1       4.582   5.601  -0.208  0.00  0.00    +0.022 A 
ATOM      4  C   UNL     1       3.327   6.186  -0.182  0.00  0.00    -0.025 A 
ATOM      5  C   UNL     1       2.198   5.386  -0.188  0.00  0.00    +0.048 A 
ATOM      6  N   UNL     1       2.308   4.067  -0.222  0.00  0.00    -0.217 NA
ATOM      7  C   UNL     1       0.959   6.257  -0.157  0.00  0.00    +0.056 C 
ATOM      8  C   UNL     1       1.449   7.644   0.309  0.00  0.00    +0.011 C 
ATOM      9  C   UNL     1       2.924   7.644  -0.146  0.00  0.00    +0.037 C 
ENDROOT
BRANCH   2  10
ATOM     10  C   UNL     1       5.982   3.532  -0.266  0.00  0.00    +0.099 C 
ATOM     11  N   UNL     1       6.859   3.823  -1.225  0.00  0.00    -0.387 N 
ATOM     12  N   UNL     1       6.289   2.634   0.669  0.00  0.00    -0.344 N 
ATOM     13  H   UNL     1       6.608   4.419  -1.948  0.00  0.00    +0.157 HD
ATOM     14  H   UNL     1       5.650   2.422   1.367  0.00  0.00    +0.144 HD
ATOM     15  H   UNL     1       7.152   2.191   0.651  0.00  0.00    +0.144 HD
ATOM     16  H   UNL     1       7.750   3.438  -1.201  0.00  0.00    +0.157 HD
ENDBRANCH   2  10
BRANCH   1  17
ATOM     17  O   UNL     1       3.536   2.106  -0.271  0.00  0.00    -0.436 OA
BRANCH  17  20
ATOM     18  C   UNL     1       0.532   0.272   0.649  0.00  0.00    +0.023 A 
ATOM     19  C   UNL     1       1.721   0.967   0.761  0.00  0.00    +0.049 A 
ATOM     20  C   UNL     1       2.367   1.421  -0.379  0.00  0.00    +0.144 A 
ATOM     21  C   UNL     1       1.818   1.176  -1.631  0.00  0.00    +0.062 A 
ATOM     22  C   UNL     1       0.629   0.480  -1.738  0.00  0.00    +0.039 A 
ATOM     23  C   UNL     1      -0.014   0.028  -0.599  0.00  0.00    +0.042 A 
ATOM     24 CL   UNL     1      -1.507  -0.847  -0.736  0.00  0.00    -0.084 Cl
ATOM     25 BR   UNL     1       2.696   1.795  -3.187  0.00  0.00    -0.046 Br
ENDBRANCH  17  20
ENDBRANCH   1  17
TORSDOF 3
