REMARK  Name = ZINC36032734
REMARK  12 active torsions:
REMARK  status: ('A' for Active; 'I' for Inactive)
REMARK    1  A    between atoms: C_1  and  C_2
REMARK    2  A    between atoms: C_2  and  C_4
REMARK    3  A    between atoms: C_2  and  N_10
REMARK    4  A    between atoms: C_13  and  C_33
REMARK    5  A    between atoms: N_19  and  C_22
REMARK    6  A    between atoms: C_22  and  N_24
REMARK    7  A    between atoms: N_24  and  C_25
REMARK    8  A    between atoms: C_28  and  O_31
REMARK    9  A    between atoms: O_31  and  C_32
REMARK   10  A    between atoms: C_33  and  C_34
REMARK   11  A    between atoms: C_34  and  C_35
REMARK   12  A    between atoms: C_34  and  C_36
REMARK                            x       y       z     vdW  Elec       q    Type
REMARK                         _______ _______ _______ _____ _____    ______ ____
ROOT
ATOM      1  N   UNL     1       0.574  -1.223   1.578  0.00  0.00    -0.307 N 
ATOM      2  C   UNL     1       1.804  -1.692   1.875  0.00  0.00    +0.201 C 
ATOM      3  O   UNL     1       2.853  -1.143   1.612  0.00  0.00    -0.277 OA
ATOM      4  C   UNL     1       1.653  -3.016   2.591  0.00  0.00    +0.019 C 
ATOM      5  N   UNL     1       0.237  -3.050   3.030  0.00  0.00    +0.401 N 
ATOM      6  C   UNL     1      -0.438  -2.168   2.058  0.00  0.00    +0.007 C 
ATOM      7  C   UNL     1      -0.975  -3.003   0.897  0.00  0.00    +0.025 C 
ATOM      8  C   UNL     1      -1.642  -2.080  -0.128  0.00  0.00    +0.107 C 
ATOM      9  N   UNL     1      -2.654  -1.265   0.558  0.00  0.00    -0.312 N 
ATOM     10  C   UNL     1      -2.251  -0.481   1.735  0.00  0.00    +0.107 C 
ATOM     11  C   UNL     1      -1.579  -1.418   2.744  0.00  0.00    +0.025 C 
ATOM     12  H   UNL     1      -0.130  -3.988   2.979  0.00  0.00    -0.082 HD
ATOM     13  H   UNL     1       0.145  -2.680   3.965  0.00  0.00    -0.082 HD
ENDROOT
BRANCH   1  15
ATOM     14  C   UNL     1       0.741   1.210   1.765  0.00  0.00    +0.033 C 
ATOM     15  C   UNL     1       0.293   0.038   0.888  0.00  0.00    +0.101 C 
BRANCH  15  16
ATOM     16  C   UNL     1       1.044   0.074  -0.418  0.00  0.00    -0.027 A 
ATOM     17  C   UNL     1       2.382   0.417  -0.438  0.00  0.00    +0.005 A 
ATOM     18  C   UNL     1       3.071   0.450  -1.636  0.00  0.00    +0.000 A 
ATOM     19  C   UNL     1       2.420   0.139  -2.815  0.00  0.00    +0.000 A 
ATOM     20  C   UNL     1       1.081  -0.205  -2.796  0.00  0.00    +0.000 A 
ATOM     21  C   UNL     1       0.394  -0.242  -1.597  0.00  0.00    +0.005 A 
ENDBRANCH  15  16
ENDBRANCH   1  15
BRANCH   9  22
ATOM     22  C   UNL     1      -3.927  -1.236   0.117  0.00  0.00    +0.137 C 
ATOM     23  S   UNL     1      -4.351  -2.053  -1.326  0.00  0.00    -0.018 S 
BRANCH  22  24
ATOM     24  N   UNL     1      -4.866  -0.565   0.813  0.00  0.00    -0.297 N 
ATOM     25  H   UNL     1      -5.466  -1.044   1.405  0.00  0.00    +0.154 HD
BRANCH  24  26
ATOM     26  C   UNL     1      -4.975   0.826   0.680  0.00  0.00    +0.033 A 
ATOM     27  C   UNL     1      -4.196   1.498  -0.252  0.00  0.00    +0.027 A 
ATOM     28  C   UNL     1      -4.304   2.868  -0.382  0.00  0.00    +0.047 A 
ATOM     29  C   UNL     1      -5.191   3.574   0.418  0.00  0.00    +0.120 A 
ATOM     30  C   UNL     1      -5.970   2.903   1.350  0.00  0.00    +0.047 A 
ATOM     31  C   UNL     1      -5.867   1.532   1.477  0.00  0.00    +0.027 A 
BRANCH  29  32
ATOM     32  O   UNL     1      -5.297   4.923   0.289  0.00  0.00    -0.495 OA
ATOM     33  C   UNL     1      -6.231   5.585   1.145  0.00  0.00    +0.277 C 
ENDBRANCH  29  32
ENDBRANCH  24  26
ENDBRANCH  22  24
ENDBRANCH   9  22
BRANCH   4  34
ATOM     34  C   UNL     1       2.590  -3.079   3.799  0.00  0.00    -0.004 C 
BRANCH  34  35
ATOM     35  C   UNL     1       4.043  -3.041   3.320  0.00  0.00    -0.018 C 
ATOM     36  C   UNL     1       4.978  -3.017   4.530  0.00  0.00    +0.007 C 
ATOM     37  C   UNL     1       4.333  -4.284   2.476  0.00  0.00    +0.007 C 
ENDBRANCH  34  35
ENDBRANCH   4  34
TORSDOF 8
