REMARK  Name = ZINC13863521
REMARK  13 active torsions:
REMARK  status: ('A' for Active; 'I' for Inactive)
REMARK    1  A    between atoms: C_1  and  C_2
REMARK    2  A    between atoms: C_2  and  C_3
REMARK    3  A    between atoms: C_4  and  C_11
REMARK    4  A    between atoms: C_5  and  N_10
REMARK    5  A    between atoms: C_15  and  N_17
REMARK    6  A    between atoms: N_18  and  N_19
REMARK    7  A    between atoms: N_19  and  C_20
REMARK    8  A    between atoms: N_19  and  C_26
REMARK    9  A    between atoms: C_20  and  C_21
REMARK   10  A    between atoms: C_21  and  O_22
REMARK   11  A    between atoms: O_22  and  C_23
REMARK   12  A    between atoms: C_23  and  C_25
REMARK   13  A    between atoms: C_26  and  C_27
REMARK                            x       y       z     vdW  Elec       q    Type
REMARK                         _______ _______ _______ _____ _____    ______ ____
ROOT
ATOM      1  C   UNL     1      -1.606  -0.384   2.407  0.00  0.00    -0.011 A 
ATOM      2  C   UNL     1      -2.079   0.888   2.083  0.00  0.00    +0.010 A 
ATOM      3  C   UNL     1      -3.436   1.139   2.059  0.00  0.00    +0.023 A 
ATOM      4  C   UNL     1      -4.335   0.132   2.356  0.00  0.00    +0.068 A 
ATOM      5  C   UNL     1      -3.874  -1.145   2.682  0.00  0.00    +0.106 A 
ATOM      6  C   UNL     1      -2.505  -1.404   2.702  0.00  0.00    +0.039 A 
ATOM      7 CL   UNL     1      -6.040   0.456   2.325  0.00  0.00    -0.081 Cl
ENDROOT
BRANCH   1   9
ATOM      8  C   UNL     1       0.599  -0.652   1.254  0.00  0.00    +0.029 A 
ATOM      9  C   UNL     1      -0.147  -0.649   2.431  0.00  0.00    +0.041 A 
ATOM     10  C   UNL     1       0.521  -0.905   3.643  0.00  0.00    +0.129 A 
ATOM     11  N   UNL     1       1.828  -1.138   3.619  0.00  0.00    -0.201 NA
ATOM     12  C   UNL     1       2.496  -1.130   2.475  0.00  0.00    +0.192 A 
ATOM     13  N   UNL     1       1.897  -0.898   1.315  0.00  0.00    -0.331 N 
ATOM     14  N   UNL     1       3.857  -1.377   2.490  0.00  0.00    -0.329 N 
ATOM     15  H   UNL     1       4.308  -1.552   3.331  0.00  0.00    +0.145 HD
ATOM     16  H   UNL     1       4.360  -1.375   1.661  0.00  0.00    +0.145 HD
ATOM     17  H   UNL     1       2.421  -0.906   0.498  0.00  0.00    +0.168 HD
BRANCH  10  18
ATOM     18  N   UNL     1      -0.173  -0.913   4.840  0.00  0.00    -0.343 N 
ATOM     19  H   UNL     1      -1.128  -0.742   4.848  0.00  0.00    +0.144 HD
ATOM     20  H   UNL     1       0.295  -1.090   5.671  0.00  0.00    +0.144 HD
ENDBRANCH  10  18
BRANCH   8  22
ATOM     21  C   UNL     1      -0.648  -1.689  -0.622  0.00  0.00    +0.010 C 
ATOM     22  C   UNL     1      -0.066  -0.385  -0.071  0.00  0.00    +0.050 C 
ENDBRANCH   8  22
ENDBRANCH   1   9
BRANCH   5  23
ATOM     23  N   UNL     1      -4.766  -2.145   2.978  0.00  0.00    -0.132 NA
ATOM     24  N   UNL     1      -4.338  -3.324   3.278  0.00  0.00    -0.078 NA
BRANCH  24  25
ATOM     25  N   UNL     1      -5.250  -4.344   3.580  0.00  0.00    -0.230 N 
BRANCH  25  26
ATOM     26  C   UNL     1      -4.764  -5.683   3.922  0.00  0.00    +0.169 C 
BRANCH  26  27
ATOM     27  C   UNL     1      -4.669  -5.819   5.443  0.00  0.00    +0.252 C 
BRANCH  27  28
ATOM     28  O   UNL     1      -5.977  -5.735   6.011  0.00  0.00    -0.463 OA
BRANCH  28  29
ATOM     29  C   UNL     1      -6.069  -5.836   7.347  0.00  0.00    +0.304 C 
ATOM     30  O   UNL     1      -5.071  -5.991   8.011  0.00  0.00    -0.251 OA
ATOM     31  C   UNL     1      -7.416  -5.757   8.018  0.00  0.00    +0.136 C 
ENDBRANCH  28  29
ENDBRANCH  27  28
ENDBRANCH  26  27
ENDBRANCH  25  26
BRANCH  25  32
ATOM     32  C   UNL     1      -6.689  -4.072   3.554  0.00  0.00    +0.162 C 
BRANCH  32  33
ATOM     33  C   UNL     1      -7.250  -4.461   2.210  0.00  0.00    -0.026 A 
ATOM     34  C   UNL     1      -7.293  -3.547   1.168  0.00  0.00    +0.025 A 
ATOM     35  C   UNL     1      -7.814  -3.940  -0.051  0.00  0.00    +0.111 A 
ATOM     36  N   UNL     1      -8.266  -5.166  -0.228  0.00  0.00    -0.263 NA
ATOM     37  C   UNL     1      -8.241  -6.061   0.741  0.00  0.00    +0.111 A 
ATOM     38  C   UNL     1      -7.729  -5.742   1.984  0.00  0.00    +0.025 A 
ENDBRANCH  32  33
ENDBRANCH  25  32
ENDBRANCH  24  25
ENDBRANCH   5  23
TORSDOF 11
