REMARK  Name = ZINC02245708
REMARK  6 active torsions:
REMARK  status: ('A' for Active; 'I' for Inactive)
REMARK    1  A    between atoms: C_1  and  O_2
REMARK    2  A    between atoms: O_2  and  C_3
REMARK    3  A    between atoms: C_6  and  C_9
REMARK    4  A    between atoms: C_20  and  C_22
REMARK    5  A    between atoms: C_34  and  S_36
REMARK    6  A    between atoms: S_36  and  C_37
REMARK                            x       y       z     vdW  Elec       q    Type
REMARK                         _______ _______ _______ _____ _____    ______ ____
ROOT
ATOM      1  C   UNL     1      -4.920  -2.449   0.005  0.00  0.00    +0.159 C 
ATOM      2  C   UNL     1      -5.284  -2.923   1.394  0.00  0.00    +0.025 C 
ATOM      3  C   UNL     1      -5.499  -4.242   1.578  0.00  0.00    +0.058 C 
ATOM      4  C   UNL     1      -5.846  -4.694   2.950  0.00  0.00    +0.042 A 
ATOM      5  C   UNL     1      -6.392  -5.949   3.183  0.00  0.00    +0.033 A 
ATOM      6  C   UNL     1      -6.702  -6.329   4.476  0.00  0.00    +0.042 A 
ATOM      7  C   UNL     1      -6.470  -5.462   5.531  0.00  0.00    +0.023 A 
ATOM      8  C   UNL     1      -5.926  -4.211   5.306  0.00  0.00    +0.048 A 
ATOM      9  C   UNL     1      -5.609  -3.819   4.017  0.00  0.00    +0.131 A 
ATOM     10  O   UNL     1      -5.068  -2.599   3.769  0.00  0.00    -0.479 OA
ATOM     11  C   UNL     1      -5.413  -1.960   2.538  0.00  0.00    +0.237 C 
ATOM     12 CL   UNL     1      -7.385  -7.896   4.778  0.00  0.00    -0.084 Cl
ATOM     13  N   UNL     1      -5.403  -5.126   0.556  0.00  0.00    -0.326 N 
ATOM     14  C   UNL     1      -5.092  -4.799  -0.681  0.00  0.00    +0.216 C 
ATOM     15  N   UNL     1      -4.836  -3.490  -1.027  0.00  0.00    -0.209 N 
ATOM     16  N   UNL     1      -4.537  -3.485  -2.391  0.00  0.00    -0.239 N 
ATOM     17  C   UNL     1      -4.626  -4.787  -2.810  0.00  0.00    +0.174 C 
ATOM     18  N   UNL     1      -4.955  -5.543  -1.794  0.00  0.00    -0.192 NA
ATOM     19  H   UNL     1      -5.574  -6.061   0.748  0.00  0.00    +0.169 HD
ATOM     20  H   UNL     1      -4.311  -2.713  -2.934  0.00  0.00    +0.172 HD
ENDROOT
BRANCH  11  21
ATOM     21  C   UNL     1      -6.834  -1.465   2.614  0.00  0.00    +0.032 A 
ATOM     22  C   UNL     1      -7.739  -2.089   3.451  0.00  0.00    +0.010 A 
ATOM     23  C   UNL     1      -9.043  -1.635   3.522  0.00  0.00    +0.001 A 
ATOM     24  C   UNL     1      -9.443  -0.555   2.755  0.00  0.00    +0.003 A 
ATOM     25  C   UNL     1      -8.539   0.070   1.918  0.00  0.00    +0.039 A 
ATOM     26  C   UNL     1      -7.231  -0.381   1.851  0.00  0.00    +0.130 A 
ATOM     27  F   UNL     1      -6.345   0.233   1.036  0.00  0.00    -0.205 F 
ENDBRANCH  11  21
BRANCH   1  31
ATOM     28  C   UNL     1      -1.134  -0.478   0.219  0.00  0.00    +0.120 A 
ATOM     29  C   UNL     1      -2.306   0.263   0.252  0.00  0.00    +0.046 A 
ATOM     30  C   UNL     1      -3.528  -0.376   0.182  0.00  0.00    +0.009 A 
ATOM     31  C   UNL     1      -3.585  -1.754   0.080  0.00  0.00    -0.021 A 
ATOM     32  C   UNL     1      -2.418  -2.495   0.047  0.00  0.00    +0.009 A 
ATOM     33  C   UNL     1      -1.193  -1.860   0.110  0.00  0.00    +0.046 A 
BRANCH  28  35
ATOM     34  C   UNL     1       0.055   1.573   0.398  0.00  0.00    +0.277 C 
ATOM     35  O   UNL     1       0.070   0.148   0.287  0.00  0.00    -0.495 OA
ENDBRANCH  28  35
ENDBRANCH   1  31
BRANCH  17  36
ATOM     36  S   UNL     1      -4.347  -5.352  -4.455  0.00  0.00    -0.092 S 
ATOM     37  C   UNL     1      -4.616  -7.143  -4.355  0.00  0.00    +0.093 C 
ENDBRANCH  17  36
TORSDOF 4
