REMARK  Name = ZINC64040257
REMARK  6 active torsions:
REMARK  status: ('A' for Active; 'I' for Inactive)
REMARK    1  A    between atoms: C_1  and  C_2
REMARK    2  A    between atoms: C_5  and  C_19
REMARK    3  A    between atoms: C_10  and  C_12
REMARK    4  A    between atoms: C_19  and  N_20
REMARK    5  A    between atoms: C_21  and  C_23
REMARK    6  A    between atoms: C_23  and  C_24
REMARK                            x       y       z     vdW  Elec       q    Type
REMARK                         _______ _______ _______ _____ _____    ______ ____
ROOT
ATOM      1  C   UNL     1      -0.018   1.503   0.010  0.00  0.00    +0.042 C 
ATOM      2  C   UNL     1       0.002  -0.004   0.002  0.00  0.00    -0.037 C 
ATOM      3  C   UNL     1       0.009  -0.811  -1.083  0.00  0.00    -0.000 A 
ATOM      4  C   UNL     1      -0.002  -0.538  -2.525  0.00  0.00    +0.015 A 
ATOM      5  C   UNL     1       0.008  -1.579  -3.390  0.00  0.00    -0.030 A 
ATOM      6  C   UNL     1       0.028  -2.907  -2.944  0.00  0.00    +0.007 A 
ATOM      7  C   UNL     1       0.039  -3.237  -1.635  0.00  0.00    +0.026 A 
ATOM      8  C   UNL     1       0.030  -2.223  -0.638  0.00  0.00    +0.043 A 
ATOM      9  N   UNL     1       0.037  -2.286   0.671  0.00  0.00    -0.373 N 
ATOM     10  C   UNL     1       0.026  -0.920   1.206  0.00  0.00    +0.139 C 
ATOM     11  H   UNL     1       0.050  -3.100   1.199  0.00  0.00    +0.161 HD
ENDROOT
BRANCH  10  12
ATOM     12  C   UNL     1      -1.205  -0.704   2.047  0.00  0.00    +0.014 A 
ATOM     13  C   UNL     1      -2.270  -1.580   1.952  0.00  0.00    +0.009 A 
ATOM     14  C   UNL     1      -3.399  -1.382   2.724  0.00  0.00    +0.001 A 
ATOM     15  C   UNL     1      -3.466  -0.308   3.592  0.00  0.00    +0.003 A 
ATOM     16  C   UNL     1      -2.403   0.570   3.688  0.00  0.00    +0.039 A 
ATOM     17  C   UNL     1      -1.268   0.369   2.919  0.00  0.00    +0.129 A 
ATOM     18  F   UNL     1      -0.227   1.224   3.016  0.00  0.00    -0.205 F 
ENDBRANCH  10  12
BRANCH   5  19
ATOM     19  C   UNL     1      -0.003  -1.302  -4.871  0.00  0.00    +0.139 C 
BRANCH  19  20
ATOM     20  N   UNL     1       1.375  -1.193  -5.358  0.00  0.00    -0.311 N 
ATOM     21  C   UNL     1       1.612  -0.946  -6.661  0.00  0.00    +0.215 C 
ATOM     22  O   UNL     1       0.684  -0.814  -7.432  0.00  0.00    -0.276 OA
ATOM     23  H   UNL     1       2.117  -1.299  -4.742  0.00  0.00    +0.149 HD
BRANCH  21  24
ATOM     24  C   UNL     1       3.029  -0.834  -7.162  0.00  0.00    +0.118 C 
BRANCH  24  25
ATOM     25  C   UNL     1       3.018  -0.553  -8.666  0.00  0.00    +0.082 C 
ATOM     26  C   UNL     1       4.461  -0.529  -9.216  0.00  0.00    +0.032 C 
ATOM     27  C   UNL     1       4.803   0.977  -9.138  0.00  0.00    +0.097 C 
ATOM     28  C   UNL     1       3.457   1.666  -9.191  0.00  0.00    +0.213 C 
ATOM     29  O   UNL     1       3.288   2.842  -9.435  0.00  0.00    -0.276 OA
ATOM     30  N   UNL     1       2.474   0.784  -8.928  0.00  0.00    -0.312 N 
ATOM     31  H   UNL     1       1.529   1.004  -8.915  0.00  0.00    +0.149 HD
ENDBRANCH  24  25
ENDBRANCH  21  24
ENDBRANCH  19  20
ENDBRANCH   5  19
TORSDOF 5
