REMARK  Name = ZINC44123238
REMARK  13 active torsions:
REMARK  status: ('A' for Active; 'I' for Inactive)
REMARK    1  A    between atoms: C_1  and  C_2
REMARK    2  A    between atoms: C_2  and  C_3
REMARK    3  A    between atoms: C_6  and  C_9
REMARK    4  A    between atoms: C_9  and  C_11
REMARK    5  A    between atoms: C_9  and  N_28
REMARK    6  A    between atoms: C_11  and  N_12
REMARK    7  A    between atoms: N_15  and  C_16
REMARK    8  A    between atoms: C_19  and  N_22
REMARK    9  A    between atoms: C_23  and  C_25
REMARK   10  A    between atoms: C_25  and  O_26
REMARK   11  A    between atoms: O_26  and  C_27
REMARK   12  A    between atoms: N_28  and  C_29
REMARK   13  A    between atoms: N_28  and  C_30
REMARK                            x       y       z     vdW  Elec       q    Type
REMARK                         _______ _______ _______ _____ _____    ______ ____
ROOT
ATOM      1  N   UNL     1      -7.355  -1.868  -0.160  0.00  0.00    -0.300 N 
ATOM      2  C   UNL     1      -8.434  -1.131  -0.491  0.00  0.00    +0.304 C 
ATOM      3  O   UNL     1      -8.339   0.078  -0.586  0.00  0.00    -0.253 OA
ATOM      4  N   UNL     1      -9.618  -1.733  -0.718  0.00  0.00    -0.269 N 
ATOM      5  H   UNL     1      -7.431  -2.832  -0.084  0.00  0.00    +0.150 HD
ATOM      6  H   UNL     1      -9.680  -2.701  -0.706  0.00  0.00    +0.156 HD
ENDROOT
BRANCH   4   7
ATOM      7  C   UNL     1     -10.759  -0.962  -0.971  0.00  0.00    +0.035 A 
ATOM      8  C   UNL     1     -11.998  -1.379  -0.501  0.00  0.00    +0.025 A 
ATOM      9  C   UNL     1     -13.123  -0.619  -0.750  0.00  0.00    +0.025 A 
ATOM     10  C   UNL     1     -13.016   0.563  -1.472  0.00  0.00    +0.034 A 
ATOM     11  C   UNL     1     -11.778   0.981  -1.942  0.00  0.00    +0.025 A 
ATOM     12  C   UNL     1     -10.652   0.223  -1.687  0.00  0.00    +0.025 A 
BRANCH  10  13
ATOM     13  N   UNL     1     -14.158   1.334  -1.726  0.00  0.00    -0.284 N 
ATOM     14  C   UNL     1     -15.145   1.398  -0.810  0.00  0.00    +0.243 C 
ATOM     15  O   UNL     1     -15.007   0.863   0.270  0.00  0.00    -0.273 OA
ATOM     16  H   UNL     1     -14.238   1.823  -2.560  0.00  0.00    +0.155 HD
BRANCH  14  17
ATOM     17  C   UNL     1     -16.422   2.132  -1.129  0.00  0.00    +0.255 C 
BRANCH  17  18
ATOM     18  O   UNL     1     -17.307   2.058  -0.009  0.00  0.00    -0.374 OA
ATOM     19  C   UNL     1     -18.554   2.727  -0.209  0.00  0.00    +0.194 C 
ENDBRANCH  17  18
ENDBRANCH  14  17
ENDBRANCH  10  13
ENDBRANCH   4   7
BRANCH   1  20
ATOM     20  C   UNL     1      -6.068  -1.213   0.087  0.00  0.00    +0.095 C 
BRANCH  20  21
ATOM     21  C   UNL     1      -4.992  -2.275   0.321  0.00  0.00    -0.021 C 
BRANCH  21  25
ATOM     22  C   UNL     1      -5.869  -4.427   3.905  0.00  0.00    -0.048 A 
ATOM     23  C   UNL     1      -6.190  -4.972   2.675  0.00  0.00    +0.004 A 
ATOM     24  C   UNL     1      -5.906  -4.275   1.516  0.00  0.00    +0.002 A 
ATOM     25  C   UNL     1      -5.302  -3.034   1.585  0.00  0.00    -0.059 A 
ATOM     26  C   UNL     1      -4.982  -2.489   2.815  0.00  0.00    +0.002 A 
ATOM     27  C   UNL     1      -5.270  -3.183   3.975  0.00  0.00    +0.004 A 
BRANCH  22  29
ATOM     28  C   UNL     1      -7.583  -4.821   5.653  0.00  0.00    +0.009 C 
ATOM     29  C   UNL     1      -6.178  -5.187   5.169  0.00  0.00    +0.032 C 
ENDBRANCH  22  29
ENDBRANCH  21  25
BRANCH  21  30
ATOM     30  N   UNL     1      -3.681  -1.624   0.450  0.00  0.00    +0.382 N 
ATOM     31  C   UNL     1      -2.636  -2.648   0.576  0.00  0.00    -0.096 C 
ATOM     32  C   UNL     1      -3.423  -0.804  -0.741  0.00  0.00    -0.096 C 
ATOM     33  H   UNL     1      -3.677  -1.036   1.270  0.00  0.00    -0.082 HD
ENDBRANCH  21  30
ENDBRANCH  20  21
ENDBRANCH   1  20
TORSDOF 9
