REMARK  Name = ZINC52831743
REMARK  12 active torsions:
REMARK  status: ('A' for Active; 'I' for Inactive)
REMARK    1  A    between atoms: C_1  and  C_2
REMARK    2  A    between atoms: C_2  and  C_3
REMARK    3  A    between atoms: C_3  and  C_4
REMARK    4  A    between atoms: C_3  and  C_5
REMARK    5  A    between atoms: C_8  and  C_11
REMARK    6  A    between atoms: C_11  and  C_12
REMARK    7  A    between atoms: C_11  and  N_17
REMARK    8  A    between atoms: C_18  and  C_20
REMARK    9  A    between atoms: C_20  and  N_21
REMARK   10  A    between atoms: N_21  and  C_22
REMARK   11  A    between atoms: N_21  and  C_23
REMARK   12  A    between atoms: C_23  and  C_24
REMARK                            x       y       z     vdW  Elec       q    Type
REMARK                         _______ _______ _______ _____ _____    ______ ____
ROOT
ATOM      1  C   UNL     1       1.213  -6.252  -1.060  0.00  0.00    +0.140 C 
ENDROOT
BRANCH   1   5
ATOM      2  C   UNL     1       0.847  -1.998  -1.206  0.00  0.00    -0.045 A 
ATOM      3  C   UNL     1      -0.286  -2.787  -1.141  0.00  0.00    +0.004 A 
ATOM      4  C   UNL     1      -0.167  -4.164  -1.094  0.00  0.00    +0.006 A 
ATOM      5  C   UNL     1       1.084  -4.751  -1.113  0.00  0.00    -0.022 A 
ATOM      6  C   UNL     1       2.217  -3.962  -1.179  0.00  0.00    +0.006 A 
ATOM      7  C   UNL     1       2.098  -2.585  -1.230  0.00  0.00    +0.004 A 
BRANCH   2   8
ATOM      8  C   UNL     1       0.718  -0.497  -1.257  0.00  0.00    +0.016 C 
ATOM      9  C   UNL     1      -0.089  -0.097  -2.493  0.00  0.00    +0.012 C 
BRANCH   8  11
ATOM     10  C   UNL     1      -0.019   1.526   0.010  0.00  0.00    +0.004 C 
ATOM     11  C   UNL     1       0.002  -0.004   0.002  0.00  0.00    +0.004 C 
ENDBRANCH   8  11
ENDBRANCH   2   8
ENDBRANCH   1   5
BRANCH   1  12
ATOM     12  C   UNL     1       1.547  -6.678   0.346  0.00  0.00    +0.014 A 
ATOM     13  C   UNL     1       0.729  -7.180   1.303  0.00  0.00    +0.013 A 
ATOM     14  C   UNL     1       1.261  -7.507   2.536  0.00  0.00    +0.008 A 
ATOM     15  C   UNL     1       2.586  -7.317   2.752  0.00  0.00    +0.045 A 
ATOM     16  S   UNL     1       3.125  -6.663   1.180  0.00  0.00    -0.099 S 
ENDBRANCH   1  12
BRANCH   1  17
ATOM     17  N   UNL     1       2.280  -6.682  -1.968  0.00  0.00    -0.306 N 
ATOM     18  C   UNL     1       2.266  -7.928  -2.481  0.00  0.00    +0.197 C 
ATOM     19  O   UNL     1       1.371  -8.693  -2.192  0.00  0.00    -0.278 OA
ATOM     20  H   UNL     1       2.996  -6.070  -2.200  0.00  0.00    +0.150 HD
BRANCH  18  21
ATOM     21  C   UNL     1       3.363  -8.370  -3.415  0.00  0.00    +0.019 C 
BRANCH  21  22
ATOM     22  N   UNL     1       3.122  -9.758  -3.831  0.00  0.00    +0.389 N 
ATOM     23  C   UNL     1       3.223 -10.645  -2.664  0.00  0.00    -0.095 C 
ATOM     24  H   UNL     1       2.198  -9.833  -4.231  0.00  0.00    -0.081 HD
BRANCH  22  25
ATOM     25  C   UNL     1       4.122 -10.150  -4.833  0.00  0.00    +0.019 C 
BRANCH  25  26
ATOM     26  C   UNL     1       3.802 -11.529  -5.350  0.00  0.00    +0.194 C 
ATOM     27  O   UNL     1       2.835 -12.126  -4.927  0.00  0.00    -0.278 OA
ATOM     28  N   UNL     1       4.590 -12.098  -6.284  0.00  0.00    -0.331 N 
ATOM     29  H   UNL     1       5.363 -11.620  -6.623  0.00  0.00    +0.145 HD
ATOM     30  H   UNL     1       4.384 -12.985  -6.617  0.00  0.00    +0.145 HD
ENDBRANCH  25  26
ENDBRANCH  22  25
ENDBRANCH  21  22
ENDBRANCH  18  21
ENDBRANCH   1  17
TORSDOF 9
