REMARK  Name = ZINC43261671
REMARK  11 active torsions:
REMARK  status: ('A' for Active; 'I' for Inactive)
REMARK    1  A    between atoms: C_1  and  C_2
REMARK    2  A    between atoms: C_2  and  C_3
REMARK    3  A    between atoms: C_3  and  C_4
REMARK    4  A    between atoms: C_4  and  C_5
REMARK    5  A    between atoms: C_5  and  C_6
REMARK    6  A    between atoms: C_9  and  C_12
REMARK    7  A    between atoms: C_17  and  C_20
REMARK    8  A    between atoms: N_22  and  C_23
REMARK    9  A    between atoms: C_23  and  C_24
REMARK   10  A    between atoms: C_33  and  C_34
REMARK   11  A    between atoms: C_33  and  C_35
REMARK                            x       y       z     vdW  Elec       q    Type
REMARK                         _______ _______ _______ _____ _____    ______ ____
ROOT
ATOM      1  C   UNL     1       1.439  -8.340  -2.565  0.00  0.00    -0.030 C 
ATOM      2  C   UNL     1       1.945  -8.815  -3.933  0.00  0.00    +0.058 C 
ATOM      3  S   UNL     1       2.063 -10.631  -3.898  0.00  0.00    -0.163 S 
ATOM      4  C   UNL     1       0.436 -11.124  -3.248  0.00  0.00    +0.062 C 
ATOM      5  C   UNL     1       0.156 -10.304  -1.983  0.00  0.00    +0.027 C 
ATOM      6  N   UNL     1       0.100  -8.879  -2.318  0.00  0.00    +0.392 N 
ATOM      7  H   UNL     1      -0.322  -8.376  -1.552  0.00  0.00    -0.084 HD
ATOM      8  H   UNL     1      -0.465  -8.754  -3.145  0.00  0.00    -0.084 HD
ENDROOT
BRANCH   1  12
ATOM      9  C   UNL     1       1.285  -4.072  -2.514  0.00  0.00    -0.047 A 
ATOM     10  C   UNL     1       2.350  -4.732  -1.930  0.00  0.00    +0.004 A 
ATOM     11  C   UNL     1       2.400  -6.113  -1.947  0.00  0.00    +0.002 A 
ATOM     12  C   UNL     1       1.384  -6.834  -2.546  0.00  0.00    -0.061 A 
ATOM     13  C   UNL     1       0.319  -6.174  -3.129  0.00  0.00    +0.002 A 
ATOM     14  C   UNL     1       0.267  -4.793  -3.109  0.00  0.00    +0.004 A 
BRANCH   9  15
ATOM     15  C   UNL     1       1.231  -2.566  -2.496  0.00  0.00    +0.035 C 
BRANCH  15  16
ATOM     16  C   UNL     1       0.506  -2.096  -1.233  0.00  0.00    +0.005 C 
BRANCH  16  17
ATOM     17  C   UNL     1       0.451  -0.568  -1.215  0.00  0.00    +0.000 C 
BRANCH  17  19
ATOM     18  C   UNL     1      -0.329   1.431   0.067  0.00  0.00    +0.004 C 
ATOM     19  C   UNL     1      -0.274  -0.098   0.049  0.00  0.00    -0.003 C 
ENDBRANCH  17  19
ENDBRANCH  16  17
ENDBRANCH  15  16
ENDBRANCH   9  15
ENDBRANCH   1  12
BRANCH   5  20
ATOM     20  C   UNL     1       1.255 -10.540  -0.980  0.00  0.00    +0.200 C 
ATOM     21  O   UNL     1       1.636  -9.630  -0.273  0.00  0.00    -0.278 OA
ATOM     22  N   UNL     1       1.815 -11.761  -0.868  0.00  0.00    -0.316 N 
ATOM     23  H   UNL     1       1.510 -12.488  -1.433  0.00  0.00    +0.149 HD
BRANCH  22  24
ATOM     24  C   UNL     1       2.883 -11.990   0.108  0.00  0.00    +0.108 C 
BRANCH  24  25
ATOM     25  C   UNL     1       3.340 -13.450   0.032  0.00  0.00    +0.010 C 
ATOM     26  C   UNL     1       2.200 -14.390   0.398  0.00  0.00    +0.005 C 
ATOM     27  C   UNL     1       2.675 -15.665   1.082  0.00  0.00    +0.004 C 
ATOM     28  C   UNL     1       4.061 -15.516   1.709  0.00  0.00    -0.005 C 
ATOM     29  C   UNL     1       5.115 -15.110   0.658  0.00  0.00    +0.008 C 
ATOM     30  C   UNL     1       4.578 -13.677   0.899  0.00  0.00    -0.000 C 
ATOM     31  C   UNL     1       4.313 -14.136   2.334  0.00  0.00    -0.029 C 
ATOM     32  C   UNL     1       5.571 -14.100   3.224  0.00  0.00    +0.011 C 
ATOM     33  C   UNL     1       3.120 -13.516   3.053  0.00  0.00    +0.011 C 
ENDBRANCH  24  25
ENDBRANCH  22  24
ENDBRANCH   5  20
TORSDOF 8
