REMARK  Name = ZINC09257613
REMARK  8 active torsions:
REMARK  status: ('A' for Active; 'I' for Inactive)
REMARK    1  A    between atoms: C_1  and  O_2
REMARK    2  A    between atoms: O_2  and  C_3
REMARK    3  A    between atoms: C_6  and  C_9
REMARK    4  A    between atoms: C_16  and  C_17
REMARK    5  A    between atoms: C_16  and  N_56
REMARK    6  A    between atoms: N_19  and  C_20
REMARK    7  A    between atoms: C_23  and  S_27
REMARK    8  A    between atoms: S_27  and  N_30
REMARK                            x       y       z     vdW  Elec       q    Type
REMARK                         _______ _______ _______ _____ _____    ______ ____
ROOT
ATOM      1  C   UNL     1      -1.124   7.092   4.092  0.00  0.00    +0.201 C 
ATOM      2  O   UNL     1      -1.719   6.190   4.641  0.00  0.00    -0.278 OA
ATOM      3  N   UNL     1      -0.577   6.897   2.875  0.00  0.00    -0.285 N 
ATOM      4  H   UNL     1      -0.040   7.594   2.467  0.00  0.00    +0.155 HD
ENDROOT
BRANCH   3   5
ATOM      5  C   UNL     1      -0.785   5.688   2.200  0.00  0.00    +0.070 A 
ATOM      6  C   UNL     1      -1.885   5.537   1.364  0.00  0.00    +0.065 A 
ATOM      7  C   UNL     1      -2.087   4.341   0.700  0.00  0.00    +0.050 A 
ATOM      8  C   UNL     1      -1.197   3.297   0.867  0.00  0.00    +0.108 A 
ATOM      9  C   UNL     1      -0.105   3.441   1.702  0.00  0.00    +0.050 A 
ATOM     10  C   UNL     1       0.107   4.635   2.366  0.00  0.00    +0.065 A 
ATOM     11 CL   UNL     1       1.482   4.818   3.409  0.00  0.00    -0.082 Cl
ATOM     12 CL   UNL     1      -3.003   6.848   1.154  0.00  0.00    -0.082 Cl
BRANCH   8  13
ATOM     13  S   UNL     1      -1.459   1.775   0.018  0.00  0.00    +0.056 S 
ATOM     14  O   UNL     1      -2.848   1.705  -0.272  0.00  0.00    -0.153 OA
ATOM     15  O   UNL     1      -0.785   0.772   0.765  0.00  0.00    -0.153 OA
BRANCH  13  16
ATOM     16  N   UNL     1      -0.677   1.886  -1.438  0.00  0.00    -0.204 NA
ATOM     17  H   UNL     1      -0.319   1.088  -1.858  0.00  0.00    +0.144 HD
ATOM     18  H   UNL     1      -0.580   2.748  -1.872  0.00  0.00    +0.144 HD
ENDBRANCH  13  16
ENDBRANCH   8  13
ENDBRANCH   3   5
BRANCH   1  19
ATOM     19  C   UNL     1      -0.996   8.433   4.769  0.00  0.00    +0.020 C 
BRANCH  19  26
ATOM     20  C   UNL     1      -1.383   9.532   6.824  0.00  0.00    -0.037 C 
ATOM     21  C   UNL     1      -1.893   9.407   8.276  0.00  0.00    -0.011 C 
ATOM     22  C   UNL     1      -3.382   9.638   8.296  0.00  0.00    -0.001 C 
ATOM     23  C   UNL     1      -4.188   8.328   8.181  0.00  0.00    -0.002 C 
ATOM     24  C   UNL     1      -3.577   7.366   7.147  0.00  0.00    -0.019 C 
ATOM     25  C   UNL     1      -3.109   8.099   5.915  0.00  0.00    -0.077 C 
ATOM     26  N   UNL     1      -1.644   8.345   6.090  0.00  0.00    +0.390 N 
ATOM     27  H   UNL     1      -1.242   7.553   6.605  0.00  0.00    -0.080 HD
BRANCH  20  31
ATOM     28  C   UNL     1       2.847  10.135   6.880  0.00  0.00    +0.120 A 
ATOM     29  C   UNL     1       1.992  11.220   6.752  0.00  0.00    +0.046 A 
ATOM     30  C   UNL     1       0.625  11.023   6.734  0.00  0.00    +0.005 A 
ATOM     31  C   UNL     1       0.109   9.745   6.843  0.00  0.00    -0.061 A 
ATOM     32  C   UNL     1       0.958   8.662   6.977  0.00  0.00    +0.005 A 
ATOM     33  C   UNL     1       2.326   8.854   6.989  0.00  0.00    +0.046 A 
BRANCH  28  35
ATOM     34  C   UNL     1       5.012   9.164   7.032  0.00  0.00    +0.277 C 
ATOM     35  O   UNL     1       4.192  10.327   6.897  0.00  0.00    -0.495 OA
ENDBRANCH  28  35
ENDBRANCH  20  31
ENDBRANCH  19  26
ENDBRANCH   1  19
TORSDOF 7
