REMARK  Name = ZINC01296600
REMARK  13 active torsions:
REMARK  status: ('A' for Active; 'I' for Inactive)
REMARK    1  A    between atoms: C_1  and  C_2
REMARK    2  A    between atoms: C_2  and  O_3
REMARK    3  A    between atoms: O_3  and  C_4
REMARK    4  A    between atoms: C_7  and  C_10
REMARK    5  A    between atoms: C_12  and  C_39
REMARK    6  A    between atoms: C_13  and  S_27
REMARK    7  A    between atoms: C_15  and  C_26
REMARK    8  A    between atoms: C_16  and  C_17
REMARK    9  A    between atoms: N_19  and  C_20
REMARK   10  A    between atoms: S_27  and  C_28
REMARK   11  A    between atoms: C_28  and  C_29
REMARK   12  A    between atoms: N_31  and  C_32
REMARK   13  A    between atoms: C_35  and  C_38
REMARK                            x       y       z     vdW  Elec       q    Type
REMARK                         _______ _______ _______ _____ _____    ______ ____
ROOT
ATOM      1  C   UNL     1      -2.345  -5.646   0.754  0.00  0.00    +0.098 C 
ATOM      2  C   UNL     1      -3.048  -6.160  -0.469  0.00  0.00    +0.069 C 
ATOM      3  C   UNL     1      -4.185  -6.900  -0.371  0.00  0.00    +0.080 C 
ATOM      4  N   UNL     1      -4.715  -7.205   0.863  0.00  0.00    -0.312 N 
ATOM      5  C   UNL     1      -3.947  -7.090   1.989  0.00  0.00    +0.014 C 
ATOM      6  C   UNL     1      -2.817  -6.367   1.984  0.00  0.00    +0.044 C 
ATOM      7  C   UNL     1      -4.378  -7.785   3.255  0.00  0.00    +0.061 C 
ATOM      8  H   UNL     1      -5.636  -7.502   0.933  0.00  0.00    +0.152 HD
ENDROOT
BRANCH   1  12
ATOM      9  C   UNL     1      -3.141  -1.469   1.183  0.00  0.00    +0.121 A 
ATOM     10  C   UNL     1      -1.837  -1.915   1.022  0.00  0.00    +0.046 A 
ATOM     11  C   UNL     1      -1.582  -3.265   0.884  0.00  0.00    +0.008 A 
ATOM     12  C   UNL     1      -2.625  -4.173   0.906  0.00  0.00    -0.034 A 
ATOM     13  C   UNL     1      -3.926  -3.731   1.065  0.00  0.00    +0.008 A 
ATOM     14  C   UNL     1      -4.185  -2.382   1.210  0.00  0.00    +0.046 A 
BRANCH   9  15
ATOM     15  O   UNL     1      -3.394  -0.141   1.319  0.00  0.00    -0.492 OA
BRANCH  15  17
ATOM     16  C   UNL     1      -2.748   2.185   1.450  0.00  0.00    +0.048 C 
ATOM     17  C   UNL     1      -2.270   0.741   1.282  0.00  0.00    +0.225 C 
ENDBRANCH  15  17
ENDBRANCH   9  15
ENDBRANCH   1  12
BRANCH   6  18
ATOM     18  C   UNL     1      -2.049  -6.283   3.170  0.00  0.00    +0.247 C 
ATOM     19  O   UNL     1      -2.417  -6.862   4.176  0.00  0.00    -0.270 OA
ATOM     20  N   UNL     1      -0.910  -5.563   3.186  0.00  0.00    -0.282 N 
ATOM     21  H   UNL     1      -0.577  -5.163   2.366  0.00  0.00    +0.155 HD
BRANCH  20  22
ATOM     22  C   UNL     1      -0.208  -5.391   4.383  0.00  0.00    +0.034 A 
ATOM     23  C   UNL     1       1.178  -5.294   4.369  0.00  0.00    +0.023 A 
ATOM     24  C   UNL     1       1.868  -5.124   5.553  0.00  0.00    +0.002 A 
ATOM     25  C   UNL     1       1.182  -5.050   6.751  0.00  0.00    +0.000 A 
ATOM     26  C   UNL     1      -0.198  -5.146   6.768  0.00  0.00    +0.002 A 
ATOM     27  C   UNL     1      -0.895  -5.310   5.587  0.00  0.00    +0.023 A 
ENDBRANCH  20  22
ENDBRANCH   6  18
BRANCH   2  28
ATOM     28  C   UNL     1      -2.513  -5.864  -1.764  0.00  0.00    +0.098 C 
ATOM     29  N   UNL     1      -2.088  -5.629  -2.791  0.00  0.00    -0.191 NA
ENDBRANCH   2  28
BRANCH   3  30
ATOM     30  S   UNL     1      -4.984  -7.474  -1.833  0.00  0.00    -0.100 S 
BRANCH  30  31
ATOM     31  C   UNL     1      -6.421  -8.393  -1.216  0.00  0.00    +0.171 C 
BRANCH  31  32
ATOM     32  C   UNL     1      -7.202  -8.945  -2.380  0.00  0.00    +0.227 C 
ATOM     33  O   UNL     1      -6.827  -8.738  -3.515  0.00  0.00    -0.275 OA
ATOM     34  N   UNL     1      -8.318  -9.668  -2.160  0.00  0.00    -0.285 N 
ATOM     35  H   UNL     1      -8.660  -9.771  -1.258  0.00  0.00    +0.155 HD
BRANCH  34  36
ATOM     36  C   UNL     1      -8.984 -10.270  -3.234  0.00  0.00    +0.033 A 
ATOM     37  C   UNL     1     -10.367 -10.400  -3.211  0.00  0.00    +0.023 A 
ATOM     38  C   UNL     1     -11.021 -10.995  -4.271  0.00  0.00    +0.005 A 
ATOM     39  C   UNL     1     -10.301 -11.461  -5.356  0.00  0.00    -0.050 A 
ATOM     40  C   UNL     1      -8.924 -11.335  -5.382  0.00  0.00    +0.005 A 
ATOM     41  C   UNL     1      -8.264 -10.735  -4.327  0.00  0.00    +0.023 A 
ATOM     42  C   UNL     1     -11.018 -12.110  -6.512  0.00  0.00    +0.044 C 
ENDBRANCH  34  36
ENDBRANCH  31  32
ENDBRANCH  30  31
ENDBRANCH   3  30
TORSDOF 10
