REMARK  Name = ZINC04038087
REMARK  9 active torsions:
REMARK  status: ('A' for Active; 'I' for Inactive)
REMARK    1  A    between atoms: C_1  and  C_2
REMARK    2  A    between atoms: C_2  and  C_3
REMARK    3  A    between atoms: C_2  and  C_4
REMARK    4  A    between atoms: C_2  and  C_5
REMARK    5  A    between atoms: C_8  and  C_11
REMARK    6  A    between atoms: C_18  and  C_20
REMARK    7  A    between atoms: C_20  and  O_21
REMARK    8  A    between atoms: C_23  and  N_27
REMARK    9  A    between atoms: C_24  and  C_25
REMARK                            x       y       z     vdW  Elec       q    Type
REMARK                         _______ _______ _______ _____ _____    ______ ____
ROOT
ATOM      1  C   UNL     1       2.451   3.937  -0.001  0.00  0.00    +0.134 C 
ATOM      2  C   UNL     1       2.537   4.780   1.247  0.00  0.00    +0.164 A 
ATOM      3  C   UNL     1       2.293   6.106   1.191  0.00  0.00    +0.215 A 
ATOM      4  C   UNL     1       2.380   6.878   2.385  0.00  0.00    +0.228 A 
ATOM      5  O   UNL     1       2.164   8.080   2.376  0.00  0.00    -0.284 OA
ATOM      6  C   UNL     1       2.725   6.204   3.584  0.00  0.00    +0.098 A 
ATOM      7  C   UNL     1       2.952   4.878   3.536  0.00  0.00    +0.134 A 
ATOM      8  O   UNL     1       2.862   4.183   2.404  0.00  0.00    -0.457 OA
ATOM      9  O   UNL     1       1.967   6.722   0.029  0.00  0.00    -0.434 OA
ATOM     10  C   UNL     1       2.261   6.138  -1.145  0.00  0.00    +0.199 C 
ATOM     11  C   UNL     1       2.504   4.806  -1.224  0.00  0.00    +0.101 C 
ENDROOT
BRANCH   1  15
ATOM     12  C   UNL     1      -1.219   1.751   0.017  0.00  0.00    -0.042 A 
ATOM     13  C   UNL     1      -0.013   1.076   0.008  0.00  0.00    +0.004 A 
ATOM     14  C   UNL     1       1.175   1.783   0.000  0.00  0.00    +0.005 A 
ATOM     15  C   UNL     1       1.156   3.165   0.008  0.00  0.00    -0.032 A 
ATOM     16  C   UNL     1      -0.050   3.840   0.023  0.00  0.00    +0.005 A 
ATOM     17  C   UNL     1      -1.238   3.133   0.030  0.00  0.00    +0.004 A 
BRANCH  12  19
ATOM     18  C   UNL     1      -2.577   0.092   1.264  0.00  0.00    +0.015 C 
ATOM     19  C   UNL     1      -2.514   0.980   0.019  0.00  0.00    -0.013 C 
ATOM     20  C   UNL     1      -3.690   1.958   0.030  0.00  0.00    +0.015 C 
ATOM     21  C   UNL     1      -2.589   0.106  -1.234  0.00  0.00    +0.015 C 
ENDBRANCH  12  19
ENDBRANCH   1  15
BRANCH  10  22
ATOM     22  N   UNL     1       2.316   6.902  -2.284  0.00  0.00    -0.328 N 
ATOM     23  H   UNL     1       2.527   6.489  -3.136  0.00  0.00    +0.145 HD
ATOM     24  H   UNL     1       2.143   7.856  -2.237  0.00  0.00    +0.145 HD
ENDBRANCH  10  22
BRANCH  11  25
ATOM     25  C   UNL     1       2.815   4.220  -2.494  0.00  0.00    +0.101 C 
ATOM     26  N   UNL     1       3.062   3.755  -3.500  0.00  0.00    -0.191 NA
ENDBRANCH  11  25
BRANCH   7  27
ATOM     27  C   UNL     1       3.320   4.155   4.806  0.00  0.00    +0.230 C 
BRANCH  27  28
ATOM     28  O   UNL     1       2.132   3.696   5.454  0.00  0.00    -0.387 OA
ATOM     29  H   UNL     1       2.294   3.220   6.281  0.00  0.00    +0.210 HD
ENDBRANCH  27  28
ENDBRANCH   7  27
TORSDOF 6
