REMARK  Name = ZINC40923713
REMARK  10 active torsions:
REMARK  status: ('A' for Active; 'I' for Inactive)
REMARK    1  A    between atoms: C_1  and  C_2
REMARK    2  A    between atoms: C_2  and  C_3
REMARK    3  A    between atoms: C_3  and  C_4
REMARK    4  A    between atoms: C_4  and  O_5
REMARK    5  A    between atoms: O_5  and  C_6
REMARK    6  A    between atoms: C_11  and  C_12
REMARK    7  A    between atoms: C_14  and  C_23
REMARK    8  A    between atoms: C_15  and  C_22
REMARK    9  A    between atoms: N_25  and  C_26
REMARK   10  A    between atoms: C_31  and  C_32
REMARK                            x       y       z     vdW  Elec       q    Type
REMARK                         _______ _______ _______ _____ _____    ______ ____
ROOT
ATOM      1  C   UNL     1       3.208  -3.317  -5.092  0.00  0.00    +0.182 C 
ATOM      2  C   UNL     1       4.657  -3.726  -5.054  0.00  0.00    +0.060 C 
ATOM      3  C   UNL     1       5.274  -4.334  -6.078  0.00  0.00    +0.018 C 
ATOM      4  N   UNL     1       4.628  -4.624  -7.256  0.00  0.00    -0.286 N 
ATOM      5  C   UNL     1       3.386  -4.041  -7.462  0.00  0.00    +0.240 A 
ATOM      6  N   UNL     1       2.711  -3.421  -6.459  0.00  0.00    -0.201 N 
ATOM      7  N   UNL     1       1.528  -2.959  -7.033  0.00  0.00    -0.042 NA
ATOM      8  N   UNL     1       1.560  -3.314  -8.277  0.00  0.00    -0.021 NA
ATOM      9  N   UNL     1       2.651  -3.953  -8.534  0.00  0.00    -0.092 NA
ATOM     10  C   UNL     1       6.725  -4.712  -5.933  0.00  0.00    +0.061 C 
ATOM     11  H   UNL     1       5.025  -5.212  -7.917  0.00  0.00    +0.155 HD
ENDROOT
BRANCH   1  17
ATOM     12  C   UNL     1       1.790  -3.714  -3.062  0.00  0.00    +0.126 A 
ATOM     13  C   UNL     1       1.048  -4.550  -2.242  0.00  0.00    +0.047 A 
ATOM     14  C   UNL     1       0.928  -5.891  -2.551  0.00  0.00    +0.019 A 
ATOM     15  C   UNL     1       1.548  -6.400  -3.678  0.00  0.00    +0.018 A 
ATOM     16  C   UNL     1       2.289  -5.568  -4.497  0.00  0.00    +0.025 A 
ATOM     17  C   UNL     1       2.406  -4.225  -4.195  0.00  0.00    +0.024 A 
ATOM     18 BR   UNL     1       1.383  -8.236  -4.099  0.00  0.00    -0.050 Br
BRANCH  12  19
ATOM     19  O   UNL     1       1.909  -2.394  -2.760  0.00  0.00    -0.492 OA
BRANCH  19  20
ATOM     20  C   UNL     1       1.341  -1.958  -1.524  0.00  0.00    +0.229 C 
BRANCH  20  21
ATOM     21  C   UNL     1       1.522  -0.445  -1.384  0.00  0.00    +0.041 C 
BRANCH  21  23
ATOM     22  C   UNL     1       0.993   1.552   0.020  0.00  0.00    +0.004 C 
ATOM     23  C   UNL     1       0.811   0.039  -0.119  0.00  0.00    -0.000 C 
ENDBRANCH  21  23
ENDBRANCH  20  21
ENDBRANCH  19  20
ENDBRANCH  12  19
ENDBRANCH   1  17
BRANCH   2  24
ATOM     24  C   UNL     1       5.404  -3.455  -3.883  0.00  0.00    +0.248 C 
ATOM     25  O   UNL     1       5.856  -2.341  -3.694  0.00  0.00    -0.270 OA
ATOM     26  N   UNL     1       5.613  -4.431  -2.978  0.00  0.00    -0.281 N 
ATOM     27  H   UNL     1       5.315  -5.335  -3.161  0.00  0.00    +0.155 HD
BRANCH  26  28
ATOM     28  C   UNL     1       6.262  -4.139  -1.773  0.00  0.00    +0.037 A 
ATOM     29  C   UNL     1       6.342  -2.826  -1.326  0.00  0.00    +0.023 A 
ATOM     30  C   UNL     1       6.983  -2.542  -0.137  0.00  0.00    +0.002 A 
ATOM     31  C   UNL     1       7.545  -3.562   0.609  0.00  0.00    +0.000 A 
ATOM     32  C   UNL     1       7.467  -4.870   0.167  0.00  0.00    +0.005 A 
ATOM     33  C   UNL     1       6.823  -5.162  -1.019  0.00  0.00    -0.029 A 
ATOM     34  C   UNL     1       6.733  -6.588  -1.498  0.00  0.00    +0.045 C 
ENDBRANCH  26  28
ENDBRANCH   2  24
TORSDOF 7
