REMARK  Name = ZINC43287445
REMARK  9 active torsions:
REMARK  status: ('A' for Active; 'I' for Inactive)
REMARK    1  A    between atoms: C_1  and  C_2
REMARK    2  A    between atoms: C_2  and  C_4
REMARK    3  A    between atoms: C_2  and  N_22
REMARK    4  A    between atoms: C_4  and  C_6
REMARK    5  A    between atoms: C_4  and  N_12
REMARK    6  A    between atoms: N_12  and  C_13
REMARK    7  A    between atoms: N_12  and  C_16
REMARK    8  A    between atoms: C_13  and  C_14
REMARK    9  A    between atoms: C_14  and  O_15
REMARK                            x       y       z     vdW  Elec       q    Type
REMARK                         _______ _______ _______ _____ _____    ______ ____
ROOT
ATOM      1  C   UNL     1       0.896  -0.364   1.231  0.00  0.00    -0.014 C 
ENDROOT
BRANCH   1   2
ATOM      2  C   UNL     1       0.457  -0.574  -0.196  0.00  0.00    -0.021 A 
ATOM      3  C   UNL     1      -0.303  -1.568  -0.718  0.00  0.00    +0.025 A 
ATOM      4  C   UNL     1      -0.582  -1.558  -2.072  0.00  0.00    +0.025 A 
ATOM      5  C   UNL     1      -0.087  -0.555  -2.837  0.00  0.00    +0.060 A 
ATOM      6  S   UNL     1       0.798   0.425  -1.635  0.00  0.00    -0.102 S 
ATOM      7 BR   UNL     1      -1.638  -2.924  -2.844  0.00  0.00    -0.050 Br
ENDBRANCH   1   2
BRANCH   1   9
ATOM      8  C   UNL     1       0.196   0.511   3.463  0.00  0.00    +0.022 C 
ATOM      9  C   UNL     1      -0.173   0.433   1.980  0.00  0.00    +0.039 C 
BRANCH   9  10
ATOM     10  N   UNL     1      -1.474  -0.233   1.834  0.00  0.00    -0.329 NA
ATOM     11  H   UNL     1      -2.185   0.239   2.373  0.00  0.00    +0.118 HD
ATOM     12  H   UNL     1      -1.740  -0.297   0.863  0.00  0.00    +0.118 HD
ENDBRANCH   9  10
ENDBRANCH   1   9
BRANCH   1  13
ATOM     13  N   UNL     1       2.163   0.378   1.249  0.00  0.00    +0.389 N 
ATOM     14  H   UNL     1       2.656   0.223   0.383  0.00  0.00    -0.080 HD
BRANCH  13  15
ATOM     15  C   UNL     1       1.889   1.812   1.406  0.00  0.00    -0.068 C 
ATOM     16  C   UNL     1       3.207   2.567   1.591  0.00  0.00    -0.015 C 
ATOM     17  C   UNL     1       2.921   4.061   1.754  0.00  0.00    -0.002 C 
ATOM     18  C   UNL     1       2.205   4.583   0.506  0.00  0.00    -0.000 C 
ATOM     19  C   UNL     1       0.887   3.828   0.322  0.00  0.00    -0.002 C 
ATOM     20  C   UNL     1       1.173   2.334   0.158  0.00  0.00    -0.015 C 
ENDBRANCH  13  15
BRANCH  13  21
ATOM     21  C   UNL     1       2.988  -0.089   2.372  0.00  0.00    -0.049 C 
BRANCH  21  22
ATOM     22  C   UNL     1       3.392  -1.545   2.137  0.00  0.00    +0.137 C 
BRANCH  22  23
ATOM     23  O   UNL     1       4.260  -1.622   1.005  0.00  0.00    -0.397 OA
ATOM     24  H   UNL     1       4.557  -2.519   0.797  0.00  0.00    +0.209 HD
ENDBRANCH  22  23
ENDBRANCH  21  22
ENDBRANCH  13  21
ENDBRANCH   1  13
TORSDOF 8
