REMARK  Name = ZINC20295980
REMARK  8 active torsions:
REMARK  status: ('A' for Active; 'I' for Inactive)
REMARK    1  A    between atoms: C_1  and  C_2
REMARK    2  A    between atoms: C_5  and  C_8
REMARK    3  A    between atoms: C_14  and  C_16
REMARK    4  A    between atoms: C_19  and  S_24
REMARK    5  A    between atoms: N_20  and  C_21
REMARK    6  A    between atoms: C_21  and  C_22
REMARK    7  A    between atoms: S_24  and  C_25
REMARK    8  A    between atoms: C_25  and  C_26
REMARK                            x       y       z     vdW  Elec       q    Type
REMARK                         _______ _______ _______ _____ _____    ______ ____
ROOT
ATOM      1  C   UNL     1      -5.117   4.617  -1.406  0.00  0.00    +0.155 A 
ATOM      2  N   UNL     1      -4.702   4.274  -2.592  0.00  0.00    -0.132 NA
ATOM      3  N   UNL     1      -4.941   5.217  -3.433  0.00  0.00    -0.122 NA
ATOM      4  C   UNL     1      -5.527   6.221  -2.822  0.00  0.00    +0.192 A 
ATOM      5  N   UNL     1      -5.662   5.867  -1.510  0.00  0.00    -0.301 N 
ENDROOT
BRANCH   1  12
ATOM      6  C   UNL     1      -2.522   3.870   0.044  0.00  0.00    +0.247 C 
ATOM      7  O   UNL     1      -2.534   5.082   0.129  0.00  0.00    -0.270 OA
ATOM      8  N   UNL     1      -3.681   3.189  -0.050  0.00  0.00    -0.287 N 
ATOM      9  C   UNL     1      -3.816   1.721  -0.074  0.00  0.00    +0.109 C 
ATOM     10  C   UNL     1      -5.257   1.449   0.431  0.00  0.00    +0.021 C 
ATOM     11  C   UNL     1      -6.037   2.627  -0.210  0.00  0.00    +0.032 C 
ATOM     12  C   UNL     1      -5.020   3.787  -0.152  0.00  0.00    +0.144 C 
BRANCH   6  17
ATOM     13  C   UNL     1       2.488   1.038   0.041  0.00  0.00    +0.044 C 
ATOM     14  C   UNL     1       1.176   1.780   0.042  0.00  0.00    -0.050 A 
ATOM     15  C   UNL     1       0.030   1.153  -0.414  0.00  0.00    +0.004 A 
ATOM     16  C   UNL     1      -1.173   1.827  -0.420  0.00  0.00    +0.013 A 
ATOM     17  C   UNL     1      -1.235   3.142   0.044  0.00  0.00    +0.037 A 
ATOM     18  C   UNL     1      -0.075   3.769   0.502  0.00  0.00    +0.013 A 
ATOM     19  C   UNL     1       1.123   3.085   0.498  0.00  0.00    +0.004 A 
ENDBRANCH   6  17
ENDBRANCH   1  12
BRANCH   5  20
ATOM     20  C   UNL     1      -6.262   6.663  -0.437  0.00  0.00    +0.152 C 
BRANCH  20  21
ATOM     21  C   UNL     1      -5.200   7.512   0.214  0.00  0.00    -0.013 C 
ATOM     22  C   UNL     1      -5.360   8.809   0.298  0.00  0.00    +0.005 C 
ENDBRANCH  20  21
ENDBRANCH   5  20
BRANCH   4  23
ATOM     23  S   UNL     1      -6.046   7.736  -3.558  0.00  0.00    -0.077 S 
BRANCH  23  24
ATOM     24  C   UNL     1      -5.539   7.443  -5.271  0.00  0.00    +0.173 C 
BRANCH  24  25
ATOM     25  C   UNL     1      -5.893   8.643  -6.111  0.00  0.00    +0.229 C 
ATOM     26  O   UNL     1      -6.435   9.601  -5.602  0.00  0.00    -0.275 OA
ATOM     27  N   UNL     1      -5.608   8.651  -7.428  0.00  0.00    -0.264 N 
ATOM     28  C   UNL     1      -5.934   9.754  -8.201  0.00  0.00    +0.165 A 
ATOM     29  N   UNL     1      -6.521  10.869  -7.837  0.00  0.00    -0.225 NA
ATOM     30  C   UNL     1      -6.776  11.873  -8.704  0.00  0.00    +0.080 A 
ATOM     31  C   UNL     1      -7.393  13.118  -8.443  0.00  0.00    +0.029 A 
ATOM     32  C   UNL     1      -7.583  14.030  -9.447  0.00  0.00    +0.002 A 
ATOM     33  C   UNL     1      -7.180  13.769 -10.749  0.00  0.00    +0.001 A 
ATOM     34  C   UNL     1      -6.573  12.561 -11.041  0.00  0.00    +0.017 A 
ATOM     35  C   UNL     1      -6.379  11.642 -10.041  0.00  0.00    +0.041 A 
ATOM     36  S   UNL     1      -5.668  10.015  -9.949  0.00  0.00    -0.052 S 
ATOM     37  H   UNL     1      -5.117   7.782  -7.890  0.00  0.00    +0.157 HD
ENDBRANCH  24  25
ENDBRANCH  23  24
ENDBRANCH   4  23
TORSDOF 7
