REMARK  Name = ZINC58880117
REMARK  3 active torsions:
REMARK  status: ('A' for Active; 'I' for Inactive)
REMARK    1  A    between atoms: N_5  and  C_8
REMARK    2  A    between atoms: C_8  and  C_9
REMARK    3  A    between atoms: C_15  and  C_17
REMARK                            x       y       z     vdW  Elec       q    Type
REMARK                         _______ _______ _______ _____ _____    ______ ____
ROOT
ATOM      1  C   UNL     1       2.994  -2.109  -2.384  0.00  0.00    -0.025 C 
ATOM      2  C   UNL     1       3.972  -2.106  -1.207  0.00  0.00    +0.021 C 
ATOM      3  C   UNL     1       3.901  -3.455  -0.485  0.00  0.00    +0.108 C 
ATOM      4  N   UNL     1       4.137  -4.527  -1.462  0.00  0.00    -0.301 N 
ATOM      5  C   UNL     1       3.311  -4.570  -2.677  0.00  0.00    +0.108 C 
ATOM      6  C   UNL     1       3.388  -3.208  -3.374  0.00  0.00    +0.021 C 
ATOM      7  C   UNL     1       5.092  -5.453  -1.249  0.00  0.00    +0.219 C 
ATOM      8  O   UNL     1       5.809  -5.371  -0.274  0.00  0.00    -0.275 OA
ENDROOT
BRANCH   7   9
ATOM      9  C   UNL     1       5.271  -6.590  -2.222  0.00  0.00    +0.078 C 
ATOM     10  C   UNL     1       4.042  -7.501  -2.172  0.00  0.00    +0.032 C 
ATOM     11  C   UNL     1       4.211  -8.636  -3.187  0.00  0.00    +0.110 C 
ATOM     12  N   UNL     1       5.482  -9.322  -2.921  0.00  0.00    -0.286 N 
ATOM     13  C   UNL     1       6.715  -8.526  -2.856  0.00  0.00    +0.110 C 
ATOM     14  C   UNL     1       6.518  -7.392  -1.845  0.00  0.00    +0.032 C 
ATOM     15  C   UNL     1       5.516 -10.657  -2.738  0.00  0.00    +0.300 C 
ATOM     16  O   UNL     1       4.505 -11.317  -2.883  0.00  0.00    -0.253 OA
ATOM     17  N   UNL     1       6.671 -11.261  -2.395  0.00  0.00    -0.313 N 
ATOM     18  H   UNL     1       7.493 -10.747  -2.351  0.00  0.00    +0.146 HD
ATOM     19  H   UNL     1       6.681 -12.210  -2.193  0.00  0.00    +0.146 HD
ENDBRANCH   7   9
BRANCH   1  20
ATOM     20  C   UNL     1       3.037  -0.751  -3.087  0.00  0.00    -0.075 C 
BRANCH  20  25
ATOM     21  C   UNL     1       0.850   2.180  -0.610  0.00  0.00    -0.002 C 
ATOM     22  C   UNL     1       2.310   2.498  -0.420  0.00  0.00    -0.002 C 
ATOM     23  C   UNL     1       3.078   2.656  -1.747  0.00  0.00    -0.019 C 
ATOM     24  C   UNL     1       2.691   1.589  -2.786  0.00  0.00    -0.079 C 
ATOM     25  N   UNL     1       2.544   0.289  -2.173  0.00  0.00    +0.380 N 
ATOM     26  C   UNL     1       1.111   0.080  -1.906  0.00  0.00    -0.079 C 
ATOM     27  C   UNL     1       0.662   0.644  -0.635  0.00  0.00    -0.019 C 
ATOM     28  H   UNL     1       3.062   0.258  -1.308  0.00  0.00    -0.082 HD
ENDBRANCH  20  25
ENDBRANCH   1  20
TORSDOF 3
