REMARK  Name = ZINC44589310
REMARK  11 active torsions:
REMARK  status: ('A' for Active; 'I' for Inactive)
REMARK    1  A    between atoms: C_1  and  O_2
REMARK    2  A    between atoms: O_2  and  C_3
REMARK    3  A    between atoms: C_5  and  C_13
REMARK    4  A    between atoms: C_6  and  O_11
REMARK    5  A    between atoms: C_8  and  O_9
REMARK    6  A    between atoms: O_9  and  C_10
REMARK    7  A    between atoms: O_11  and  C_12
REMARK    8  A    between atoms: C_22  and  C_34
REMARK    9  A    between atoms: N_24  and  C_25
REMARK   10  A    between atoms: C_25  and  N_27
REMARK   11  A    between atoms: N_27  and  C_28
REMARK                            x       y       z     vdW  Elec       q    Type
REMARK                         _______ _______ _______ _____ _____    ______ ____
ROOT
ATOM      1  C   UNL     1       1.723   0.197   3.132  0.00  0.00    +0.158 C 
ATOM      2  C   UNL     1       1.738   0.074   4.637  0.00  0.00    +0.062 A 
ATOM      3  C   UNL     1       1.901   1.122   5.473  0.00  0.00    +0.041 A 
ATOM      4  N   UNL     1       1.855   0.628   6.742  0.00  0.00    -0.349 N 
ATOM      5  H   UNL     1       1.940   1.139   7.562  0.00  0.00    +0.166 HD
ATOM      6  C   UNL     1       1.669  -0.708   6.641  0.00  0.00    +0.171 A 
ATOM      7  N   UNL     1       1.601  -1.029   5.376  0.00  0.00    -0.348 N 
ATOM      8  C   UNL     1       2.099   2.549   5.035  0.00  0.00    +0.089 C 
ATOM      9  C   UNL     1       1.649   2.685   3.574  0.00  0.00    +0.195 C 
ATOM     10  N   UNL     1       2.183   1.556   2.797  0.00  0.00    -0.286 N 
ATOM     11  H   UNL     1       1.471  -1.926   5.029  0.00  0.00    +0.167 HD
ENDROOT
BRANCH   1  14
ATOM     12  C   UNL     1      -2.035  -0.176   3.016  0.00  0.00    +0.162 A 
ATOM     13  C   UNL     1      -0.748   0.015   3.489  0.00  0.00    +0.058 A 
ATOM     14  C   UNL     1       0.323  -0.012   2.615  0.00  0.00    +0.024 A 
ATOM     15  C   UNL     1       0.109  -0.231   1.262  0.00  0.00    +0.129 A 
ATOM     16  C   UNL     1      -1.178  -0.423   0.784  0.00  0.00    +0.095 A 
ATOM     17  C   UNL     1      -2.251  -0.401   1.660  0.00  0.00    +0.165 A 
BRANCH  12  19
ATOM     18  C   UNL     1      -2.793   0.088   5.256  0.00  0.00    +0.277 C 
ATOM     19  O   UNL     1      -3.088  -0.148   3.878  0.00  0.00    -0.491 OA
ENDBRANCH  12  19
BRANCH  17  20
ATOM     20  O   UNL     1      -3.514  -0.595   1.195  0.00  0.00    -0.491 OA
ATOM     21  C   UNL     1      -3.661  -0.821  -0.208  0.00  0.00    +0.277 C 
ENDBRANCH  17  20
BRANCH  15  22
ATOM     22  O   UNL     1       1.163  -0.258   0.403  0.00  0.00    -0.495 OA
ATOM     23  C   UNL     1       0.864  -0.384  -0.988  0.00  0.00    +0.277 C 
ENDBRANCH  15  22
ENDBRANCH   1  14
BRANCH   9  24
ATOM     24  C   UNL     1       2.168   3.981   3.006  0.00  0.00    +0.376 C 
ATOM     25  O   UNL     1       3.271   4.388   3.326  0.00  0.00    -0.244 OA
ATOM     26  O   UNL     1       1.484   4.621   2.225  0.00  0.00    -0.244 OA
ENDBRANCH   9  24
BRANCH  10  27
ATOM     27  C   UNL     1       3.074   1.758   1.805  0.00  0.00    +0.135 C 
ATOM     28  S   UNL     1       3.704   3.326   1.528  0.00  0.00    -0.019 S 
BRANCH  27  29
ATOM     29  N   UNL     1       3.467   0.727   1.032  0.00  0.00    -0.324 N 
ATOM     30  H   UNL     1       3.067  -0.148   1.151  0.00  0.00    +0.148 HD
BRANCH  29  31
ATOM     31  C   UNL     1       4.498   0.929   0.011  0.00  0.00    +0.072 C 
ATOM     32  C   UNL     1       3.869   1.556  -1.234  0.00  0.00    +0.022 C 
ATOM     33  C   UNL     1       4.946   1.766  -2.300  0.00  0.00    +0.002 C 
ATOM     34  C   UNL     1       5.570   0.419  -2.667  0.00  0.00    +0.000 C 
ATOM     35  C   UNL     1       6.200  -0.209  -1.422  0.00  0.00    +0.002 C 
ATOM     36  C   UNL     1       5.122  -0.419  -0.356  0.00  0.00    +0.022 C 
ENDBRANCH  29  31
ENDBRANCH  27  29
ENDBRANCH  10  27
TORSDOF 8
