REMARK  Name = ZINC65421281
REMARK  3 active torsions:
REMARK  status: ('A' for Active; 'I' for Inactive)
REMARK    1  A    between atoms: C_1  and  N_2
REMARK    2  A    between atoms: C_4  and  C_7
REMARK    3  A    between atoms: C_8  and  C_9
REMARK                            x       y       z     vdW  Elec       q    Type
REMARK                         _______ _______ _______ _____ _____    ______ ____
ROOT
ATOM      1  C   UNL     1       0.073  -5.677  -1.781  0.00  0.00    +0.239 C 
ATOM      2  O   UNL     1       0.159  -4.689  -1.075  0.00  0.00    -0.271 OA
ATOM      3  N   UNL     1      -0.008  -6.901  -1.221  0.00  0.00    -0.298 N 
ATOM      4  C   UNL     1      -0.116  -7.005   0.247  0.00  0.00    +0.108 C 
ATOM      5  C   UNL     1      -1.138  -8.077   0.677  0.00  0.00    +0.023 C 
ATOM      6  C   UNL     1      -2.353  -8.024  -0.208  0.00  0.00    +0.054 C 
ATOM      7  C   UNL     1      -2.191  -8.989  -1.387  0.00  0.00    +0.131 C 
ATOM      8  C   UNL     1      -1.428  -8.415  -2.512  0.00  0.00    +0.071 C 
ATOM      9  C   UNL     1       0.006  -8.063  -2.080  0.00  0.00    +0.112 C 
ATOM     10  C   UNL     1      -3.582  -9.390  -1.844  0.00  0.00    +0.021 C 
ATOM     11  C   UNL     1      -3.781 -10.587  -2.388  0.00  0.00    +0.011 C 
ATOM     12  C   UNL     1      -2.618 -11.491  -2.519  0.00  0.00    +0.017 A 
ATOM     13  C   UNL     1      -2.615 -12.560  -3.406  0.00  0.00    +0.011 A 
ATOM     14  C   UNL     1      -1.504 -13.378  -3.480  0.00  0.00    +0.001 A 
ATOM     15  C   UNL     1      -0.402 -13.135  -2.678  0.00  0.00    +0.004 A 
ATOM     16  C   UNL     1      -0.395 -12.069  -1.796  0.00  0.00    +0.046 A 
ATOM     17  C   UNL     1      -1.497 -11.239  -1.715  0.00  0.00    +0.129 A 
ATOM     18  O   UNL     1      -1.525 -10.167  -0.884  0.00  0.00    -0.481 OA
ENDROOT
BRANCH   1  20
ATOM     19  C   UNL     1       0.040  -4.313  -3.752  0.00  0.00    +0.016 C 
ATOM     20  C   UNL     1       0.060  -5.541  -3.193  0.00  0.00    +0.068 C 
BRANCH  19  24
ATOM     21  C   UNL     1      -0.023  -2.346  -8.343  0.00  0.00    +0.172 C 
ATOM     22  N   UNL     1      -0.001  -3.301  -7.232  0.00  0.00    -0.274 N 
ATOM     23  C   UNL     1       0.006  -2.986  -5.926  0.00  0.00    +0.116 A 
ATOM     24  C   UNL     1       0.026  -4.172  -5.215  0.00  0.00    +0.013 A 
ATOM     25  C   UNL     1       0.031  -5.223  -6.161  0.00  0.00    +0.142 A 
ATOM     26  N   UNL     1       0.009  -4.695  -7.353  0.00  0.00    -0.179 NA
ENDBRANCH  19  24
ENDBRANCH   1  20
TORSDOF 2
