REMARK  Name = ZINC48895880
REMARK  5 active torsions:
REMARK  status: ('A' for Active; 'I' for Inactive)
REMARK    1  A    between atoms: C_5  and  N_8
REMARK    2  A    between atoms: C_6  and  N_7
REMARK    3  A    between atoms: C_9  and  C_11
REMARK    4  A    between atoms: C_11  and  C_12
REMARK    5  A    between atoms: C_12  and  N_13
REMARK                            x       y       z     vdW  Elec       q    Type
REMARK                         _______ _______ _______ _____ _____    ______ ____
ROOT
ATOM      1  N   UNL     1       1.246  -2.083  -0.022  0.00  0.00    -0.283 N 
ATOM      2  C   UNL     1       2.410  -2.738   0.164  0.00  0.00    +0.215 C 
ATOM      3  O   UNL     1       3.418  -2.118   0.430  0.00  0.00    -0.276 OA
ATOM      4  H   UNL     1       0.427  -2.583  -0.163  0.00  0.00    +0.155 HD
ENDROOT
BRANCH   1   9
ATOM      5  C   UNL     1       0.983   1.393   1.183  0.00  0.00    +0.044 A 
ATOM      6  C   UNL     1       1.170   2.091   0.003  0.00  0.00    +0.044 A 
ATOM      7  C   UNL     1       1.381   1.409  -1.181  0.00  0.00    +0.042 A 
ATOM      8  C   UNL     1       1.407   0.025  -1.193  0.00  0.00    +0.065 A 
ATOM      9  C   UNL     1       1.221  -0.681  -0.013  0.00  0.00    +0.073 A 
ATOM     10  C   UNL     1       1.008   0.006   1.181  0.00  0.00    +0.049 A 
ATOM     11 CL   UNL     1       1.672  -0.826  -2.682  0.00  0.00    -0.082 Cl
ATOM     12 CL   UNL     1       1.138   3.826   0.009  0.00  0.00    -0.083 Cl
BRANCH  10  13
ATOM     13  N   UNL     1       0.819  -0.701   2.373  0.00  0.00    -0.356 N 
ATOM     14  H   UNL     1       0.671  -0.221   3.203  0.00  0.00    +0.142 HD
ATOM     15  H   UNL     1       0.837  -1.670   2.370  0.00  0.00    +0.142 HD
ENDBRANCH  10  13
ENDBRANCH   1   9
BRANCH   2  16
ATOM     16  C   UNL     1       2.458  -4.239   0.043  0.00  0.00    +0.077 C 
BRANCH  16  17
ATOM     17  C   UNL     1       3.886  -4.726   0.300  0.00  0.00    -0.070 C 
BRANCH  17  18
ATOM     18  N   UNL     1       3.933  -6.189   0.182  0.00  0.00    +0.381 N 
ATOM     19  C   UNL     1       5.298  -6.668   0.390  0.00  0.00    -0.078 C 
ATOM     20  C   UNL     1       5.614  -7.709  -0.686  0.00  0.00    -0.008 C 
ATOM     21  C   UNL     1       4.479  -8.694  -1.002  0.00  0.00    +0.067 C 
ATOM     22  S   UNL     1       3.660  -9.329   0.474  0.00  0.00    -0.163 S 
ATOM     23  C   UNL     1       2.415  -8.033   0.867  0.00  0.00    +0.050 C 
ATOM     24  C   UNL     1       3.125  -6.808   1.238  0.00  0.00    -0.068 C 
ATOM     25  H   UNL     1       3.597  -6.475  -0.726  0.00  0.00    -0.082 HD
ENDBRANCH  17  18
ENDBRANCH  16  17
ENDBRANCH   2  16
TORSDOF 5
