REMARK  Name = ZINC09504817
REMARK  8 active torsions:
REMARK  status: ('A' for Active; 'I' for Inactive)
REMARK    1  A    between atoms: C_1  and  C_2
REMARK    2  A    between atoms: C_2  and  O_3
REMARK    3  A    between atoms: O_3  and  C_4
REMARK    4  A    between atoms: C_12  and  N_16
REMARK    5  A    between atoms: C_13  and  C_14
REMARK    6  A    between atoms: C_17  and  C_19
REMARK    7  A    between atoms: N_22  and  S_25
REMARK    8  A    between atoms: S_25  and  C_28
REMARK                            x       y       z     vdW  Elec       q    Type
REMARK                         _______ _______ _______ _____ _____    ______ ____
ROOT
ATOM      1  N   UNL     1      -1.114   6.150  -2.273  0.00  0.00    -0.279 N 
ATOM      2  C   UNL     1      -0.090   5.280  -2.169  0.00  0.00    +0.221 C 
ATOM      3  O   UNL     1       0.812   5.306  -2.979  0.00  0.00    -0.275 OA
ATOM      4  H   UNL     1      -1.836   6.129  -1.625  0.00  0.00    +0.155 HD
ENDROOT
BRANCH   1  13
ATOM      5  C   UNL     1      -1.681  10.357  -8.409  0.00  0.00    +0.403 C 
ATOM      6  O   UNL     1      -2.591  11.085  -8.753  0.00  0.00    -0.226 OA
ATOM      7  N   UNL     1      -1.368  10.241  -7.103  0.00  0.00    -0.262 N 
ATOM      8  C   UNL     1      -2.110  10.982  -6.071  0.00  0.00    +0.116 C 
ATOM      9  C   UNL     1      -2.843   9.997  -5.160  0.00  0.00    +0.056 C 
ATOM     10  C   UNL     1      -1.880   8.895  -4.734  0.00  0.00    -0.015 A 
ATOM     11  C   UNL     1      -0.748   8.645  -5.429  0.00  0.00    +0.013 A 
ATOM     12  S   UNL     1       0.025   7.304  -4.572  0.00  0.00    -0.075 S 
ATOM     13  C   UNL     1      -1.136   7.075  -3.307  0.00  0.00    +0.090 A 
ATOM     14  C   UNL     1      -2.096   8.038  -3.581  0.00  0.00    +0.084 A 
ATOM     15  C   UNL     1      -0.269   9.364  -6.654  0.00  0.00    +0.153 C 
BRANCH  14  16
ATOM     16  C   UNL     1      -3.256   8.185  -2.755  0.00  0.00    +0.102 C 
ATOM     17  N   UNL     1      -4.177   8.301  -2.099  0.00  0.00    -0.191 NA
ENDBRANCH  14  16
BRANCH   5  18
ATOM     18  O   UNL     1      -0.987   9.666  -9.332  0.00  0.00    -0.451 OA
BRANCH  18  20
ATOM     19  C   UNL     1      -0.482   8.982 -11.614  0.00  0.00    +0.048 C 
ATOM     20  C   UNL     1      -1.379   9.840 -10.719  0.00  0.00    +0.230 C 
ENDBRANCH  18  20
ENDBRANCH   5  18
ENDBRANCH   1  13
BRANCH   2  21
ATOM     21  C   UNL     1      -0.066   4.275  -1.046  0.00  0.00    +0.078 C 
ATOM     22  C   UNL     1       1.195   3.415  -1.159  0.00  0.00    +0.030 C 
ATOM     23  C   UNL     1       1.234   2.417   0.003  0.00  0.00    +0.110 C 
ATOM     24  N   UNL     1      -0.020   1.652   0.011  0.00  0.00    -0.176 NA
ATOM     25  C   UNL     1      -1.295   2.383   0.021  0.00  0.00    +0.110 C 
ATOM     26  C   UNL     1      -1.305   3.381  -1.136  0.00  0.00    +0.030 C 
BRANCH  24  27
ATOM     27  S   UNL     1       0.002  -0.004   0.002  0.00  0.00    +0.067 S 
ATOM     28  O   UNL     1      -1.243  -0.424  -0.539  0.00  0.00    -0.152 OA
ATOM     29  O   UNL     1       1.248  -0.390  -0.563  0.00  0.00    -0.152 OA
BRANCH  27  30
ATOM     30  C   UNL     1       0.025  -0.534   1.682  0.00  0.00    +0.143 A 
ATOM     31  C   UNL     1      -1.016  -0.800   2.508  0.00  0.00    +0.036 A 
ATOM     32  C   UNL     1      -0.758  -1.211   3.802  0.00  0.00    +0.010 A 
ATOM     33  C   UNL     1       0.529  -1.326   4.211  0.00  0.00    +0.047 A 
ATOM     34  S   UNL     1       1.427  -0.853   2.741  0.00  0.00    -0.077 S 
ENDBRANCH  27  30
ENDBRANCH  24  27
ENDBRANCH   2  21
TORSDOF 7
