REMARK  Name = ZINC29656405
REMARK  7 active torsions:
REMARK  status: ('A' for Active; 'I' for Inactive)
REMARK    1  A    between atoms: C_10  and  N_12
REMARK    2  A    between atoms: N_12  and  C_13
REMARK    3  A    between atoms: C_13  and  C_14
REMARK    4  A    between atoms: C_17  and  O_21
REMARK    5  A    between atoms: O_21  and  C_22
REMARK    6  A    between atoms: C_22  and  C_23
REMARK    7  A    between atoms: C_23  and  O_24
REMARK                            x       y       z     vdW  Elec       q    Type
REMARK                         _______ _______ _______ _____ _____    ______ ____
ROOT
ATOM      1  N   UNL     1       5.301   4.482   1.341  0.00  0.00    +0.386 N 
ATOM      2  H   UNL     1       5.273   3.570   1.955  0.00  0.00    -0.085 HD
ATOM      3  H   UNL     1       4.572   5.208   1.729  0.00  0.00    -0.085 HD
ENDROOT
BRANCH   1  13
ATOM      4  C   UNL     1       8.327   4.183   5.227  0.00  0.00    +0.000 A 
ATOM      5  C   UNL     1       7.606   3.228   4.532  0.00  0.00    +0.000 A 
ATOM      6  C   UNL     1       7.073   3.537   3.298  0.00  0.00    +0.002 A 
ATOM      7  C   UNL     1       7.253   4.798   2.747  0.00  0.00    -0.058 A 
ATOM      8  C   UNL     1       7.967   5.750   3.440  0.00  0.00    -0.046 A 
ATOM      9  C   UNL     1       8.505   5.437   4.682  0.00  0.00    +0.004 A 
ATOM     10  C   UNL     1       8.196   7.140   2.907  0.00  0.00    +0.035 C 
ATOM     11  C   UNL     1       7.933   7.189   1.403  0.00  0.00    +0.003 C 
ATOM     12  C   UNL     1       6.558   6.567   1.132  0.00  0.00    -0.011 C 
ATOM     13  C   UNL     1       6.649   5.065   1.393  0.00  0.00    -0.040 C 
ENDBRANCH   1  13
BRANCH   1  14
ATOM     14  C   UNL     1       4.931   4.134  -0.037  0.00  0.00    -0.045 C 
BRANCH  14  15
ATOM     15  C   UNL     1       3.602   3.424  -0.036  0.00  0.00    -0.050 A 
ATOM     16  C   UNL     1       3.556   2.045  -0.129  0.00  0.00    +0.006 A 
ATOM     17  C   UNL     1       2.339   1.391  -0.124  0.00  0.00    +0.046 A 
ATOM     18  C   UNL     1       1.161   2.120  -0.034  0.00  0.00    +0.122 A 
ATOM     19  C   UNL     1       1.209   3.502   0.060  0.00  0.00    +0.061 A 
ATOM     20  C   UNL     1       2.430   4.152   0.059  0.00  0.00    +0.023 A 
ATOM     21 BR   UNL     1       2.497   6.038   0.187  0.00  0.00    -0.050 Br
BRANCH  18  22
ATOM     22  O   UNL     1      -0.037   1.479  -0.033  0.00  0.00    -0.490 OA
BRANCH  22  23
ATOM     23  C   UNL     1      -0.011   0.053  -0.132  0.00  0.00    +0.256 C 
BRANCH  23  24
ATOM     24  C   UNL     1      -1.442  -0.486  -0.115  0.00  0.00    +0.196 C 
BRANCH  24  25
ATOM     25  O   UNL     1      -2.134  -0.038  -1.283  0.00  0.00    -0.392 OA
ATOM     26  H   UNL     1      -3.183  -0.328  -1.445  0.00  0.00    +0.210 HD
ENDBRANCH  24  25
ENDBRANCH  23  24
ENDBRANCH  22  23
ENDBRANCH  18  22
ENDBRANCH  14  15
ENDBRANCH   1  14
TORSDOF 7
