REMARK  Name = ZINC39353435
REMARK  7 active torsions:
REMARK  status: ('A' for Active; 'I' for Inactive)
REMARK    1  A    between atoms: C_1  and  C_2
REMARK    2  A    between atoms: C_7  and  C_19
REMARK    3  A    between atoms: C_15  and  O_18
REMARK    4  A    between atoms: C_19  and  N_20
REMARK    5  A    between atoms: N_20  and  C_21
REMARK    6  A    between atoms: C_21  and  C_23
REMARK    7  A    between atoms: C_21  and  C_24
REMARK                            x       y       z     vdW  Elec       q    Type
REMARK                         _______ _______ _______ _____ _____    ______ ____
ROOT
ATOM      1  C   UNL     1      -0.738   1.220  -0.944  0.00  0.00    +0.044 C 
ATOM      2  C   UNL     1      -0.467  -0.252  -0.768  0.00  0.00    -0.048 A 
ATOM      3  C   UNL     1      -0.244  -1.047  -1.890  0.00  0.00    +0.004 A 
ATOM      4  C   UNL     1       0.004  -2.380  -1.763  0.00  0.00    +0.010 A 
ATOM      5  C   UNL     1       0.033  -2.962  -0.486  0.00  0.00    -0.001 A 
ATOM      6  C   UNL     1       0.286  -4.339  -0.316  0.00  0.00    +0.018 A 
ATOM      7  C   UNL     1       0.302  -4.840   0.951  0.00  0.00    +0.005 A 
ATOM      8  C   UNL     1       0.069  -3.990   2.042  0.00  0.00    +0.104 A 
ATOM      9  N   UNL     1      -0.167  -2.705   1.875  0.00  0.00    -0.343 N 
ATOM     10  C   UNL     1      -0.194  -2.156   0.655  0.00  0.00    +0.048 A 
ATOM     11  C   UNL     1      -0.440  -0.783   0.485  0.00  0.00    +0.029 A 
ATOM     12  N   UNL     1       0.087  -4.515   3.325  0.00  0.00    -0.316 N 
ATOM     13  C   UNL     1      -1.161  -4.918   3.987  0.00  0.00    +0.109 C 
ATOM     14  C   UNL     1      -1.247  -4.218   5.346  0.00  0.00    +0.050 C 
ATOM     15  C   UNL     1       0.018  -4.520   6.153  0.00  0.00    +0.118 C 
ATOM     16  C   UNL     1       1.241  -3.980   5.408  0.00  0.00    +0.050 C 
ATOM     17  C   UNL     1       1.356  -4.683   4.047  0.00  0.00    +0.109 C 
ATOM     18  H   UNL     1      -0.324  -2.146   2.652  0.00  0.00    +0.167 HD
ENDROOT
BRANCH  15  19
ATOM     19  O   UNL     1      -0.074  -3.894   7.434  0.00  0.00    -0.392 OA
ATOM     20  H   UNL     1       0.695  -4.044   8.001  0.00  0.00    +0.210 HD
ENDBRANCH  15  19
BRANCH   7  21
ATOM     21  C   UNL     1       0.568  -6.306   1.179  0.00  0.00    +0.120 C 
BRANCH  21  22
ATOM     22  N   UNL     1      -0.704  -7.004   1.410  0.00  0.00    -0.305 NA
ATOM     23  H   UNL     1      -1.191  -6.615   2.204  0.00  0.00    +0.123 HD
BRANCH  22  24
ATOM     24  C   UNL     1      -0.489  -8.447   1.580  0.00  0.00    +0.082 C 
ATOM     25  C   UNL     1      -0.443  -9.121   0.207  0.00  0.00    +0.029 C 
BRANCH  24  26
ATOM     26  C   UNL     1      -1.617  -9.032   2.389  0.00  0.00    -0.023 A 
ATOM     27  C   UNL     1      -2.834  -8.422   2.406  0.00  0.00    +0.006 A 
ATOM     28  C   UNL     1      -3.890  -8.948   3.148  0.00  0.00    +0.001 A 
ATOM     29  C   UNL     1      -3.735 -10.086   3.879  0.00  0.00    +0.008 A 
ATOM     30  C   UNL     1      -2.493 -10.743   3.886  0.00  0.00    -0.018 A 
ATOM     31  C   UNL     1      -1.421 -10.212   3.126  0.00  0.00    -0.013 A 
ATOM     32  C   UNL     1      -0.180 -10.873   3.129  0.00  0.00    +0.009 A 
ATOM     33  C   UNL     1      -0.027 -12.014   3.855  0.00  0.00    +0.001 A 
ATOM     34  C   UNL     1      -1.083 -12.540   4.597  0.00  0.00    +0.001 A 
ATOM     35  C   UNL     1      -2.294 -11.920   4.629  0.00  0.00    +0.008 A 
ENDBRANCH  24  26
ENDBRANCH  22  24
ENDBRANCH  21  22
ENDBRANCH   7  21
TORSDOF 5
