REMARK  Name = ZINC39693576
REMARK  12 active torsions:
REMARK  status: ('A' for Active; 'I' for Inactive)
REMARK    1  A    between atoms: C_1  and  C_2
REMARK    2  A    between atoms: C_5  and  C_8
REMARK    3  A    between atoms: C_8  and  C_9
REMARK    4  A    between atoms: C_13  and  C_22
REMARK    5  A    between atoms: N_24  and  C_25
REMARK    6  A    between atoms: C_25  and  C_26
REMARK    7  A    between atoms: C_26  and  N_27
REMARK    8  A    between atoms: C_28  and  O_30
REMARK    9  A    between atoms: O_30  and  C_31
REMARK   10  A    between atoms: C_31  and  C_32
REMARK   11  A    between atoms: C_31  and  C_33
REMARK   12  A    between atoms: C_31  and  C_34
REMARK                            x       y       z     vdW  Elec       q    Type
REMARK                         _______ _______ _______ _____ _____    ______ ____
ROOT
ATOM      1  C   UNL     1       1.647  -4.777   0.002  0.00  0.00    +0.220 C 
ATOM      2  O   UNL     1       2.577  -4.000  -0.054  0.00  0.00    -0.275 OA
ATOM      3  N   UNL     1       1.874  -6.104  -0.042  0.00  0.00    -0.300 N 
ATOM      4  C   UNL     1       0.876  -7.199   0.006  0.00  0.00    +0.121 C 
ATOM      5  C   UNL     1       1.397  -8.247  -1.002  0.00  0.00    +0.100 C 
ATOM      6  C   UNL     1       2.909  -7.982  -1.098  0.00  0.00    -0.004 C 
ATOM      7  C   UNL     1       3.179  -6.800  -0.155  0.00  0.00    +0.115 C 
ATOM      8  C   UNL     1       3.290  -7.606  -2.527  0.00  0.00    -0.010 C 
ATOM      9  C   UNL     1       4.806  -7.403  -2.609  0.00  0.00    -0.082 C 
ATOM     10  N   UNL     1       5.489  -8.638  -2.207  0.00  0.00    +0.379 N 
ATOM     11  C   UNL     1       5.191  -8.942  -0.803  0.00  0.00    -0.082 C 
ATOM     12  C   UNL     1       3.691  -9.210  -0.644  0.00  0.00    -0.010 C 
ATOM     13  H   UNL     1       5.174  -9.400  -2.789  0.00  0.00    -0.086 HD
ATOM     14  H   UNL     1       6.485  -8.522  -2.321  0.00  0.00    -0.086 HD
ENDROOT
BRANCH   5  15
ATOM     15  C   UNL     1       1.138  -9.641  -0.491  0.00  0.00    +0.218 C 
ATOM     16  O   UNL     1       1.127  -9.857   0.703  0.00  0.00    -0.275 OA
ATOM     17  N   UNL     1       0.919 -10.648  -1.359  0.00  0.00    -0.314 N 
ATOM     18  H   UNL     1       0.929 -10.475  -2.314  0.00  0.00    +0.149 HD
BRANCH  17  19
ATOM     19  C   UNL     1       0.668 -12.002  -0.863  0.00  0.00    +0.123 C 
BRANCH  19  20
ATOM     20  C   UNL     1       0.453 -12.948  -2.046  0.00  0.00    +0.126 C 
BRANCH  20  21
ATOM     21  N   UNL     1       0.201 -14.303  -1.549  0.00  0.00    -0.280 N 
ATOM     22  C   UNL     1      -0.018 -15.310  -2.418  0.00  0.00    +0.401 C 
ATOM     23  O   UNL     1      -0.006 -15.094  -3.613  0.00  0.00    -0.226 OA
ATOM     24  H   UNL     1       0.192 -14.476  -0.594  0.00  0.00    +0.152 HD
BRANCH  22  25
ATOM     25  O   UNL     1      -0.249 -16.555  -1.961  0.00  0.00    -0.445 OA
BRANCH  25  26
ATOM     26  C   UNL     1      -0.473 -17.573  -2.938  0.00  0.00    +0.107 C 
ATOM     27  C   UNL     1       0.755 -17.689  -3.844  0.00  0.00    +0.055 C 
ATOM     28  C   UNL     1      -0.716 -18.910  -2.235  0.00  0.00    +0.055 C 
ATOM     29  C   UNL     1      -1.697 -17.211  -3.781  0.00  0.00    +0.055 C 
ENDBRANCH  25  26
ENDBRANCH  22  25
ENDBRANCH  20  21
ENDBRANCH  19  20
ENDBRANCH  17  19
ENDBRANCH   5  15
BRANCH   1  30
ATOM     30  C   UNL     1       0.238  -4.257   0.120  0.00  0.00    +0.131 C 
BRANCH  30  35
ATOM     31  C   UNL     1       0.315   1.520   0.228  0.00  0.00    +0.044 C 
ATOM     32  C   UNL     1       0.295   0.014   0.200  0.00  0.00    -0.050 A 
ATOM     33  C   UNL     1       0.196  -0.654  -1.007  0.00  0.00    +0.003 A 
ATOM     34  C   UNL     1       0.177  -2.036  -1.033  0.00  0.00    +0.004 A 
ATOM     35  C   UNL     1       0.259  -2.750   0.148  0.00  0.00    -0.039 A 
ATOM     36  C   UNL     1       0.359  -2.083   1.354  0.00  0.00    +0.004 A 
ATOM     37  C   UNL     1       0.382  -0.701   1.380  0.00  0.00    +0.003 A 
ENDBRANCH  30  35
ENDBRANCH   1  30
TORSDOF 8
