REMARK  Name = ZINC05292906
REMARK  2 active torsions:
REMARK  status: ('A' for Active; 'I' for Inactive)
REMARK    1  A    between atoms: C_2  and  C_12
REMARK    2  A    between atoms: C_12  and  N_13
REMARK                            x       y       z     vdW  Elec       q    Type
REMARK                         _______ _______ _______ _____ _____    ______ ____
ROOT
ATOM      1  C   UNL     1       1.655   4.195   0.008  0.00  0.00    +0.154 C 
ENDROOT
BRANCH   1   2
ATOM      2  N   UNL     1       0.717   3.070   0.013  0.00  0.00    -0.220 N 
ATOM      3  C   UNL     1      -0.627   3.203   0.011  0.00  0.00    +0.247 C 
ATOM      4  O   UNL     1      -1.265   4.234   0.006  0.00  0.00    -0.273 OA
ATOM      5  C   UNL     1      -1.165   1.794   0.011  0.00  0.00    +0.113 C 
ATOM      6  C   UNL     1      -2.038   1.541   1.247  0.00  0.00    +0.035 C 
ATOM      7  C   UNL     1      -3.488   1.720   0.725  0.00  0.00    +0.003 C 
ATOM      8  C   UNL     1      -3.420   1.109  -0.697  0.00  0.00    +0.003 C 
ATOM      9  C   UNL     1      -2.029   1.528  -1.224  0.00  0.00    +0.035 C 
ATOM     10  N   UNL     1       0.028   0.946   0.023  0.00  0.00    -0.285 N 
ATOM     11  C   UNL     1       1.085   1.783   0.020  0.00  0.00    +0.310 C 
ATOM     12  O   UNL     1       2.242   1.410   0.023  0.00  0.00    -0.252 OA
ATOM     13  H   UNL     1       0.053  -0.024   0.028  0.00  0.00    +0.151 HD
ENDBRANCH   1   2
BRANCH   1  15
ATOM     14  C   UNL     1       1.461   3.837  -2.461  0.00  0.00    +0.055 A 
ATOM     15  C   UNL     1       2.062   4.504  -1.410  0.00  0.00    -0.012 A 
ATOM     16  C   UNL     1       3.033   5.457  -1.657  0.00  0.00    +0.026 A 
ATOM     17  C   UNL     1       3.411   5.740  -2.957  0.00  0.00    +0.065 A 
ATOM     18  C   UNL     1       2.810   5.075  -4.016  0.00  0.00    +0.163 A 
ATOM     19  C   UNL     1       1.833   4.119  -3.766  0.00  0.00    +0.162 A 
ATOM     20  O   UNL     1       1.234   3.451  -4.790  0.00  0.00    -0.485 OA
ATOM     21  C   UNL     1       1.365   4.024  -6.096  0.00  0.00    +0.270 C 
ATOM     22  C   UNL     1       2.834   4.421  -6.301  0.00  0.00    +0.270 C 
ATOM     23  O   UNL     1       3.187   5.371  -5.290  0.00  0.00    -0.485 OA
ATOM     24 BR   UNL     1       3.848   6.371  -0.217  0.00  0.00    -0.050 Br
ENDBRANCH   1  15
TORSDOF 2
