REMARK  Name = ZINC32541802
REMARK  8 active torsions:
REMARK  status: ('A' for Active; 'I' for Inactive)
REMARK    1  A    between atoms: C_1  and  C_2
REMARK    2  A    between atoms: C_2  and  O_3
REMARK    3  A    between atoms: O_3  and  C_4
REMARK    4  A    between atoms: C_4  and  C_6
REMARK    5  A    between atoms: C_7  and  C_15
REMARK    6  A    between atoms: C_12  and  C_14
REMARK    7  A    between atoms: C_15  and  N_16
REMARK    8  A    between atoms: C_20  and  C_22
REMARK                            x       y       z     vdW  Elec       q    Type
REMARK                         _______ _______ _______ _____ _____    ______ ____
ROOT
ATOM      1  N   UNL     1      -5.593   3.372   4.706  0.00  0.00    +0.388 N 
ATOM      2  C   UNL     1      -5.553   3.962   3.351  0.00  0.00    -0.078 C 
ATOM      3  C   UNL     1      -5.615   5.492   3.583  0.00  0.00    -0.020 C 
ATOM      4  C   UNL     1      -4.760   5.649   4.869  0.00  0.00    -0.013 C 
ATOM      5  C   UNL     1      -5.099   4.373   5.669  0.00  0.00    -0.037 C 
ATOM      6  H   UNL     1      -6.627   3.093   4.961  0.00  0.00    -0.080 HD
ENDROOT
BRANCH   5   7
ATOM      7  C   UNL     1      -3.862   3.856   6.357  0.00  0.00    -0.057 A 
ATOM      8  C   UNL     1      -3.879   3.617   7.718  0.00  0.00    +0.006 A 
ATOM      9  C   UNL     1      -2.749   3.138   8.356  0.00  0.00    +0.049 A 
ATOM     10  C   UNL     1      -1.595   2.908   7.626  0.00  0.00    +0.162 A 
ATOM     11  C   UNL     1      -1.576   3.152   6.260  0.00  0.00    +0.162 A 
ATOM     12  C   UNL     1      -2.711   3.627   5.624  0.00  0.00    +0.051 A 
ATOM     13  O   UNL     1      -0.434   2.921   5.549  0.00  0.00    -0.488 OA
ATOM     14  C   UNL     1       0.662   3.794   5.828  0.00  0.00    +0.232 C 
ATOM     15  C   UNL     1       1.448   3.306   7.035  0.00  0.00    +0.082 C 
ATOM     16  C   UNL     1       0.627   3.349   8.315  0.00  0.00    +0.232 C 
ATOM     17  O   UNL     1      -0.472   2.438   8.243  0.00  0.00    -0.488 OA
ENDBRANCH   5   7
BRANCH   1  18
ATOM     18  C   UNL     1      -4.794   2.142   4.769  0.00  0.00    -0.026 C 
BRANCH  18  20
ATOM     19  C   UNL     1      -6.531   0.387   4.739  0.00  0.00    +0.072 C 
ATOM     20  C   UNL     1      -5.537   1.024   4.083  0.00  0.00    +0.007 C 
ATOM     21  N   UNL     1      -5.190   0.669   2.811  0.00  0.00    -0.274 N 
ATOM     22  C   UNL     1      -5.796  -0.306   2.122  0.00  0.00    +0.304 C 
ATOM     23  O   UNL     1      -5.421  -0.547   0.991  0.00  0.00    -0.253 OA
ATOM     24  N   UNL     1      -6.810  -1.028   2.639  0.00  0.00    -0.292 N 
ATOM     25  C   UNL     1      -7.256  -0.726   4.010  0.00  0.00    +0.110 C 
ATOM     26  C   UNL     1      -8.742  -0.363   3.953  0.00  0.00    +0.033 C 
ATOM     27  H   UNL     1      -4.372   1.193   2.297  0.00  0.00    +0.156 HD
ATOM     28  H   UNL     1      -7.301  -1.826   2.064  0.00  0.00    +0.151 HD
BRANCH  19  29
ATOM     29  C   UNL     1      -6.888   0.751   6.058  0.00  0.00    +0.338 C 
ATOM     30  O   UNL     1      -6.375   1.723   6.581  0.00  0.00    -0.245 OA
BRANCH  29  31
ATOM     31  O   UNL     1      -7.797   0.020   6.737  0.00  0.00    -0.462 OA
BRANCH  31  33
ATOM     32  C   UNL     1      -9.150  -0.498   8.671  0.00  0.00    +0.048 C 
ATOM     33  C   UNL     1      -8.109   0.445   8.066  0.00  0.00    +0.229 C 
ENDBRANCH  31  33
ENDBRANCH  29  31
ENDBRANCH  19  29
ENDBRANCH  18  20
ENDBRANCH   1  18
TORSDOF 6
