REMARK  Name = ZINC23451320
REMARK  10 active torsions:
REMARK  status: ('A' for Active; 'I' for Inactive)
REMARK    1  A    between atoms: C_1  and  C_2
REMARK    2  A    between atoms: C_6  and  C_7
REMARK    3  A    between atoms: N_12  and  C_15
REMARK    4  A    between atoms: C_15  and  C_16
REMARK    5  A    between atoms: C_16  and  C_18
REMARK    6  A    between atoms: C_16  and  O_29
REMARK    7  A    between atoms: C_22  and  N_24
REMARK    8  A    between atoms: O_29  and  C_30
REMARK    9  A    between atoms: C_30  and  C_31
REMARK   10  A    between atoms: C_34  and  C_37
REMARK                            x       y       z     vdW  Elec       q    Type
REMARK                         _______ _______ _______ _____ _____    ______ ____
ROOT
ATOM      1  C   UNL     1       2.050   2.084  -3.188  0.00  0.00    +0.132 C 
ENDROOT
BRANCH   1   2
ATOM      2  C   UNL     1       3.122   1.625  -4.141  0.00  0.00    -0.019 A 
ATOM      3  C   UNL     1       2.873   0.578  -5.010  0.00  0.00    +0.006 A 
ATOM      4  C   UNL     1       3.853   0.158  -5.891  0.00  0.00    +0.002 A 
ATOM      5  C   UNL     1       5.088   0.775  -5.898  0.00  0.00    +0.023 A 
ATOM      6  C   UNL     1       5.344   1.823  -5.023  0.00  0.00    +0.030 A 
ATOM      7  C   UNL     1       4.356   2.247  -4.143  0.00  0.00    +0.029 A 
BRANCH   6   8
ATOM      8  N   UNL     1       6.593   2.450  -5.027  0.00  0.00    -0.330 N 
ATOM      9  C   UNL     1       7.658   1.514  -4.584  0.00  0.00    +0.105 C 
ATOM     10  C   UNL     1       8.951   2.162  -5.140  0.00  0.00    +0.020 C 
ATOM     11  C   UNL     1       8.497   2.722  -6.507  0.00  0.00    +0.020 C 
ATOM     12  C   UNL     1       6.969   2.872  -6.393  0.00  0.00    +0.105 C 
ENDBRANCH   6   8
ENDBRANCH   1   2
BRANCH   1  13
ATOM     13  C   UNL     1       2.082   1.216  -1.928  0.00  0.00    -0.042 C 
BRANCH  13  19
ATOM     14  C   UNL     1      -0.269   3.483   2.405  0.00  0.00    +0.253 C 
ATOM     15  O   UNL     1      -0.167   2.872   3.453  0.00  0.00    -0.269 OA
ATOM     16  N   UNL     1      -0.160   2.831   1.231  0.00  0.00    -0.301 N 
ATOM     17  C   UNL     1      -0.021   1.367   1.191  0.00  0.00    +0.089 C 
ATOM     18  C   UNL     1       1.185   1.017   0.312  0.00  0.00    -0.059 C 
ATOM     19  N   UNL     1       1.036   1.664  -0.999  0.00  0.00    +0.384 N 
ATOM     20  C   UNL     1       1.033   3.127  -0.874  0.00  0.00    -0.059 C 
ATOM     21  C   UNL     1      -0.179   3.564  -0.044  0.00  0.00    +0.089 C 
ATOM     22  H   UNL     1       0.062   1.361  -1.412  0.00  0.00    -0.082 HD
BRANCH  14  28
ATOM     23  C   UNL     1       0.746   5.492   4.537  0.00  0.00    +0.045 C 
ATOM     24  C   UNL     1      -0.086   5.875   3.341  0.00  0.00    -0.031 A 
ATOM     25  C   UNL     1      -0.455   7.178   3.113  0.00  0.00    +0.011 A 
ATOM     26  C   UNL     1      -1.212   7.472   2.023  0.00  0.00    +0.046 A 
ATOM     27  S   UNL     1      -1.432   5.928   1.266  0.00  0.00    -0.092 S 
ATOM     28  C   UNL     1      -0.510   4.929   2.421  0.00  0.00    +0.077 A 
ENDBRANCH  14  28
ENDBRANCH  13  19
ENDBRANCH   1  13
BRANCH   1  29
ATOM     29  O   UNL     1       0.771   1.965  -3.816  0.00  0.00    -0.369 OA
BRANCH  29  30
ATOM     30  C   UNL     1       0.364   3.134  -4.530  0.00  0.00    +0.195 C 
BRANCH  30  31
ATOM     31  C   UNL     1      -0.990   2.898  -5.149  0.00  0.00    -0.022 A 
ATOM     32  C   UNL     1      -1.082   2.373  -6.426  0.00  0.00    +0.007 A 
ATOM     33  C   UNL     1      -2.318   2.150  -6.996  0.00  0.00    +0.019 A 
ATOM     34  C   UNL     1      -3.478   2.465  -6.286  0.00  0.00    +0.052 A 
ATOM     35  C   UNL     1      -3.378   3.000  -5.000  0.00  0.00    +0.019 A 
ATOM     36  C   UNL     1      -2.135   3.213  -4.439  0.00  0.00    +0.007 A 
BRANCH  34  37
ATOM     37  C   UNL     1      -4.764   2.241  -6.873  0.00  0.00    +0.099 C 
ATOM     38  N   UNL     1      -5.785   2.063  -7.339  0.00  0.00    -0.191 NA
ENDBRANCH  34  37
ENDBRANCH  30  31
ENDBRANCH  29  30
ENDBRANCH   1  29
TORSDOF 9
