REMARK  Name = ZINC08568147
REMARK  6 active torsions:
REMARK  status: ('A' for Active; 'I' for Inactive)
REMARK    1  A    between atoms: C_1  and  O_2
REMARK    2  A    between atoms: O_2  and  C_3
REMARK    3  A    between atoms: C_7  and  C_9
REMARK    4  A    between atoms: C_12  and  C_23
REMARK    5  A    between atoms: C_18  and  N_22
REMARK    6  A    between atoms: C_19  and  C_20
REMARK                            x       y       z     vdW  Elec       q    Type
REMARK                         _______ _______ _______ _____ _____    ______ ____
ROOT
ATOM      1  C   UNL     1       1.325  -4.106  -2.289  0.00  0.00    +0.102 C 
ATOM      2  C   UNL     1       0.638  -4.572  -3.546  0.00  0.00    +0.056 A 
ATOM      3  C   UNL     1      -0.726  -4.595  -3.852  0.00  0.00    +0.118 A 
ATOM      4  N   UNL     1      -0.860  -5.085  -5.071  0.00  0.00    -0.169 NA
ATOM      5  N   UNL     1       0.417  -5.386  -5.569  0.00  0.00    -0.246 N 
ATOM      6  H   UNL     1       0.615  -5.758  -6.443  0.00  0.00    +0.192 HD
ATOM      7  C   UNL     1       1.321  -5.065  -4.620  0.00  0.00    +0.223 A 
ATOM      8  O   UNL     1       2.672  -5.178  -4.640  0.00  0.00    -0.423 OA
ATOM      9  C   UNL     1       3.327  -5.048  -3.468  0.00  0.00    +0.200 C 
ATOM     10  C   UNL     1       2.763  -4.561  -2.340  0.00  0.00    +0.098 C 
ENDROOT
BRANCH   1  15
ATOM     11  C   UNL     1       0.606  -0.607  -1.056  0.00  0.00    +0.120 A 
ATOM     12  C   UNL     1       1.173   0.161  -2.063  0.00  0.00    +0.045 A 
ATOM     13  C   UNL     1       1.786  -0.455  -3.136  0.00  0.00    +0.004 A 
ATOM     14  C   UNL     1       1.836  -1.835  -3.208  0.00  0.00    +0.005 A 
ATOM     15  C   UNL     1       1.271  -2.602  -2.207  0.00  0.00    -0.031 A 
ATOM     16  C   UNL     1       0.661  -1.991  -1.128  0.00  0.00    +0.050 A 
BRANCH  11  18
ATOM     17  C   UNL     1      -0.017   1.425   0.010  0.00  0.00    +0.277 C 
ATOM     18  O   UNL     1       0.002  -0.004   0.002  0.00  0.00    -0.495 OA
ENDBRANCH  11  18
ENDBRANCH   1  15
BRANCH   3  19
ATOM     19  C   UNL     1      -1.827  -4.149  -2.965  0.00  0.00    +0.091 A 
ATOM     20  C   UNL     1      -3.038  -3.737  -3.519  0.00  0.00    +0.030 A 
ATOM     21  C   UNL     1      -4.056  -3.323  -2.678  0.00  0.00    +0.004 A 
ATOM     22  C   UNL     1      -3.830  -3.335  -1.308  0.00  0.00    +0.020 A 
ATOM     23  C   UNL     1      -2.605  -3.756  -0.827  0.00  0.00    +0.111 A 
ATOM     24  N   UNL     1      -1.654  -4.150  -1.649  0.00  0.00    -0.253 NA
ENDBRANCH   3  19
BRANCH   9  25
ATOM     25  N   UNL     1       4.644  -5.432  -3.418  0.00  0.00    -0.328 N 
ATOM     26  H   UNL     1       5.077  -5.786  -4.210  0.00  0.00    +0.145 HD
ATOM     27  H   UNL     1       5.142  -5.351  -2.589  0.00  0.00    +0.145 HD
ENDBRANCH   9  25
BRANCH  10  28
ATOM     28  C   UNL     1       3.557  -4.473  -1.152  0.00  0.00    +0.101 C 
ATOM     29  N   UNL     1       4.187  -4.404  -0.209  0.00  0.00    -0.191 NA
ENDBRANCH  10  28
TORSDOF 5
