REMARK  Name = ZINC00936857
REMARK  7 active torsions:
REMARK  status: ('A' for Active; 'I' for Inactive)
REMARK    1  A    between atoms: C_1  and  C_2
REMARK    2  A    between atoms: C_3  and  C_23
REMARK    3  A    between atoms: C_4  and  C_12
REMARK    4  A    between atoms: C_14  and  O_21
REMARK    5  A    between atoms: C_15  and  O_19
REMARK    6  A    between atoms: O_19  and  C_20
REMARK    7  A    between atoms: O_21  and  C_22
REMARK                            x       y       z     vdW  Elec       q    Type
REMARK                         _______ _______ _______ _____ _____    ______ ____
ROOT
ATOM      1  C   UNL     1       0.647   1.230   0.150  0.00  0.00    +0.066 C 
ATOM      2  C   UNL     1       0.393  -0.252   0.058  0.00  0.00    +0.052 C 
ATOM      3  C   UNL     1      -0.878  -0.693  -0.183  0.00  0.00    +0.061 C 
ATOM      4  C   UNL     1      -1.086  -2.195  -0.268  0.00  0.00    +0.164 C 
ATOM      5  N   UNL     1       0.110  -3.023  -0.080  0.00  0.00    -0.208 N 
ATOM      6  C   UNL     1       1.315  -2.407   0.155  0.00  0.00    +0.237 C 
ATOM      7  N   UNL     1       1.409  -1.089   0.208  0.00  0.00    -0.218 NA
ATOM      8  N   UNL     1       2.236  -3.381   0.288  0.00  0.00    -0.205 NA
ATOM      9  C   UNL     1       1.677  -4.555   0.151  0.00  0.00    +0.203 C 
ATOM     10  N   UNL     1       0.353  -4.399  -0.080  0.00  0.00    -0.251 N 
ATOM     11  H   UNL     1      -0.299  -5.103  -0.219  0.00  0.00    +0.171 HD
ENDROOT
BRANCH   4  12
ATOM     12  C   UNL     1      -1.665  -2.513  -1.622  0.00  0.00    -0.016 A 
ATOM     13  C   UNL     1      -2.983  -2.918  -1.731  0.00  0.00    +0.055 A 
ATOM     14  C   UNL     1      -3.518  -3.211  -2.975  0.00  0.00    +0.163 A 
ATOM     15  C   UNL     1      -2.726  -3.096  -4.114  0.00  0.00    +0.175 A 
ATOM     16  C   UNL     1      -1.406  -2.690  -3.998  0.00  0.00    +0.063 A 
ATOM     17  C   UNL     1      -0.880  -2.394  -2.753  0.00  0.00    +0.025 A 
ATOM     18 BR   UNL     1      -0.326  -2.533  -5.543  0.00  0.00    -0.046 Br
BRANCH  15  19
ATOM     19  O   UNL     1      -3.246  -3.383  -5.337  0.00  0.00    -0.490 OA
ATOM     20  C   UNL     1      -3.857  -2.307  -6.051  0.00  0.00    +0.277 C 
ENDBRANCH  15  19
BRANCH  14  21
ATOM     21  O   UNL     1      -4.813  -3.610  -3.083  0.00  0.00    -0.491 OA
ATOM     22  C   UNL     1      -5.566  -3.705  -1.873  0.00  0.00    +0.277 C 
ENDBRANCH  14  21
ENDBRANCH   4  12
BRANCH   3  23
ATOM     23  C   UNL     1      -1.948   0.207  -0.345  0.00  0.00    +0.241 C 
ATOM     24  O   UNL     1      -1.735   1.406  -0.387  0.00  0.00    -0.271 OA
ATOM     25  N   UNL     1      -3.208  -0.258  -0.454  0.00  0.00    -0.325 N 
ATOM     26  H   UNL     1      -3.387  -1.205  -0.344  0.00  0.00    +0.145 HD
ATOM     27  H   UNL     1      -3.937   0.354  -0.643  0.00  0.00    +0.145 HD
ENDBRANCH   3  23
TORSDOF 4
