REMARK  Name = ZINC16695065
REMARK  10 active torsions:
REMARK  status: ('A' for Active; 'I' for Inactive)
REMARK    1  A    between atoms: C_1  and  C_2
REMARK    2  A    between atoms: C_2  and  C_4
REMARK    3  A    between atoms: C_2  and  N_54
REMARK    4  A    between atoms: C_7  and  S_10
REMARK    5  A    between atoms: S_10  and  N_13
REMARK    6  A    between atoms: C_14  and  N_54
REMARK    7  A    between atoms: C_15  and  C_16
REMARK    8  A    between atoms: C_15  and  N_54
REMARK    9  A    between atoms: N_18  and  C_19
REMARK   10  A    between atoms: C_19  and  C_20
REMARK                            x       y       z     vdW  Elec       q    Type
REMARK                         _______ _______ _______ _____ _____    ______ ____
ROOT
ATOM      1  C   UNL     1      -0.233  -2.371  -1.105  0.00  0.00    -0.095 C 
ATOM      2  N   UNL     1      -0.974  -2.195   0.162  0.00  0.00    +0.388 N 
ATOM      3  H   UNL     1      -0.359  -2.443   0.945  0.00  0.00    -0.081 HD
ENDROOT
BRANCH   2   5
ATOM      4  C   UNL     1      -3.005  -2.871  -1.075  0.00  0.00    -0.008 C 
ATOM      5  C   UNL     1      -2.158  -3.079   0.182  0.00  0.00    -0.041 C 
BRANCH   5   6
ATOM      6  C   UNL     1      -1.693  -4.512   0.243  0.00  0.00    -0.061 A 
ATOM      7  C   UNL     1      -2.428  -5.504  -0.379  0.00  0.00    +0.004 A 
ATOM      8  C   UNL     1      -2.000  -6.817  -0.327  0.00  0.00    +0.029 A 
ATOM      9  C   UNL     1      -0.842  -7.140   0.356  0.00  0.00    +0.105 A 
ATOM     10  C   UNL     1      -0.109  -6.148   0.982  0.00  0.00    +0.029 A 
ATOM     11  C   UNL     1      -0.535  -4.834   0.926  0.00  0.00    +0.004 A 
BRANCH   9  12
ATOM     12  S   UNL     1      -0.299  -8.814   0.428  0.00  0.00    +0.056 S 
ATOM     13  O   UNL     1      -0.864  -9.473  -0.697  0.00  0.00    -0.153 OA
ATOM     14  O   UNL     1       1.102  -8.778   0.665  0.00  0.00    -0.153 OA
BRANCH  12  15
ATOM     15  N   UNL     1      -0.988  -9.495   1.771  0.00  0.00    -0.204 NA
ATOM     16  H   UNL     1      -1.194 -10.443   1.784  0.00  0.00    +0.144 HD
ATOM     17  H   UNL     1      -1.187  -8.945   2.546  0.00  0.00    +0.144 HD
ENDBRANCH  12  15
ENDBRANCH   9  12
ENDBRANCH   5   6
ENDBRANCH   2   5
BRANCH   2  18
ATOM     18  C   UNL     1      -1.394  -0.785   0.310  0.00  0.00    +0.019 C 
BRANCH  18  19
ATOM     19  C   UNL     1      -0.169   0.069   0.507  0.00  0.00    +0.197 C 
ATOM     20  O   UNL     1       0.932  -0.440   0.507  0.00  0.00    -0.278 OA
ATOM     21  N   UNL     1      -0.296   1.399   0.684  0.00  0.00    -0.313 N 
ATOM     22  H   UNL     1      -1.176   1.807   0.681  0.00  0.00    +0.149 HD
BRANCH  21  23
ATOM     23  C   UNL     1       0.896   2.230   0.876  0.00  0.00    +0.152 C 
BRANCH  23  24
ATOM     24  C   UNL     1       0.476   3.690   1.053  0.00  0.00    +0.228 C 
ATOM     25  C   UNL     1       1.723   4.580   1.144  0.00  0.00    +0.275 C 
ATOM     26  O   UNL     1       1.295   5.935   1.323  0.00  0.00    -0.485 OA
ATOM     27  C   UNL     1       0.324   6.152   2.252  0.00  0.00    +0.162 A 
ATOM     28  C   UNL     1       0.116   7.437   2.731  0.00  0.00    +0.049 A 
ATOM     29  C   UNL     1      -0.870   7.675   3.670  0.00  0.00    +0.004 A 
ATOM     30  C   UNL     1      -1.651   6.633   4.134  0.00  0.00    +0.004 A 
ATOM     31  C   UNL     1      -1.448   5.350   3.662  0.00  0.00    +0.049 A 
ATOM     32  C   UNL     1      -0.459   5.104   2.721  0.00  0.00    +0.163 A 
ATOM     33  O   UNL     1      -0.269   3.835   2.268  0.00  0.00    -0.480 OA
ENDBRANCH  23  24
ENDBRANCH  21  23
ENDBRANCH  18  19
ENDBRANCH   2  18
TORSDOF 8
