REMARK  Name = ZINC33447342
REMARK  7 active torsions:
REMARK  status: ('A' for Active; 'I' for Inactive)
REMARK    1  A    between atoms: C_1  and  C_2
REMARK    2  A    between atoms: C_7  and  C_8
REMARK    3  A    between atoms: N_16  and  C_19
REMARK    4  A    between atoms: C_23  and  N_25
REMARK    5  A    between atoms: C_28  and  C_30
REMARK    6  A    between atoms: C_28  and  C_37
REMARK    7  A    between atoms: C_30  and  C_31
REMARK                            x       y       z     vdW  Elec       q    Type
REMARK                         _______ _______ _______ _____ _____    ______ ____
ROOT
ATOM      1  C   UNL     1       0.242   0.057   2.487  0.00  0.00    +0.098 C 
ATOM      2  C   UNL     1       1.640   0.634   2.638  0.00  0.00    +0.111 C 
ATOM      3  C   UNL     1       2.344  -0.624   3.278  0.00  0.00    +0.121 C 
ATOM      4  C   UNL     1       3.737  -0.305   3.094  0.00  0.00    +0.232 C 
ATOM      5  O   UNL     1       4.661  -0.584   3.828  0.00  0.00    -0.274 OA
ATOM      6  N   UNL     1       3.793   0.382   1.907  0.00  0.00    -0.210 N 
ATOM      7  C   UNL     1       2.554   0.787   1.462  0.00  0.00    +0.232 C 
ATOM      8  O   UNL     1       2.258   1.180   0.354  0.00  0.00    -0.274 OA
ATOM      9  C   UNL     1       1.400  -0.990   4.348  0.00  0.00    +0.138 C 
ATOM     10  N   UNL     1       0.065  -0.875   3.642  0.00  0.00    -0.293 NA
ATOM     11  H   UNL     1      -0.646  -0.537   4.273  0.00  0.00    +0.124 HD
ENDROOT
BRANCH   1  18
ATOM     12  C   UNL     1      -0.668   1.417   0.107  0.00  0.00    +0.044 C 
ATOM     13  C   UNL     1      -0.309  -0.045   0.048  0.00  0.00    -0.046 A 
ATOM     14  C   UNL     1      -0.409  -0.734  -1.146  0.00  0.00    +0.003 A 
ATOM     15  C   UNL     1      -0.080  -2.075  -1.200  0.00  0.00    +0.000 A 
ATOM     16  C   UNL     1       0.351  -2.728  -0.059  0.00  0.00    +0.000 A 
ATOM     17  C   UNL     1       0.453  -2.038   1.134  0.00  0.00    +0.005 A 
ATOM     18  C   UNL     1       0.127  -0.696   1.187  0.00  0.00    -0.027 A 
ENDBRANCH   1  18
BRANCH   6  19
ATOM     19  C   UNL     1       4.985   0.654   1.221  0.00  0.00    +0.046 A 
ATOM     20  C   UNL     1       6.198   0.217   1.736  0.00  0.00    +0.024 A 
ATOM     21  C   UNL     1       7.371   0.487   1.059  0.00  0.00    +0.004 A 
ATOM     22  C   UNL     1       7.338   1.192  -0.131  0.00  0.00    +0.033 A 
ATOM     23  C   UNL     1       6.132   1.629  -0.645  0.00  0.00    +0.128 A 
ATOM     24  C   UNL     1       4.955   1.356   0.025  0.00  0.00    +0.056 A 
BRANCH  23  25
ATOM     25  N   UNL     1       6.101   2.383  -1.918  0.00  0.00    +0.056 N 
ATOM     26  O   UNL     1       7.130   2.617  -2.508  0.00  0.00    -0.126 OA
ATOM     27  O   UNL     1       5.046   2.765  -2.369  0.00  0.00    -0.126 OA
ENDBRANCH  23  25
ENDBRANCH   6  19
BRANCH   9  28
ATOM     28  C   UNL     1       1.500  -0.026   5.503  0.00  0.00    +0.377 C 
ATOM     29  O   UNL     1       0.524   0.622   5.841  0.00  0.00    -0.244 OA
ATOM     30  O   UNL     1       2.556   0.106   6.098  0.00  0.00    -0.244 OA
ENDBRANCH   9  28
BRANCH   9  31
ATOM     31  C   UNL     1       1.638  -2.427   4.816  0.00  0.00    +0.069 C 
BRANCH  31  32
ATOM     32  C   UNL     1       0.582  -2.810   5.820  0.00  0.00    -0.045 A 
ATOM     33  C   UNL     1       0.792  -2.577   7.167  0.00  0.00    +0.004 A 
ATOM     34  C   UNL     1      -0.177  -2.928   8.088  0.00  0.00    +0.000 A 
ATOM     35  C   UNL     1      -1.355  -3.512   7.663  0.00  0.00    +0.000 A 
ATOM     36  C   UNL     1      -1.566  -3.744   6.317  0.00  0.00    +0.000 A 
ATOM     37  C   UNL     1      -0.599  -3.389   5.395  0.00  0.00    +0.004 A 
ENDBRANCH  31  32
ENDBRANCH   9  31
TORSDOF 6
