REMARK  Name = ZINC42909069
REMARK  15 active torsions:
REMARK  status: ('A' for Active; 'I' for Inactive)
REMARK    1  A    between atoms: C_1  and  C_2
REMARK    2  A    between atoms: C_2  and  O_3
REMARK    3  A    between atoms: O_3  and  C_4
REMARK    4  A    between atoms: N_6  and  C_7
REMARK    5  A    between atoms: C_7  and  C_9
REMARK    6  A    between atoms: C_7  and  C_13
REMARK    7  A    between atoms: C_9  and  C_10
REMARK    8  A    between atoms: C_10  and  C_11
REMARK    9  A    between atoms: C_10  and  C_12
REMARK   10  A    between atoms: C_13  and  N_14
REMARK   11  A    between atoms: N_17  and  C_18
REMARK   12  A    between atoms: C_20  and  C_26
REMARK   13  A    between atoms: C_20  and  C_27
REMARK   14  A    between atoms: C_22  and  C_24
REMARK   15  A    between atoms: C_22  and  C_25
REMARK                            x       y       z     vdW  Elec       q    Type
REMARK                         _______ _______ _______ _____ _____    ______ ____
ROOT
ATOM      1  N   UNL     1      -4.603  -3.450   1.761  0.00  0.00    -0.298 N 
ATOM      2  C   UNL     1      -5.732  -3.605   2.481  0.00  0.00    +0.300 C 
ATOM      3  O   UNL     1      -6.683  -4.191   2.001  0.00  0.00    -0.253 OA
ATOM      4  N   UNL     1      -5.806  -3.111   3.733  0.00  0.00    -0.297 N 
ATOM      5  H   UNL     1      -3.844  -2.982   2.143  0.00  0.00    +0.150 HD
ATOM      6  H   UNL     1      -5.047  -2.644   4.115  0.00  0.00    +0.151 HD
ENDROOT
BRANCH   4   7
ATOM      7  C   UNL     1      -7.035  -3.281   4.517  0.00  0.00    +0.072 C 
ATOM      8  C   UNL     1      -7.995  -2.132   4.201  0.00  0.00    +0.009 C 
ATOM      9  C   UNL     1      -9.277  -2.288   5.020  0.00  0.00    -0.072 C 
ATOM     10  N   UNL     1      -9.005  -2.412   6.445  0.00  0.00    +0.386 N 
ATOM     11  C   UNL     1      -7.957  -3.334   6.855  0.00  0.00    -0.072 C 
ATOM     12  C   UNL     1      -6.695  -3.225   6.006  0.00  0.00    +0.009 C 
ATOM     13  C   UNL     1      -8.452  -4.783   6.871  0.00  0.00    -0.010 C 
ATOM     14  C   UNL     1      -7.566  -2.975   8.308  0.00  0.00    -0.010 C 
ATOM     15  C   UNL     1     -10.105  -3.457   4.488  0.00  0.00    -0.010 C 
ATOM     16  C   UNL     1     -10.111  -1.003   4.814  0.00  0.00    -0.010 C 
ATOM     17  H   UNL     1      -8.778  -1.484   6.810  0.00  0.00    -0.084 HD
ATOM     18  H   UNL     1      -9.873  -2.681   6.915  0.00  0.00    -0.084 HD
ENDBRANCH   4   7
BRANCH   1  19
ATOM     19  C   UNL     1      -4.523  -3.987   0.400  0.00  0.00    +0.128 C 
BRANCH  19  20
ATOM     20  C   UNL     1      -3.146  -3.676  -0.190  0.00  0.00    +0.093 C 
BRANCH  20  23
ATOM     21  C   UNL     1      -1.631  -1.770  -0.087  0.00  0.00    +0.401 C 
ATOM     22  O   UNL     1      -0.698  -2.547  -0.124  0.00  0.00    -0.226 OA
ATOM     23  N   UNL     1      -2.896  -2.234  -0.115  0.00  0.00    -0.277 N 
ATOM     24  H   UNL     1      -3.641  -1.614  -0.086  0.00  0.00    +0.152 HD
BRANCH  21  25
ATOM     25  O   UNL     1      -1.402  -0.445  -0.019  0.00  0.00    -0.451 OA
BRANCH  25  27
ATOM     26  C   UNL     1       0.024   1.504   0.086  0.00  0.00    +0.048 C 
ATOM     27  C   UNL     1      -0.037  -0.023   0.007  0.00  0.00    +0.230 C 
ENDBRANCH  25  27
ENDBRANCH  21  25
ENDBRANCH  20  23
BRANCH  20  28
ATOM     28  C   UNL     1      -3.104  -4.126  -1.652  0.00  0.00    +0.027 C 
BRANCH  28  29
ATOM     29  C   UNL     1      -1.691  -3.930  -2.206  0.00  0.00    -0.015 C 
ATOM     30  C   UNL     1      -0.722  -4.857  -1.469  0.00  0.00    +0.007 C 
ATOM     31  C   UNL     1      -1.679  -4.261  -3.699  0.00  0.00    +0.007 C 
ENDBRANCH  28  29
ENDBRANCH  20  28
ENDBRANCH  19  20
ENDBRANCH   1  19
TORSDOF 8
