REMARK  Name = ZINC40825858
REMARK  9 active torsions:
REMARK  status: ('A' for Active; 'I' for Inactive)
REMARK    1  A    between atoms: C_1  and  C_2
REMARK    2  A    between atoms: C_2  and  O_3
REMARK    3  A    between atoms: O_3  and  C_4
REMARK    4  A    between atoms: C_4  and  C_6
REMARK    5  A    between atoms: C_9  and  N_12
REMARK    6  A    between atoms: C_13  and  C_15
REMARK    7  A    between atoms: C_16  and  C_38
REMARK    8  A    between atoms: N_24  and  N_25
REMARK    9  A    between atoms: C_26  and  C_28
REMARK                            x       y       z     vdW  Elec       q    Type
REMARK                         _______ _______ _______ _____ _____    ______ ____
ROOT
ATOM      1  C   UNL     1       4.326  -5.760  -7.126  0.00  0.00    +0.193 A 
ATOM      2  C   UNL     1       4.584  -7.082  -7.360  0.00  0.00    +0.009 A 
ATOM      3  C   UNL     1       5.344  -7.130  -8.535  0.00  0.00    +0.042 A 
ATOM      4  C   UNL     1       5.519  -5.837  -8.967  0.00  0.00    +0.115 A 
ATOM      5  O   UNL     1       4.895  -5.030  -8.113  0.00  0.00    -0.454 OA
ATOM      6  C   UNL     1       6.297  -5.485 -10.210  0.00  0.00    +0.075 C 
ATOM      7  C   UNL     1       7.232  -6.643 -10.569  0.00  0.00    +0.014 C 
ATOM      8  C   UNL     1       6.454  -7.960 -10.655  0.00  0.00    +0.058 C 
ATOM      9  C   UNL     1       5.908  -8.283  -9.272  0.00  0.00    +0.070 C 
ATOM     10  N   UNL     1       5.936  -9.481  -8.775  0.00  0.00    -0.184 NA
ATOM     11  C   UNL     1       4.141  -8.252  -6.520  0.00  0.00    +0.048 C 
ENDROOT
BRANCH   1  13
ATOM     12  N   UNL     1       3.367  -3.894  -5.883  0.00  0.00    -0.279 N 
ATOM     13  C   UNL     1       3.557  -5.223  -5.998  0.00  0.00    +0.284 C 
ATOM     14  O   UNL     1       3.089  -5.979  -5.167  0.00  0.00    -0.266 OA
ATOM     15  H   UNL     1       3.673  -3.298  -6.585  0.00  0.00    +0.155 HD
BRANCH  12  19
ATOM     16  C   UNL     1       1.469  -2.345  -2.516  0.00  0.00    +0.059 A 
ATOM     17  C   UNL     1       1.298  -1.732  -3.761  0.00  0.00    +0.017 A 
ATOM     18  C   UNL     1       1.927  -2.247  -4.872  0.00  0.00    +0.024 A 
ATOM     19  C   UNL     1       2.732  -3.376  -4.757  0.00  0.00    +0.034 A 
ATOM     20  C   UNL     1       2.905  -3.989  -3.519  0.00  0.00    +0.024 A 
ATOM     21  C   UNL     1       2.284  -3.476  -2.403  0.00  0.00    +0.017 A 
BRANCH  16  22
ATOM     22  C   UNL     1       0.797  -1.797  -1.324  0.00  0.00    +0.339 C 
ATOM     23  O   UNL     1       0.951  -2.328  -0.241  0.00  0.00    -0.245 OA
BRANCH  22  24
ATOM     24  O   UNL     1       0.012  -0.707  -1.434  0.00  0.00    -0.461 OA
BRANCH  24  26
ATOM     25  C   UNL     1      -1.453   1.004  -0.559  0.00  0.00    +0.048 C 
ATOM     26  C   UNL     1      -0.608  -0.230  -0.238  0.00  0.00    +0.229 C 
ENDBRANCH  24  26
ENDBRANCH  22  24
ENDBRANCH  16  22
ENDBRANCH  12  19
ENDBRANCH   1  13
BRANCH  10  27
ATOM     27  N   UNL     1       6.483 -10.535  -9.518  0.00  0.00    -0.201 N 
ATOM     28  C   UNL     1       6.512 -11.780  -9.002  0.00  0.00    +0.282 C 
ATOM     29  O   UNL     1       6.064 -11.988  -7.891  0.00  0.00    -0.267 OA
ATOM     30  H   UNL     1       6.840 -10.369 -10.405  0.00  0.00    +0.178 HD
BRANCH  28  31
ATOM     31  C   UNL     1       7.090 -12.895  -9.788  0.00  0.00    +0.128 A 
ATOM     32  C   UNL     1       7.107 -14.185  -9.238  0.00  0.00    +0.034 A 
ATOM     33  C   UNL     1       7.636 -15.221  -9.952  0.00  0.00    +0.012 A 
ATOM     34  C   UNL     1       8.153 -14.951 -11.234  0.00  0.00    +0.000 A 
ATOM     35  C   UNL     1       8.712 -15.969 -12.023  0.00  0.00    +0.010 A 
ATOM     36  C   UNL     1       9.202 -15.671 -13.258  0.00  0.00    +0.001 A 
ATOM     37  C   UNL     1       9.157 -14.368 -13.751  0.00  0.00    +0.002 A 
ATOM     38  C   UNL     1       8.623 -13.357 -13.015  0.00  0.00    +0.028 A 
ATOM     39  C   UNL     1       8.106 -13.624 -11.733  0.00  0.00    +0.072 A 
ATOM     40  N   UNL     1       7.572 -12.652 -10.992  0.00  0.00    -0.242 NA
ENDBRANCH  28  31
ENDBRANCH  10  27
TORSDOF 7
