REMARK  Name = ZINC35863248
REMARK  11 active torsions:
REMARK  status: ('A' for Active; 'I' for Inactive)
REMARK    1  A    between atoms: C_1  and  C_2
REMARK    2  A    between atoms: C_5  and  C_8
REMARK    3  A    between atoms: C_12  and  O_25
REMARK    4  A    between atoms: C_19  and  C_21
REMARK    5  A    between atoms: C_21  and  C_22
REMARK    6  A    between atoms: C_22  and  C_23
REMARK    7  A    between atoms: C_22  and  C_24
REMARK    8  A    between atoms: O_25  and  C_26
REMARK    9  A    between atoms: C_26  and  C_27
REMARK   10  A    between atoms: C_30  and  C_32
REMARK   11  A    between atoms: N_37  and  C_40
REMARK                            x       y       z     vdW  Elec       q    Type
REMARK                         _______ _______ _______ _____ _____    ______ ____
ROOT
ATOM      1  C   UNL     1       0.684  -5.315   0.428  0.00  0.00    +0.137 C 
ATOM      2  C   UNL     1      -0.734  -5.692   0.777  0.00  0.00    -0.016 A 
ATOM      3  C   UNL     1      -1.760  -5.003   0.146  0.00  0.00    +0.051 A 
ATOM      4  C   UNL     1      -3.082  -5.311   0.417  0.00  0.00    +0.121 A 
ATOM      5  C   UNL     1      -3.380  -6.317   1.325  0.00  0.00    +0.046 A 
ATOM      6  C   UNL     1      -2.358  -6.997   1.952  0.00  0.00    +0.007 A 
ATOM      7  C   UNL     1      -1.030  -6.684   1.685  0.00  0.00    -0.040 A 
ATOM      8  C   UNL     1       0.030  -7.452   2.430  0.00  0.00    +0.054 C 
ATOM      9  C   UNL     1       1.376  -7.358   1.714  0.00  0.00    +0.113 C 
ATOM     10  N   UNL     1       1.609  -5.944   1.377  0.00  0.00    -0.290 N 
ATOM     11  C   UNL     1       2.634  -5.255   1.918  0.00  0.00    +0.217 C 
ATOM     12  O   UNL     1       2.764  -4.074   1.677  0.00  0.00    -0.276 OA
ENDROOT
BRANCH   1  17
ATOM     13  C   UNL     1       1.269   0.428   0.696  0.00  0.00    +0.044 C 
ATOM     14  C   UNL     1       1.116  -1.070   0.626  0.00  0.00    -0.050 A 
ATOM     15  C   UNL     1       0.636  -1.767   1.718  0.00  0.00    +0.004 A 
ATOM     16  C   UNL     1       0.496  -3.141   1.655  0.00  0.00    +0.006 A 
ATOM     17  C   UNL     1       0.836  -3.817   0.498  0.00  0.00    -0.023 A 
ATOM     18  C   UNL     1       1.315  -3.120  -0.595  0.00  0.00    +0.006 A 
ATOM     19  C   UNL     1       1.451  -1.746  -0.533  0.00  0.00    +0.004 A 
ENDBRANCH   1  17
BRANCH  11  20
ATOM     20  C   UNL     1       3.617  -5.953   2.822  0.00  0.00    +0.099 C 
BRANCH  20  21
ATOM     21  C   UNL     1       4.673  -4.952   3.297  0.00  0.00    -0.008 C 
ATOM     22  C   UNL     1       4.008  -3.885   4.169  0.00  0.00    +0.008 C 
ATOM     23  C   UNL     1       5.740  -5.685   4.112  0.00  0.00    +0.008 C 
ENDBRANCH  20  21
ENDBRANCH  11  20
BRANCH   4  24
ATOM     24  O   UNL     1      -4.083  -4.631  -0.202  0.00  0.00    -0.484 OA
BRANCH  24  25
ATOM     25  C   UNL     1      -5.422  -5.005   0.128  0.00  0.00    +0.303 C 
BRANCH  25  26
ATOM     26  C   UNL     1      -6.388  -4.149  -0.650  0.00  0.00    +0.143 A 
ATOM     27  C   UNL     1      -6.893  -4.441  -1.869  0.00  0.00    +0.049 A 
ATOM     28  C   UNL     1      -7.747  -3.386  -2.227  0.00  0.00    +0.055 A 
ATOM     29  C   UNL     1      -7.720  -2.493  -1.194  0.00  0.00    +0.190 A 
ATOM     30  O   UNL     1      -6.893  -2.977  -0.244  0.00  0.00    -0.452 OA
BRANCH  29  31
ATOM     31  C   UNL     1      -8.464  -1.231  -1.128  0.00  0.00    +0.282 C 
ATOM     32  O   UNL     1      -9.283  -0.961  -1.986  0.00  0.00    -0.267 OA
ATOM     33  N   UNL     1      -8.241  -0.370  -0.115  0.00  0.00    -0.299 N 
ATOM     34  C   UNL     1      -7.306  -0.705   0.970  0.00  0.00    +0.089 C 
ATOM     35  C   UNL     1      -6.332   0.464   1.150  0.00  0.00    -0.060 C 
ATOM     36  N   UNL     1      -7.090   1.704   1.364  0.00  0.00    +0.380 N 
ATOM     37  C   UNL     1      -7.873   2.024   0.164  0.00  0.00    -0.060 C 
ATOM     38  C   UNL     1      -8.920   0.934  -0.068  0.00  0.00    +0.089 C 
ATOM     39  C   UNL     1      -6.157   2.804   1.645  0.00  0.00    -0.096 C 
ATOM     40  H   UNL     1      -7.712   1.585   2.149  0.00  0.00    -0.082 HD
ENDBRANCH  29  31
ENDBRANCH  25  26
ENDBRANCH  24  25
ENDBRANCH   4  24
TORSDOF 7
