REMARK  Name = ZINC57337813
REMARK  2 active torsions:
REMARK  status: ('A' for Active; 'I' for Inactive)
REMARK    1  A    between atoms: C_11  and  C_13
REMARK    2  A    between atoms: C_13  and  N_14
REMARK                            x       y       z     vdW  Elec       q    Type
REMARK                         _______ _______ _______ _____ _____    ______ ____
ROOT
ATOM      1  C   UNL     1      -1.103  -1.878   0.944  0.00  0.00    +0.212 C 
ENDROOT
BRANCH   1  12
ATOM      2  C   UNL     1       3.335  -5.040  -0.254  0.00  0.00    +0.002 A 
ATOM      3  C   UNL     1       4.372  -4.570  -1.039  0.00  0.00    +0.001 A 
ATOM      4  C   UNL     1       4.365  -3.260  -1.476  0.00  0.00    +0.016 A 
ATOM      5  C   UNL     1       3.317  -2.414  -1.133  0.00  0.00    +0.029 A 
ATOM      6  C   UNL     1       2.268  -2.885  -0.350  0.00  0.00    +0.050 A 
ATOM      7  C   UNL     1       2.290  -4.207   0.090  0.00  0.00    +0.024 A 
ATOM      8  N   UNL     1       1.177  -2.090   0.009  0.00  0.00    -0.268 N 
ATOM      9  C   UNL     1       1.208  -0.631  -0.033  0.00  0.00    +0.125 C 
ATOM     10  C   UNL     1       1.634  -0.186  -1.440  0.00  0.00    +0.094 C 
ATOM     11  S   UNL     1       3.345  -0.743  -1.700  0.00  0.00    -0.122 S 
ATOM     12  C   UNL     1       0.044  -2.698   0.411  0.00  0.00    +0.238 C 
ATOM     13  O   UNL     1      -0.054  -3.905   0.345  0.00  0.00    -0.274 OA
ENDBRANCH   1  12
BRANCH   1  14
ATOM     14  N   UNL     1      -2.159  -2.771   1.428  0.00  0.00    -0.233 N 
ATOM     15  C   UNL     1      -3.185  -3.237   0.642  0.00  0.00    +0.227 C 
ATOM     16  O   UNL     1      -3.244  -3.251  -0.569  0.00  0.00    -0.275 OA
ATOM     17  C   UNL     1      -4.218  -3.726   1.619  0.00  0.00    +0.095 C 
ATOM     18  C   UNL     1      -5.043  -4.995   1.376  0.00  0.00    +0.025 C 
ATOM     19  C   UNL     1      -5.381  -5.241   2.917  0.00  0.00    +0.016 C 
ATOM     20  C   UNL     1      -3.861  -5.459   3.311  0.00  0.00    +0.025 C 
ATOM     21  C   UNL     1      -3.137  -4.352   2.591  0.00  0.00    +0.095 C 
ATOM     22  C   UNL     1      -2.230  -3.245   2.729  0.00  0.00    +0.227 C 
ATOM     23  O   UNL     1      -1.675  -2.832   3.724  0.00  0.00    -0.275 OA
ATOM     24  C   UNL     1      -3.570  -6.595   2.279  0.00  0.00    -0.027 C 
ATOM     25  C   UNL     1      -4.198  -6.234   1.151  0.00  0.00    -0.027 C 
ENDBRANCH   1  14
TORSDOF 2
