REMARK  Name = ZINC02827047
REMARK  12 active torsions:
REMARK  status: ('A' for Active; 'I' for Inactive)
REMARK    1  A    between atoms: C_1  and  C_2
REMARK    2  A    between atoms: C_2  and  C_3
REMARK    3  A    between atoms: N_5  and  C_6
REMARK    4  A    between atoms: C_6  and  N_8
REMARK    5  A    between atoms: N_8  and  C_9
REMARK    6  A    between atoms: C_12  and  N_15
REMARK    7  A    between atoms: N_15  and  C_16
REMARK    8  A    between atoms: C_16  and  N_18
REMARK    9  A    between atoms: C_19  and  C_21
REMARK   10  A    between atoms: C_24  and  O_28
REMARK   11  A    between atoms: O_28  and  C_29
REMARK   12  A    between atoms: C_29  and  C_30
REMARK                            x       y       z     vdW  Elec       q    Type
REMARK                         _______ _______ _______ _____ _____    ______ ____
ROOT
ATOM      1  N   UNL     1      -4.797   3.446  -0.882  0.00  0.00    -0.297 N 
ATOM      2  H   UNL     1      -5.590   2.920  -0.693  0.00  0.00    +0.154 HD
ENDROOT
BRANCH   1   6
ATOM      3  C   UNL     1      -1.014   1.820  -0.225  0.00  0.00    +0.033 A 
ATOM      4  C   UNL     1      -1.988   1.073  -0.875  0.00  0.00    +0.025 A 
ATOM      5  C   UNL     1      -3.242   1.609  -1.087  0.00  0.00    +0.025 A 
ATOM      6  C   UNL     1      -3.527   2.900  -0.662  0.00  0.00    +0.033 A 
ATOM      7  C   UNL     1      -2.551   3.649  -0.017  0.00  0.00    +0.025 A 
ATOM      8  C   UNL     1      -1.299   3.111   0.201  0.00  0.00    +0.025 A 
BRANCH   3   9
ATOM      9  N   UNL     1       0.257   1.274  -0.005  0.00  0.00    -0.297 N 
ATOM     10  H   UNL     1       0.713   0.803  -0.720  0.00  0.00    +0.154 HD
BRANCH   9  11
ATOM     11  C   UNL     1       0.848   1.409   1.199  0.00  0.00    +0.141 C 
ATOM     12  S   UNL     1       0.092   2.332   2.426  0.00  0.00    -0.018 S 
BRANCH  11  15
ATOM     13  C   UNL     1       2.627   0.950   2.640  0.00  0.00    +0.218 C 
ATOM     14  O   UNL     1       2.091   1.604   3.509  0.00  0.00    -0.275 OA
ATOM     15  N   UNL     1       2.035   0.816   1.436  0.00  0.00    -0.268 N 
ATOM     16  H   UNL     1       2.464   0.293   0.741  0.00  0.00    +0.156 HD
BRANCH  13  18
ATOM     17  C   UNL     1       4.401   0.595   4.336  0.00  0.00    +0.013 C 
ATOM     18  C   UNL     1       3.954   0.287   2.905  0.00  0.00    +0.093 C 
ENDBRANCH  13  18
ENDBRANCH  11  15
ENDBRANCH   9  11
ENDBRANCH   3   9
ENDBRANCH   1   6
BRANCH   1  19
ATOM     19  C   UNL     1      -4.918   4.701  -1.357  0.00  0.00    +0.141 C 
ATOM     20  S   UNL     1      -3.524   5.667  -1.589  0.00  0.00    -0.018 S 
BRANCH  19  21
ATOM     21  N   UNL     1      -6.137   5.196  -1.650  0.00  0.00    -0.264 N 
ATOM     22  C   UNL     1      -6.258   6.452  -2.125  0.00  0.00    +0.250 C 
ATOM     23  O   UNL     1      -5.268   7.137  -2.290  0.00  0.00    -0.270 OA
ATOM     24  H   UNL     1      -6.927   4.649  -1.519  0.00  0.00    +0.157 HD
BRANCH  22  25
ATOM     25  C   UNL     1      -7.592   6.994  -2.446  0.00  0.00    +0.039 A 
ATOM     26  C   UNL     1      -8.732   6.205  -2.262  0.00  0.00    +0.017 A 
ATOM     27  C   UNL     1      -9.976   6.716  -2.557  0.00  0.00    +0.048 A 
ATOM     28  C   UNL     1     -10.099   8.011  -3.047  0.00  0.00    +0.139 A 
ATOM     29  C   UNL     1      -8.968   8.798  -3.237  0.00  0.00    +0.083 A 
ATOM     30  C   UNL     1      -7.720   8.295  -2.938  0.00  0.00    +0.036 A 
ATOM     31 CL   UNL     1      -9.128  10.414  -3.849  0.00  0.00    -0.080 Cl
BRANCH  28  32
ATOM     32  O   UNL     1     -11.327   8.509  -3.342  0.00  0.00    -0.491 OA
BRANCH  32  33
ATOM     33  C   UNL     1     -12.446   7.647  -3.124  0.00  0.00    +0.226 C 
ATOM     34  C   UNL     1     -13.734   8.377  -3.510  0.00  0.00    +0.048 C 
ENDBRANCH  32  33
ENDBRANCH  28  32
ENDBRANCH  22  25
ENDBRANCH  19  21
ENDBRANCH   1  19
TORSDOF 10
