REMARK  Name = ZINC39684341
REMARK  9 active torsions:
REMARK  status: ('A' for Active; 'I' for Inactive)
REMARK    1  A    between atoms: C_1  and  C_2
REMARK    2  A    between atoms: C_2  and  C_4
REMARK    3  A    between atoms: C_2  and  N_8
REMARK    4  A    between atoms: C_4  and  C_5
REMARK    5  A    between atoms: C_4  and  C_6
REMARK    6  A    between atoms: C_4  and  C_7
REMARK    7  A    between atoms: C_9  and  C_11
REMARK    8  A    between atoms: C_22  and  C_24
REMARK    9  A    between atoms: C_27  and  C_30
REMARK                            x       y       z     vdW  Elec       q    Type
REMARK                         _______ _______ _______ _____ _____    ______ ____
ROOT
ATOM      1  C   UNL     1      -4.054  -1.426  -0.869  0.00  0.00    +0.100 C 
ATOM      2  C   UNL     1      -4.685  -0.289  -0.034  0.00  0.00    +0.121 C 
ATOM      3  N   UNL     1      -5.235   0.651  -1.038  0.00  0.00    -0.296 N 
ATOM      4  C   UNL     1      -5.802  -0.224  -2.092  0.00  0.00    +0.115 C 
ATOM      5  C   UNL     1      -4.793  -1.383  -2.217  0.00  0.00    -0.004 C 
ATOM      6  C   UNL     1      -3.809  -1.103  -3.350  0.00  0.00    -0.010 C 
ATOM      7  C   UNL     1      -4.558  -1.121  -4.685  0.00  0.00    -0.082 C 
ATOM      8  N   UNL     1      -5.194  -2.430  -4.875  0.00  0.00    +0.379 N 
ATOM      9  C   UNL     1      -6.205  -2.651  -3.833  0.00  0.00    -0.082 C 
ATOM     10  C   UNL     1      -5.526  -2.698  -2.462  0.00  0.00    -0.010 C 
ATOM     11  C   UNL     1      -5.224   1.998  -1.002  0.00  0.00    +0.247 C 
ATOM     12  O   UNL     1      -4.607   2.578  -0.129  0.00  0.00    -0.270 OA
ATOM     13  H   UNL     1      -5.635  -2.461  -5.782  0.00  0.00    -0.086 HD
ATOM     14  H   UNL     1      -4.493  -3.154  -4.820  0.00  0.00    -0.086 HD
ENDROOT
BRANCH  11  15
ATOM     15  C   UNL     1      -5.961   2.772  -2.024  0.00  0.00    +0.037 A 
ATOM     16  C   UNL     1      -6.995   2.173  -2.745  0.00  0.00    +0.013 A 
ATOM     17  C   UNL     1      -7.679   2.901  -3.696  0.00  0.00    +0.013 A 
ATOM     18  C   UNL     1      -7.342   4.221  -3.937  0.00  0.00    +0.055 A 
ATOM     19  C   UNL     1      -6.318   4.820  -3.226  0.00  0.00    +0.013 A 
ATOM     20  C   UNL     1      -5.630   4.106  -2.267  0.00  0.00    +0.013 A 
BRANCH  18  21
ATOM     21  C   UNL     1      -8.094   5.009  -4.978  0.00  0.00    +0.417 C 
ATOM     22  F   UNL     1      -9.191   5.641  -4.383  0.00  0.00    -0.166 F 
ATOM     23  F   UNL     1      -7.246   5.973  -5.535  0.00  0.00    -0.166 F 
ATOM     24  F   UNL     1      -8.542   4.146  -5.984  0.00  0.00    -0.166 F 
ENDBRANCH  18  21
ENDBRANCH  11  15
BRANCH   1  26
ATOM     25  N   UNL     1      -1.746  -2.210  -1.289  0.00  0.00    -0.312 N 
ATOM     26  C   UNL     1      -2.582  -1.176  -1.069  0.00  0.00    +0.218 C 
ATOM     27  O   UNL     1      -2.148  -0.044  -1.032  0.00  0.00    -0.275 OA
ATOM     28  H   UNL     1      -2.092  -3.116  -1.318  0.00  0.00    +0.149 HD
BRANCH  25  30
ATOM     29  C   UNL     1       0.379  -1.887  -0.121  0.00  0.00    +0.028 C 
ATOM     30  C   UNL     1      -0.314  -1.967  -1.483  0.00  0.00    +0.075 C 
BRANCH  30  31
ATOM     31  C   UNL     1       0.292  -3.112  -2.297  0.00  0.00    -0.020 C 
ATOM     32  C   UNL     1       0.096  -4.431  -1.547  0.00  0.00    +0.012 C 
ATOM     33  C   UNL     1      -0.402  -3.192  -3.659  0.00  0.00    +0.012 C 
ATOM     34  C   UNL     1       1.787  -2.858  -2.500  0.00  0.00    +0.012 C 
ENDBRANCH  30  31
ENDBRANCH  25  30
ENDBRANCH   1  26
TORSDOF 5
