REMARK  Name = ZINC26422265
REMARK  4 active torsions:
REMARK  status: ('A' for Active; 'I' for Inactive)
REMARK    1  A    between atoms: C_7  and  S_19
REMARK    2  A    between atoms: N_9  and  C_10
REMARK    3  A    between atoms: C_10  and  C_11
REMARK    4  A    between atoms: S_19  and  C_20
REMARK                            x       y       z     vdW  Elec       q    Type
REMARK                         _______ _______ _______ _____ _____    ______ ____
ROOT
ATOM      1  C   UNL     1       6.414  -0.256  -0.617  0.00  0.00    +0.001 A 
ATOM      2  C   UNL     1       6.835   1.065  -0.538  0.00  0.00    +0.002 A 
ATOM      3  C   UNL     1       5.932   2.076  -0.297  0.00  0.00    +0.026 A 
ATOM      4  C   UNL     1       4.583   1.774  -0.131  0.00  0.00    +0.051 A 
ATOM      5  C   UNL     1       4.164   0.433  -0.207  0.00  0.00    +0.014 A 
ATOM      6  C   UNL     1       5.096  -0.575  -0.458  0.00  0.00    +0.011 A 
ATOM      7  C   UNL     1       2.711   0.448   0.003  0.00  0.00    +0.040 A 
ATOM      8  C   UNL     1       2.355   1.733   0.193  0.00  0.00    +0.102 A 
ATOM      9  N   UNL     1       3.466   2.539   0.116  0.00  0.00    -0.337 N 
ENDROOT
BRANCH   9  10
ATOM     10  C   UNL     1       3.461   3.996   0.273  0.00  0.00    +0.217 C 
BRANCH  10  11
ATOM     11  C   UNL     1       3.377   4.647  -1.084  0.00  0.00    +0.235 C 
ATOM     12  O   UNL     1       3.325   3.961  -2.083  0.00  0.00    -0.274 OA
ATOM     13  N   UNL     1       3.358   5.990  -1.187  0.00  0.00    -0.300 N 
ATOM     14  C   UNL     1       3.414   6.834   0.015  0.00  0.00    +0.108 C 
ATOM     15  C   UNL     1       4.570   7.833  -0.142  0.00  0.00    +0.019 C 
ATOM     16  C   UNL     1       4.391   8.611  -1.448  0.00  0.00    +0.003 C 
ATOM     17  C   UNL     1       4.429   7.641  -2.631  0.00  0.00    +0.019 C 
ATOM     18  C   UNL     1       3.276   6.639  -2.502  0.00  0.00    +0.108 C 
ENDBRANCH  10  11
ENDBRANCH   9  10
BRANCH   7  19
ATOM     19  S   UNL     1       1.638  -0.949   0.011  0.00  0.00    -0.055 S 
BRANCH  19  20
ATOM     20  C   UNL     1       1.528  -1.261  -1.719  0.00  0.00    +0.127 C 
ATOM     21  N   UNL     1       2.231  -0.549  -2.556  0.00  0.00    -0.382 N 
ATOM     22  N   UNL     1       0.699  -2.255  -2.188  0.00  0.00    -0.339 N 
ATOM     23  H   UNL     1       2.162  -0.743  -3.637  0.00  0.00    +0.158 HD
ATOM     24  H   UNL     1       0.630  -2.449  -3.268  0.00  0.00    +0.144 HD
ATOM     25  H   UNL     1       0.106  -2.855  -1.482  0.00  0.00    +0.144 HD
ATOM     26  H   UNL     1       2.893   0.246  -2.182  0.00  0.00    +0.158 HD
ENDBRANCH  19  20
ENDBRANCH   7  19
TORSDOF 4
