REMARK  Name = ZINC40629924
REMARK  12 active torsions:
REMARK  status: ('A' for Active; 'I' for Inactive)
REMARK    1  A    between atoms: C_1  and  C_2
REMARK    2  A    between atoms: C_2  and  C_31
REMARK    3  A    between atoms: C_4  and  N_10
REMARK    4  A    between atoms: C_6  and  C_8
REMARK    5  A    between atoms: C_6  and  C_9
REMARK    6  A    between atoms: C_12  and  N_28
REMARK    7  A    between atoms: C_13  and  N_17
REMARK    8  A    between atoms: N_17  and  C_18
REMARK    9  A    between atoms: C_20  and  C_26
REMARK   10  A    between atoms: C_20  and  C_27
REMARK   11  A    between atoms: C_22  and  C_24
REMARK   12  A    between atoms: C_22  and  C_25
REMARK                            x       y       z     vdW  Elec       q    Type
REMARK                         _______ _______ _______ _____ _____    ______ ____
ROOT
ATOM      1  N   UNL     1       1.800  -2.502  -2.233  0.00  0.00    -0.324 N 
ATOM      2  C   UNL     1       1.736  -3.817  -2.664  0.00  0.00    +0.155 A 
ATOM      3  C   UNL     1       2.317  -4.193  -3.872  0.00  0.00    +0.205 A 
ATOM      4  C   UNL     1       2.225  -5.526  -4.261  0.00  0.00    +0.155 A 
ATOM      5  N   UNL     1       1.589  -6.388  -3.469  0.00  0.00    -0.218 NA
ATOM      6  C   UNL     1       1.052  -5.993  -2.333  0.00  0.00    +0.225 A 
ATOM      7  N   UNL     1       1.123  -4.741  -1.927  0.00  0.00    -0.218 NA
ATOM      8  H   UNL     1       2.249  -1.834  -2.775  0.00  0.00    +0.148 HD
ENDROOT
BRANCH   1  12
ATOM      9  C   UNL     1       0.152   1.348   0.330  0.00  0.00    -0.010 C 
ATOM     10  C   UNL     1       0.232  -0.196   0.341  0.00  0.00    -0.072 C 
ATOM     11  C   UNL     1       0.839  -0.630  -0.989  0.00  0.00    +0.009 C 
ATOM     12  C   UNL     1       1.190  -2.118  -0.954  0.00  0.00    +0.069 C 
ATOM     13  C   UNL     1       2.197  -2.344   0.174  0.00  0.00    +0.009 C 
ATOM     14  C   UNL     1       1.599  -1.923   1.512  0.00  0.00    -0.072 C 
ATOM     15  N   UNL     1       1.025  -0.589   1.492  0.00  0.00    +0.386 N 
ATOM     16  C   UNL     1       2.744  -1.927   2.551  0.00  0.00    -0.010 C 
ATOM     17  C   UNL     1       0.572  -2.964   1.971  0.00  0.00    -0.010 C 
ATOM     18  C   UNL     1      -1.205  -0.719   0.450  0.00  0.00    -0.010 C 
ATOM     19  H   UNL     1       1.786   0.088   1.603  0.00  0.00    -0.084 HD
ATOM     20  H   UNL     1       0.451  -0.474   2.333  0.00  0.00    -0.084 HD
ENDBRANCH   1  12
BRANCH   3  21
ATOM     21  N   UNL     1       3.013  -3.201  -4.721  0.00  0.00    +0.063 N 
ATOM     22  O   UNL     1       4.197  -3.002  -4.571  0.00  0.00    -0.126 OA
ATOM     23  O   UNL     1       2.399  -2.589  -5.564  0.00  0.00    -0.126 OA
ENDBRANCH   3  21
BRANCH   4  24
ATOM     24  N   UNL     1       2.786  -5.951  -5.455  0.00  0.00    -0.324 N 
ATOM     25  H   UNL     1       3.247  -5.317  -6.027  0.00  0.00    +0.148 HD
BRANCH  24  26
ATOM     26  C   UNL     1       2.683  -7.360  -5.855  0.00  0.00    +0.069 C 
ATOM     27  C   UNL     1       3.844  -8.143  -5.240  0.00  0.00    +0.009 C 
ATOM     28  C   UNL     1       3.757  -9.611  -5.657  0.00  0.00    -0.072 C 
ATOM     29  N   UNL     1       3.683  -9.766  -7.103  0.00  0.00    +0.386 N 
ATOM     30  C   UNL     1       2.749  -8.918  -7.826  0.00  0.00    -0.072 C 
ATOM     31  C   UNL     1       2.788  -7.461  -7.376  0.00  0.00    +0.009 C 
ATOM     32  C   UNL     1       1.317  -9.451  -7.743  0.00  0.00    -0.010 C 
ATOM     33  C   UNL     1       3.156  -8.948  -9.319  0.00  0.00    -0.010 C 
ATOM     34  C   UNL     1       2.592 -10.295  -4.944  0.00  0.00    -0.010 C 
ATOM     35  C   UNL     1       5.056 -10.300  -5.180  0.00  0.00    -0.010 C 
ATOM     36  H   UNL     1       4.618  -9.619  -7.489  0.00  0.00    -0.084 HD
ATOM     37  H   UNL     1       3.458 -10.742  -7.309  0.00  0.00    -0.084 HD
ENDBRANCH  24  26
ENDBRANCH   4  24
TORSDOF 4
