REMARK  Name = ZINC16464430
REMARK  9 active torsions:
REMARK  status: ('A' for Active; 'I' for Inactive)
REMARK    1  A    between atoms: C_3  and  C_6
REMARK    2  A    between atoms: C_9  and  S_18
REMARK    3  A    between atoms: N_10  and  C_11
REMARK    4  A    between atoms: S_18  and  C_19
REMARK    5  A    between atoms: C_19  and  C_20
REMARK    6  A    between atoms: C_22  and  C_25
REMARK    7  A    between atoms: N_27  and  C_28
REMARK    8  A    between atoms: C_28  and  C_29
REMARK    9  A    between atoms: C_29  and  N_57
REMARK                            x       y       z     vdW  Elec       q    Type
REMARK                         _______ _______ _______ _____ _____    ______ ____
ROOT
ATOM      1  S   UNL     1       1.473  -2.715  -1.733  0.00  0.00    -0.079 S 
ENDROOT
BRANCH   1   5
ATOM      2  C   UNL     1       2.114  -6.574  -1.726  0.00  0.00    +0.205 A 
ATOM      3  N   UNL     1       2.076  -6.282  -0.444  0.00  0.00    -0.125 NA
ATOM      4  N   UNL     1       1.869  -5.023  -0.286  0.00  0.00    -0.122 NA
ATOM      5  C   UNL     1       1.761  -4.431  -1.454  0.00  0.00    +0.197 A 
ATOM      6  N   UNL     1       1.907  -5.396  -2.414  0.00  0.00    -0.268 N 
BRANCH   6   7
ATOM      7  C   UNL     1       1.859  -5.223  -3.805  0.00  0.00    +0.051 A 
ATOM      8  C   UNL     1       0.846  -5.816  -4.545  0.00  0.00    +0.028 A 
ATOM      9  C   UNL     1       0.798  -5.640  -5.914  0.00  0.00    +0.022 A 
ATOM     10  C   UNL     1       1.766  -4.883  -6.549  0.00  0.00    +0.041 A 
ATOM     11  C   UNL     1       2.780  -4.294  -5.814  0.00  0.00    +0.022 A 
ATOM     12  C   UNL     1       2.829  -4.463  -4.444  0.00  0.00    +0.028 A 
ATOM     13 CL   UNL     1       1.708  -4.670  -8.271  0.00  0.00    -0.084 Cl
ENDBRANCH   6   7
BRANCH   2  16
ATOM     14  C   UNL     1       2.522 -10.101  -2.599  0.00  0.00    +0.042 A 
ATOM     15  C   UNL     1       2.247  -9.094  -1.655  0.00  0.00    +0.053 A 
ATOM     16  C   UNL     1       2.328  -7.904  -2.315  0.00  0.00    +0.172 A 
ATOM     17  O   UNL     1       2.646  -8.160  -3.599  0.00  0.00    -0.460 OA
ATOM     18  C   UNL     1       2.763  -9.487  -3.775  0.00  0.00    +0.196 A 
ENDBRANCH   2  16
ENDBRANCH   1   5
BRANCH   1  19
ATOM     19  C   UNL     1       1.391  -2.128  -0.022  0.00  0.00    +0.140 C 
BRANCH  19  20
ATOM     20  C   UNL     1       1.144  -0.642  -0.012  0.00  0.00    +0.089 A 
ATOM     21  N   UNL     1       0.002  -0.004   0.002  0.00  0.00    -0.239 NA
ATOM     22  C   UNL     1      -0.016   1.330   0.009  0.00  0.00    +0.133 A 
ATOM     23  C   UNL     1       1.192   1.980   0.001  0.00  0.00    +0.080 A 
ATOM     24  S   UNL     1       2.303   0.648  -0.016  0.00  0.00    -0.079 S 
BRANCH  22  25
ATOM     25  C   UNL     1      -1.286   2.076   0.019  0.00  0.00    +0.263 C 
ATOM     26  O   UNL     1      -1.276   3.292   0.026  0.00  0.00    -0.269 OA
ATOM     27  N   UNL     1      -2.458   1.411   0.022  0.00  0.00    -0.312 N 
ATOM     28  H   UNL     1      -2.466   0.441   0.017  0.00  0.00    +0.149 HD
BRANCH  27  29
ATOM     29  C   UNL     1      -3.721   2.154   0.032  0.00  0.00    +0.086 C 
BRANCH  29  30
ATOM     30  C   UNL     1      -4.892   1.169   0.033  0.00  0.00    -0.060 C 
BRANCH  30  35
ATOM     31  C   UNL     1      -6.196   2.914  -1.053  0.00  0.00    -0.079 C 
ATOM     32  C   UNL     1      -7.709   3.199  -1.222  0.00  0.00    -0.020 C 
ATOM     33  C   UNL     1      -8.349   1.810  -0.998  0.00  0.00    -0.020 C 
ATOM     34  C   UNL     1      -7.305   1.011  -0.196  0.00  0.00    -0.079 C 
ATOM     35  N   UNL     1      -6.182   1.921   0.032  0.00  0.00    +0.381 N 
ATOM     36  H   UNL     1      -6.297   2.394   0.936  0.00  0.00    -0.082 HD
ENDBRANCH  30  35
ENDBRANCH  29  30
ENDBRANCH  27  29
ENDBRANCH  22  25
ENDBRANCH  19  20
ENDBRANCH   1  19
TORSDOF 9
