REMARK  Name = ZINC57633945
REMARK  9 active torsions:
REMARK  status: ('A' for Active; 'I' for Inactive)
REMARK    1  A    between atoms: C_1  and  C_2
REMARK    2  A    between atoms: C_2  and  O_3
REMARK    3  A    between atoms: O_3  and  C_4
REMARK    4  A    between atoms: C_9  and  C_10
REMARK    5  A    between atoms: C_10  and  C_12
REMARK    6  A    between atoms: C_10  and  N_14
REMARK    7  A    between atoms: C_12  and  N_13
REMARK    8  A    between atoms: N_14  and  C_15
REMARK    9  A    between atoms: C_20  and  C_21
REMARK                            x       y       z     vdW  Elec       q    Type
REMARK                         _______ _______ _______ _____ _____    ______ ____
ROOT
ATOM      1  C   UNL     1      -4.021  -1.454   0.004  0.00  0.00    +0.087 C 
ENDROOT
BRANCH   1   7
ATOM      2  C   UNL     1      -1.523  -1.554   0.188  0.00  0.00    +0.125 A 
ATOM      3  C   UNL     1      -0.339  -2.269   0.304  0.00  0.00    +0.046 A 
ATOM      4  C   UNL     1      -0.369  -3.649   0.351  0.00  0.00    +0.004 A 
ATOM      5  C   UNL     1      -1.577  -4.319   0.282  0.00  0.00    +0.001 A 
ATOM      6  C   UNL     1      -2.758  -3.609   0.165  0.00  0.00    +0.009 A 
ATOM      7  C   UNL     1      -2.734  -2.228   0.124  0.00  0.00    +0.012 A 
BRANCH   2   8
ATOM      8  O   UNL     1      -1.496  -0.196   0.143  0.00  0.00    -0.492 OA
BRANCH   8  10
ATOM      9  C   UNL     1      -0.383   1.949   0.149  0.00  0.00    +0.048 C 
ATOM     10  C   UNL     1      -0.213   0.430   0.214  0.00  0.00    +0.225 C 
ENDBRANCH   8  10
ENDBRANCH   2   8
ENDBRANCH   1   7
BRANCH   1  11
ATOM     11  N   UNL     1      -5.125  -2.256   0.538  0.00  0.00    -0.338 N 
ATOM     12  H   UNL     1      -5.652  -2.812  -0.057  0.00  0.00    +0.147 HD
BRANCH  11  13
ATOM     13  C   UNL     1      -5.417  -2.221   1.903  0.00  0.00    +0.032 A 
ATOM     14  C   UNL     1      -4.592  -1.519   2.774  0.00  0.00    +0.023 A 
ATOM     15  C   UNL     1      -4.884  -1.485   4.123  0.00  0.00    +0.003 A 
ATOM     16  C   UNL     1      -5.995  -2.150   4.609  0.00  0.00    +0.020 A 
ATOM     17  C   UNL     1      -6.818  -2.850   3.746  0.00  0.00    +0.046 A 
ATOM     18  C   UNL     1      -6.535  -2.883   2.393  0.00  0.00    -0.011 A 
ATOM     19  C   UNL     1      -7.435  -3.641   1.452  0.00  0.00    +0.047 C 
ATOM     20 CL   UNL     1      -8.211  -3.684   4.361  0.00  0.00    -0.083 Cl
ENDBRANCH  11  13
ENDBRANCH   1  11
BRANCH   1  21
ATOM     21  C   UNL     1      -4.289  -1.135  -1.468  0.00  0.00    -0.059 C 
BRANCH  21  22
ATOM     22  N   UNL     1      -5.585  -0.454  -1.594  0.00  0.00    +0.380 N 
ATOM     23  H   UNL     1      -6.305  -1.023  -1.176  0.00  0.00    -0.090 HD
ATOM     24  H   UNL     1      -5.543   0.437  -1.123  0.00  0.00    -0.090 HD
ATOM     25  H   UNL     1      -5.795  -0.309  -2.570  0.00  0.00    -0.090 HD
ENDBRANCH  21  22
ENDBRANCH   1  21
TORSDOF 7
