REMARK  Name = ZINC63625893
REMARK  11 active torsions:
REMARK  status: ('A' for Active; 'I' for Inactive)
REMARK    1  A    between atoms: C_1  and  C_2
REMARK    2  A    between atoms: C_2  and  C_3
REMARK    3  A    between atoms: C_3  and  S_4
REMARK    4  A    between atoms: S_4  and  C_5
REMARK    5  A    between atoms: C_10  and  N_15
REMARK    6  A    between atoms: C_16  and  C_18
REMARK    7  A    between atoms: C_18  and  S_19
REMARK    8  A    between atoms: S_19  and  C_20
REMARK    9  A    between atoms: C_23  and  S_26
REMARK   10  A    between atoms: S_26  and  C_27
REMARK   11  A    between atoms: C_27  and  C_28
REMARK                            x       y       z     vdW  Elec       q    Type
REMARK                         _______ _______ _______ _____ _____    ______ ____
ROOT
ATOM      1  C   UNL     1       1.589  -2.718  -2.758  0.00  0.00    +0.010 A 
ATOM      2  C   UNL     1       2.071  -1.640  -3.618  0.00  0.00    +0.017 A 
ATOM      3  C   UNL     1       2.722  -1.903  -4.767  0.00  0.00    +0.028 A 
ATOM      4  C   UNL     1       2.952  -3.302  -5.161  0.00  0.00    +0.061 A 
ATOM      5  N   UNL     1       3.540  -3.832  -6.195  0.00  0.00    -0.348 N 
ATOM      6  C   UNL     1       3.465  -5.290  -6.049  0.00  0.00    +0.269 C 
ATOM      7  N   UNL     1       2.754  -5.545  -4.790  0.00  0.00    -0.348 N 
ATOM      8  C   UNL     1       2.453  -4.383  -4.269  0.00  0.00    +0.062 A 
ATOM      9  C   UNL     1       1.781  -4.026  -3.073  0.00  0.00    +0.042 A 
ATOM     10  H   UNL     1       3.952  -3.350  -6.929  0.00  0.00    +0.163 HD
ATOM     11  H   UNL     1       2.546  -6.414  -4.414  0.00  0.00    +0.163 HD
ENDROOT
BRANCH   6  12
ATOM     12  N   UNL     1       4.813  -5.860  -5.990  0.00  0.00    -0.278 N 
ATOM     13  C   UNL     1       5.541  -5.984  -7.117  0.00  0.00    +0.226 C 
ATOM     14  O   UNL     1       5.080  -5.625  -8.180  0.00  0.00    -0.275 OA
ATOM     15  H   UNL     1       5.182  -6.147  -5.140  0.00  0.00    +0.152 HD
BRANCH  13  16
ATOM     16  C   UNL     1       6.929  -6.570  -7.057  0.00  0.00    +0.167 C 
BRANCH  16  17
ATOM     17  S   UNL     1       7.644  -6.604  -8.724  0.00  0.00    -0.117 S 
BRANCH  17  18
ATOM     18  C   UNL     1       9.290  -7.327  -8.481  0.00  0.00    +0.213 C 
ATOM     19  N   UNL     1       9.207  -8.647  -7.813  0.00  0.00    -0.302 N 
ATOM     20  C   UNL     1       9.830  -8.666  -6.598  0.00  0.00    +0.163 C 
ATOM     21  N   UNL     1      10.426  -7.637  -6.092  0.00  0.00    -0.190 NA
ATOM     22  S   UNL     1      10.247  -6.401  -7.214  0.00  0.00    +0.011 S 
ATOM     23  H   UNL     1       8.758  -9.416  -8.198  0.00  0.00    +0.150 HD
BRANCH  20  24
ATOM     24  S   UNL     1       9.820 -10.167  -5.675  0.00  0.00    -0.090 S 
BRANCH  24  25
ATOM     25  C   UNL     1      10.736  -9.758  -4.163  0.00  0.00    +0.074 C 
ATOM     26  C   UNL     1      10.804 -10.991  -3.259  0.00  0.00    +0.016 C 
ENDBRANCH  24  25
ENDBRANCH  20  24
ENDBRANCH  17  18
ENDBRANCH  16  17
ENDBRANCH  13  16
ENDBRANCH   6  12
BRANCH   1  27
ATOM     27  S   UNL     1       0.743  -2.311  -1.267  0.00  0.00    -0.125 S 
BRANCH  27  28
ATOM     28  C   UNL     1       0.718  -0.497  -1.257  0.00  0.00    +0.074 C 
BRANCH  28  30
ATOM     29  C   UNL     1      -0.019   1.526   0.010  0.00  0.00    +0.004 C 
ATOM     30  C   UNL     1       0.002  -0.004   0.002  0.00  0.00    +0.008 C 
ENDBRANCH  28  30
ENDBRANCH  27  28
ENDBRANCH   1  27
TORSDOF 9
