REMARK  Name = ZINC36660306
REMARK  13 active torsions:
REMARK  status: ('A' for Active; 'I' for Inactive)
REMARK    1  A    between atoms: C_1  and  C_2
REMARK    2  A    between atoms: C_2  and  N_3
REMARK    3  A    between atoms: N_3  and  C_4
REMARK    4  A    between atoms: N_3  and  C_6
REMARK    5  A    between atoms: C_4  and  C_5
REMARK    6  A    between atoms: C_6  and  C_7
REMARK    7  A    between atoms: C_7  and  N_8
REMARK    8  A    between atoms: C_12  and  C_19
REMARK    9  A    between atoms: C_14  and  C_18
REMARK   10  A    between atoms: C_20  and  C_22
REMARK   11  A    between atoms: N_27  and  S_28
REMARK   12  A    between atoms: S_28  and  C_31
REMARK   13  A    between atoms: C_34  and  C_37
REMARK                            x       y       z     vdW  Elec       q    Type
REMARK                         _______ _______ _______ _____ _____    ______ ____
ROOT
ATOM      1  N   UNL     1      -1.728  -3.071  -1.866  0.00  0.00    -0.251 N 
ATOM      2  C   UNL     1      -2.038  -3.884  -0.788  0.00  0.00    +0.168 A 
ATOM      3  N   UNL     1      -2.418  -5.140  -0.786  0.00  0.00    -0.224 NA
ATOM      4  C   UNL     1      -2.690  -5.815   0.352  0.00  0.00    +0.083 A 
ATOM      5  C   UNL     1      -3.106  -7.159   0.491  0.00  0.00    -0.024 A 
ATOM      6  C   UNL     1      -3.342  -7.694   1.731  0.00  0.00    +0.009 A 
ATOM      7  C   UNL     1      -3.184  -6.942   2.887  0.00  0.00    -0.049 A 
ATOM      8  C   UNL     1      -2.779  -5.624   2.787  0.00  0.00    +0.020 A 
ATOM      9  C   UNL     1      -2.540  -5.080   1.550  0.00  0.00    +0.041 A 
ATOM     10  S   UNL     1      -2.015  -3.490   0.955  0.00  0.00    -0.052 S 
ATOM     11  C   UNL     1      -3.452  -7.556   4.237  0.00  0.00    +0.044 C 
ATOM     12  C   UNL     1      -3.291  -8.014  -0.736  0.00  0.00    +0.046 C 
ATOM     13  C   UNL     1      -1.806  -3.557  -3.121  0.00  0.00    +0.240 C 
ATOM     14  O   UNL     1      -2.230  -4.677  -3.312  0.00  0.00    -0.273 OA
ENDROOT
BRANCH  13  15
ATOM     15  C   UNL     1      -1.365  -2.709  -4.286  0.00  0.00    +0.166 C 
ATOM     16  C   UNL     1      -2.561  -1.898  -4.826  0.00  0.00    +0.031 C 
ATOM     17  C   UNL     1      -2.340  -1.932  -6.361  0.00  0.00    +0.019 C 
ATOM     18  C   UNL     1      -1.750  -3.351  -6.559  0.00  0.00    +0.110 C 
ATOM     19  N   UNL     1      -0.889  -3.570  -5.379  0.00  0.00    -0.165 NA
BRANCH  19  20
ATOM     20  S   UNL     1       0.397  -4.610  -5.298  0.00  0.00    +0.062 S 
ATOM     21  O   UNL     1       0.928  -4.703  -6.612  0.00  0.00    -0.153 OA
ATOM     22  O   UNL     1       1.182  -4.199  -4.186  0.00  0.00    -0.153 OA
BRANCH  20  23
ATOM     23  C   UNL     1      -0.244  -6.202  -4.900  0.00  0.00    +0.106 A 
ATOM     24  C   UNL     1      -0.271  -6.628  -3.586  0.00  0.00    +0.029 A 
ATOM     25  C   UNL     1      -0.774  -7.878  -3.274  0.00  0.00    +0.005 A 
ATOM     26  C   UNL     1      -1.251  -8.700  -4.277  0.00  0.00    -0.050 A 
ATOM     27  C   UNL     1      -1.226  -8.274  -5.592  0.00  0.00    +0.005 A 
ATOM     28  C   UNL     1      -0.726  -7.023  -5.903  0.00  0.00    +0.029 A 
ATOM     29  C   UNL     1      -1.799 -10.063  -3.937  0.00  0.00    +0.044 C 
ENDBRANCH  20  23
ENDBRANCH  19  20
ENDBRANCH  13  15
BRANCH   1  30
ATOM     30  C   UNL     1      -1.314  -1.684  -1.643  0.00  0.00    +0.097 C 
BRANCH  30  31
ATOM     31  C   UNL     1       0.209  -1.620  -1.513  0.00  0.00    -0.059 C 
BRANCH  31  32
ATOM     32  N   UNL     1       0.623  -0.228  -1.289  0.00  0.00    +0.380 N 
ATOM     33  H   UNL     1       0.258   0.355  -2.027  0.00  0.00    -0.082 HD
BRANCH  32  35
ATOM     34  C   UNL     1       0.395   1.729   0.166  0.00  0.00    -0.017 C 
ATOM     35  C   UNL     1       0.103   0.235   0.004  0.00  0.00    -0.082 C 
ENDBRANCH  32  35
BRANCH  32  36
ATOM     36  C   UNL     1       2.090  -0.149  -1.283  0.00  0.00    -0.082 C 
ATOM     37  C   UNL     1       2.624  -0.482  -2.678  0.00  0.00    -0.017 C 
ENDBRANCH  32  36
ENDBRANCH  31  32
ENDBRANCH  30  31
ENDBRANCH   1  30
TORSDOF 8
