REMARK  Name = ZINC42457042
REMARK  8 active torsions:
REMARK  status: ('A' for Active; 'I' for Inactive)
REMARK    1  A    between atoms: C_1  and  C_2
REMARK    2  A    between atoms: C_2  and  C_4
REMARK    3  A    between atoms: C_2  and  C_18
REMARK    4  A    between atoms: C_4  and  N_5
REMARK    5  A    between atoms: N_5  and  C_6
REMARK    6  A    between atoms: N_5  and  S_7
REMARK    7  A    between atoms: S_7  and  C_10
REMARK    8  A    between atoms: C_18  and  N_20
REMARK                            x       y       z     vdW  Elec       q    Type
REMARK                         _______ _______ _______ _____ _____    ______ ____
ROOT
ATOM      1  S   UNL     1      -1.296  -1.038  -3.144  0.00  0.00    +0.061 S 
ATOM      2  O   UNL     1      -1.327  -0.706  -4.525  0.00  0.00    -0.153 OA
ATOM      3  O   UNL     1      -0.987  -2.346  -2.681  0.00  0.00    -0.153 OA
ENDROOT
BRANCH   1   4
ATOM      4  C   UNL     1      -2.884  -0.636  -2.494  0.00  0.00    +0.108 A 
ATOM      5  C   UNL     1      -3.341  -1.263  -1.350  0.00  0.00    +0.048 A 
ATOM      6  C   UNL     1      -4.587  -0.948  -0.839  0.00  0.00    +0.044 A 
ATOM      7  C   UNL     1      -5.377  -0.006  -1.474  0.00  0.00    +0.040 A 
ATOM      8  C   UNL     1      -4.918   0.621  -2.619  0.00  0.00    +0.044 A 
ATOM      9  C   UNL     1      -3.669   0.309  -3.125  0.00  0.00    +0.048 A 
ATOM     10 CL   UNL     1      -5.909   1.803  -3.416  0.00  0.00    -0.083 Cl
ATOM     11 CL   UNL     1      -5.162  -1.736   0.597  0.00  0.00    -0.083 Cl
ENDBRANCH   1   4
BRANCH   1  12
ATOM     12  N   UNL     1      -0.203  -0.015  -2.435  0.00  0.00    -0.179 NA
ATOM     13  C   UNL     1       0.107   1.273  -3.061  0.00  0.00    +0.131 C 
BRANCH  12  14
ATOM     14  C   UNL     1       0.453  -0.398  -1.182  0.00  0.00    +0.118 C 
BRANCH  14  16
ATOM     15  C   UNL     1      -0.274   1.704  -0.044  0.00  0.00    +0.015 C 
ATOM     16  C   UNL     1      -0.331   0.176  -0.000  0.00  0.00    +0.053 C 
BRANCH  16  17
ATOM     17  C   UNL     1       0.277  -0.312   1.290  0.00  0.00    +0.050 C 
ATOM     18  S   UNL     1       1.680  -1.079   1.273  0.00  0.00    -0.040 S 
BRANCH  17  19
ATOM     19  N   UNL     1      -0.363  -0.103   2.458  0.00  0.00    -0.355 N 
ATOM     20  H   UNL     1      -1.214   0.362   2.468  0.00  0.00    +0.143 HD
ATOM     21  H   UNL     1       0.028  -0.417   3.288  0.00  0.00    +0.143 HD
ENDBRANCH  17  19
ENDBRANCH  16  17
ENDBRANCH  14  16
ENDBRANCH  12  14
ENDBRANCH   1  12
TORSDOF 6
