REMARK  Name = ZINC09041047
REMARK  13 active torsions:
REMARK  status: ('A' for Active; 'I' for Inactive)
REMARK    1  A    between atoms: C_1  and  C_2
REMARK    2  A    between atoms: C_2  and  C_3
REMARK    3  A    between atoms: C_3  and  C_4
REMARK    4  A    between atoms: C_4  and  S_5
REMARK    5  A    between atoms: S_5  and  C_6
REMARK    6  A    between atoms: C_6  and  S_28
REMARK    7  A    between atoms: C_7  and  C_26
REMARK    8  A    between atoms: C_13  and  C_20
REMARK    9  A    between atoms: C_15  and  C_18
REMARK   10  A    between atoms: S_28  and  C_29
REMARK   11  A    between atoms: C_29  and  C_30
REMARK   12  A    between atoms: C_30  and  C_31
REMARK   13  A    between atoms: C_31  and  C_32
REMARK                            x       y       z     vdW  Elec       q    Type
REMARK                         _______ _______ _______ _____ _____    ______ ____
ROOT
ATOM      1  C   UNL     1       0.242   5.221  -0.683  0.00  0.00    +0.157 C 
ATOM      2  C   UNL     1       0.513   4.007   0.208  0.00  0.00    +0.148 C 
ATOM      3  C   UNL     1      -0.462   2.877   0.195  0.00  0.00    -0.029 C 
ATOM      4  C   UNL     1      -0.018   1.616   0.216  0.00  0.00    -0.011 C 
ATOM      5  C   UNL     1      -1.180   0.655   0.215  0.00  0.00    +0.049 C 
ATOM      6  C   UNL     1      -2.392   1.490  -0.257  0.00  0.00    +0.010 C 
ATOM      7  C   UNL     1      -1.963   2.921   0.158  0.00  0.00    +0.034 C 
ATOM      8  C   UNL     1       2.355   2.347   0.217  0.00  0.00    +0.113 C 
ATOM      9  C   UNL     1       1.746   3.464  -0.584  0.00  0.00    +0.156 C 
ATOM     10  C   UNL     1       2.484   4.709  -0.911  0.00  0.00    +0.092 C 
ATOM     11  N   UNL     1       3.836   4.812  -1.103  0.00  0.00    -0.347 N 
ATOM     12  H   UNL     1       4.399   4.026  -1.028  0.00  0.00    +0.143 HD
ATOM     13  H   UNL     1       4.232   5.673  -1.314  0.00  0.00    +0.143 HD
ATOM     14  N   UNL     1       1.354   1.202   0.241  0.00  0.00    -0.401 NA
ATOM     15  H   UNL     1       1.524   0.607  -0.579  0.00  0.00    +0.124 HD
ATOM     16  H   UNL     1       1.509   0.656   1.097  0.00  0.00    +0.124 HD
ATOM     17  N   UNL     1       1.624   5.704  -0.986  0.00  0.00    -0.351 N 
ATOM     18  H   UNL     1       1.868   6.674  -1.220  0.00  0.00    +0.163 HD
ENDROOT
BRANCH   8  19
ATOM     19  C   UNL     1       3.618   1.861  -0.447  0.00  0.00    -0.027 A 
ATOM     20  C   UNL     1       3.544   1.049  -1.563  0.00  0.00    +0.005 A 
ATOM     21  C   UNL     1       4.702   0.608  -2.175  0.00  0.00    +0.000 A 
ATOM     22  C   UNL     1       5.934   0.968  -1.663  0.00  0.00    +0.000 A 
ATOM     23  C   UNL     1       6.009   1.775  -0.543  0.00  0.00    +0.000 A 
ATOM     24  C   UNL     1       4.851   2.222   0.065  0.00  0.00    +0.005 A 
ENDBRANCH   8  19
BRANCH   9  25
ATOM     25  C   UNL     1       1.250   2.903  -1.850  0.00  0.00    +0.081 C 
ATOM     26  N   UNL     1       0.867   2.469  -2.828  0.00  0.00    -0.195 NA
ENDBRANCH   9  25
BRANCH   2  27
ATOM     27  C   UNL     1       0.869   4.393   1.584  0.00  0.00    +0.080 C 
ATOM     28  N   UNL     1       1.143   4.691   2.645  0.00  0.00    -0.195 NA
ENDBRANCH   2  27
BRANCH   1  29
ATOM     29  S   UNL     1      -0.621   4.731  -2.202  0.00  0.00    -0.120 S 
BRANCH  29  30
ATOM     30  C   UNL     1       0.238   5.648  -3.510  0.00  0.00    +0.072 C 
BRANCH  30  31
ATOM     31  C   UNL     1      -0.481   5.430  -4.843  0.00  0.00    +0.010 C 
BRANCH  31  33
ATOM     32  C   UNL     1      -0.475   5.984  -7.279  0.00  0.00    +0.004 C 
ATOM     33  C   UNL     1       0.244   6.203  -5.946  0.00  0.00    -0.003 C 
ENDBRANCH  31  33
ENDBRANCH  30  31
ENDBRANCH  29  30
ENDBRANCH   1  29
BRANCH   1  34
ATOM     34  S   UNL     1      -0.697   6.488   0.214  0.00  0.00    -0.120 S 
BRANCH  34  35
ATOM     35  C   UNL     1      -0.795   7.872  -0.955  0.00  0.00    +0.072 C 
BRANCH  35  36
ATOM     36  C   UNL     1      -1.460   9.069  -0.273  0.00  0.00    +0.010 C 
BRANCH  36  37
ATOM     37  C   UNL     1      -1.542  10.236  -1.259  0.00  0.00    -0.003 C 
ATOM     38  C   UNL     1      -2.207  11.434  -0.577  0.00  0.00    +0.004 C 
ENDBRANCH  36  37
ENDBRANCH  35  36
ENDBRANCH  34  35
ENDBRANCH   1  34
TORSDOF 11
