REMARK  Name = ZINC23065492
REMARK  12 active torsions:
REMARK  status: ('A' for Active; 'I' for Inactive)
REMARK    1  A    between atoms: C_1  and  O_2
REMARK    2  A    between atoms: O_2  and  C_3
REMARK    3  A    between atoms: C_7  and  O_9
REMARK    4  A    between atoms: O_9  and  C_10
REMARK    5  A    between atoms: C_10  and  C_11
REMARK    6  A    between atoms: C_14  and  S_17
REMARK    7  A    between atoms: N_15  and  N_16
REMARK    8  A    between atoms: S_17  and  C_18
REMARK    9  A    between atoms: C_18  and  C_19
REMARK   10  A    between atoms: N_21  and  C_22
REMARK   11  A    between atoms: C_27  and  S_28
REMARK   12  A    between atoms: S_28  and  C_29
REMARK                            x       y       z     vdW  Elec       q    Type
REMARK                         _______ _______ _______ _____ _____    ______ ____
ROOT
ATOM      1  S   UNL     1       1.317  -2.108  -1.744  0.00  0.00    -0.075 S 
ENDROOT
BRANCH   1   5
ATOM      2  C   UNL     1       0.573   1.712  -2.005  0.00  0.00    +0.189 A 
ATOM      3  N   UNL     1      -0.498   1.256  -1.419  0.00  0.00    -0.128 NA
ATOM      4  N   UNL     1      -0.405  -0.016  -1.258  0.00  0.00    -0.121 NA
ATOM      5  C   UNL     1       0.741  -0.443  -1.737  0.00  0.00    +0.209 A 
ATOM      6  N   UNL     1       1.401   0.646  -2.228  0.00  0.00    -0.225 N 
BRANCH   6   7
ATOM      7  N   UNL     1       2.631   0.667  -2.821  0.00  0.00    -0.295 N 
ATOM      8  H   UNL     1       3.200  -0.267  -2.941  0.00  0.00    +0.163 HD
ATOM      9  H   UNL     1       3.054   1.618  -3.177  0.00  0.00    +0.163 HD
ENDBRANCH   6   7
BRANCH   2  10
ATOM     10  C   UNL     1       0.849   3.148  -2.369  0.00  0.00    +0.306 C 
BRANCH  10  11
ATOM     11  O   UNL     1       1.511   3.797  -1.282  0.00  0.00    -0.484 OA
BRANCH  11  16
ATOM     12  C   UNL     1       2.805   7.133  -0.607  0.00  0.00    +0.124 A 
ATOM     13  C   UNL     1       2.489   7.776  -1.796  0.00  0.00    +0.046 A 
ATOM     14  C   UNL     1       1.847   7.085  -2.806  0.00  0.00    +0.007 A 
ATOM     15  C   UNL     1       1.524   5.752  -2.637  0.00  0.00    +0.046 A 
ATOM     16  C   UNL     1       1.833   5.107  -1.449  0.00  0.00    +0.125 A 
ATOM     17  C   UNL     1       2.478   5.798  -0.434  0.00  0.00    +0.091 A 
BRANCH  12  19
ATOM     18  C   UNL     1       3.744   9.186   0.138  0.00  0.00    +0.277 C 
ATOM     19  O   UNL     1       3.437   7.813   0.386  0.00  0.00    -0.495 OA
ENDBRANCH  12  19
ENDBRANCH  11  16
ENDBRANCH  10  11
ENDBRANCH   2  10
ENDBRANCH   1   5
BRANCH   1  20
ATOM     20  C   UNL     1      -0.083  -2.929  -0.941  0.00  0.00    +0.173 C 
BRANCH  20  21
ATOM     21  C   UNL     1       0.195  -4.406  -0.835  0.00  0.00    +0.228 C 
ATOM     22  O   UNL     1       1.236  -4.860  -1.260  0.00  0.00    -0.275 OA
ATOM     23  N   UNL     1      -0.715  -5.223  -0.269  0.00  0.00    -0.284 N 
ATOM     24  H   UNL     1      -1.621  -4.803   0.192  0.00  0.00    +0.155 HD
BRANCH  23  25
ATOM     25  C   UNL     1      -0.506  -6.609  -0.265  0.00  0.00    +0.047 A 
ATOM     26  C   UNL     1       0.784  -7.118  -0.285  0.00  0.00    +0.024 A 
ATOM     27  C   UNL     1       0.988  -8.485  -0.281  0.00  0.00    +0.002 A 
ATOM     28  C   UNL     1      -0.091  -9.350  -0.257  0.00  0.00    +0.001 A 
ATOM     29  C   UNL     1      -1.380  -8.852  -0.237  0.00  0.00    +0.017 A 
ATOM     30  C   UNL     1      -1.595  -7.481  -0.235  0.00  0.00    +0.034 A 
BRANCH  30  31
ATOM     31  S   UNL     1      -3.237  -6.843  -0.202  0.00  0.00    -0.088 S 
BRANCH  31  32
ATOM     32  C   UNL     1      -3.444  -6.286   1.457  0.00  0.00    +0.013 A 
ATOM     33  C   UNL     1      -2.457  -6.534   2.403  0.00  0.00    +0.015 A 
ATOM     34  C   UNL     1      -2.620  -6.091   3.701  0.00  0.00    +0.001 A 
ATOM     35  C   UNL     1      -3.770  -5.412   4.062  0.00  0.00    +0.000 A 
ATOM     36  C   UNL     1      -4.757  -5.169   3.124  0.00  0.00    +0.001 A 
ATOM     37  C   UNL     1      -4.598  -5.604   1.823  0.00  0.00    +0.015 A 
ENDBRANCH  31  32
ENDBRANCH  30  31
ENDBRANCH  23  25
ENDBRANCH  20  21
ENDBRANCH   1  20
TORSDOF 11
