REMARK  Name = ZINC66981907
REMARK  9 active torsions:
REMARK  status: ('A' for Active; 'I' for Inactive)
REMARK    1  A    between atoms: C_1  and  C_2
REMARK    2  A    between atoms: N_7  and  C_9
REMARK    3  A    between atoms: C_9  and  C_10
REMARK    4  A    between atoms: C_9  and  C_11
REMARK    5  A    between atoms: C_9  and  C_12
REMARK    6  A    between atoms: C_12  and  N_13
REMARK    7  A    between atoms: N_16  and  C_17
REMARK    8  A    between atoms: C_19  and  N_25
REMARK    9  A    between atoms: C_26  and  C_28
REMARK                            x       y       z     vdW  Elec       q    Type
REMARK                         _______ _______ _______ _____ _____    ______ ____
ROOT
ATOM      1  N   UNL     1      -0.418  -4.289   2.603  0.00  0.00    -0.300 N 
ATOM      2  C   UNL     1      -0.679  -5.611   2.635  0.00  0.00    +0.304 C 
ATOM      3  O   UNL     1       0.192  -6.395   2.957  0.00  0.00    -0.253 OA
ATOM      4  N   UNL     1      -1.907  -6.063   2.310  0.00  0.00    -0.267 N 
ATOM      5  H   UNL     1      -1.114  -3.663   2.347  0.00  0.00    +0.150 HD
ATOM      6  H   UNL     1      -2.621  -5.434   2.120  0.00  0.00    +0.156 HD
ENDROOT
BRANCH   4   7
ATOM      7  C   UNL     1      -2.152  -7.442   2.247  0.00  0.00    +0.072 A 
ATOM      8  C   UNL     1      -1.486  -8.305   3.105  0.00  0.00    +0.052 A 
ATOM      9  C   UNL     1      -1.731  -9.669   3.041  0.00  0.00    +0.071 A 
ATOM     10  C   UNL     1      -2.642 -10.168   2.117  0.00  0.00    +0.147 A 
ATOM     11  C   UNL     1      -3.304  -9.306   1.262  0.00  0.00    +0.080 A 
ATOM     12  C   UNL     1      -3.066  -7.944   1.328  0.00  0.00    +0.147 A 
ATOM     13  F   UNL     1      -3.718  -7.104   0.495  0.00  0.00    -0.203 F 
ATOM     14  F   UNL     1      -2.880 -11.496   2.054  0.00  0.00    -0.203 F 
BRANCH   9  15
ATOM     15  N   UNL     1      -1.060 -10.543   3.907  0.00  0.00    -0.283 N 
ATOM     16  C   UNL     1      -0.694 -10.126   5.136  0.00  0.00    +0.214 C 
ATOM     17  O   UNL     1      -1.006  -9.017   5.517  0.00  0.00    -0.276 OA
ATOM     18  C   UNL     1       0.102 -11.036   6.035  0.00  0.00    +0.109 C 
ATOM     19  H   UNL     1      -0.858 -11.448   3.622  0.00  0.00    +0.155 HD
ENDBRANCH   9  15
ENDBRANCH   4   7
BRANCH   1  20
ATOM     20  C   UNL     1       0.916  -3.797   2.957  0.00  0.00    +0.093 C 
BRANCH  20  21
ATOM     21  C   UNL     1       0.913  -2.267   2.954  0.00  0.00    -0.055 C 
ATOM     22  C   UNL     1       2.319  -1.754   3.271  0.00  0.00    -0.008 C 
ATOM     23  C   UNL     1      -0.067  -1.757   4.012  0.00  0.00    -0.008 C 
BRANCH  21  29
ATOM     24  C   UNL     1      -0.148   1.721   0.320  0.00  0.00    +0.005 C 
ATOM     25  C   UNL     1      -0.077   0.193   0.298  0.00  0.00    -0.031 C 
ATOM     26  C   UNL     1       0.886  -0.258  -0.804  0.00  0.00    -0.001 C 
ATOM     27  C   UNL     1       1.010  -1.784  -0.767  0.00  0.00    -0.018 C 
ATOM     28  C   UNL     1       1.476  -2.219   0.624  0.00  0.00    -0.078 C 
ATOM     29  N   UNL     1       0.501  -1.781   1.630  0.00  0.00    +0.384 N 
ATOM     30  C   UNL     1       0.428  -0.315   1.650  0.00  0.00    -0.075 C 
ATOM     31  H   UNL     1      -0.407  -2.158   1.403  0.00  0.00    -0.081 HD
ENDBRANCH  21  29
ENDBRANCH  20  21
ENDBRANCH   1  20
TORSDOF 5
