REMARK  Name = ZINC02532290
REMARK  10 active torsions:
REMARK  status: ('A' for Active; 'I' for Inactive)
REMARK    1  A    between atoms: C_1  and  C_2
REMARK    2  A    between atoms: C_7  and  C_8
REMARK    3  A    between atoms: C_8  and  O_10
REMARK    4  A    between atoms: O_10  and  C_11
REMARK    5  A    between atoms: C_16  and  C_17
REMARK    6  A    between atoms: N_18  and  N_19
REMARK    7  A    between atoms: C_20  and  C_22
REMARK    8  A    between atoms: C_22  and  O_23
REMARK    9  A    between atoms: O_23  and  C_24
REMARK   10  A    between atoms: C_29  and  N_30
REMARK                            x       y       z     vdW  Elec       q    Type
REMARK                         _______ _______ _______ _____ _____    ______ ____
ROOT
ATOM      1  C   UNL     1      -7.607   6.588  -0.207  0.00  0.00    +0.141 A 
ATOM      2  C   UNL     1      -8.967   6.693  -0.451  0.00  0.00    +0.048 A 
ATOM      3  C   UNL     1      -9.574   7.934  -0.473  0.00  0.00    +0.019 A 
ATOM      4  C   UNL     1      -8.831   9.081  -0.249  0.00  0.00    +0.019 A 
ATOM      5  C   UNL     1      -7.476   8.995  -0.001  0.00  0.00    +0.028 A 
ATOM      6  C   UNL     1      -6.852   7.746   0.025  0.00  0.00    +0.038 A 
ATOM      7 BR   UNL     1      -9.676  10.773  -0.284  0.00  0.00    -0.050 Br
ENDROOT
BRANCH   6   8
ATOM      8  C   UNL     1      -5.405   7.646   0.290  0.00  0.00    +0.142 C 
ATOM      9  N   UNL     1      -4.839   6.480   0.367  0.00  0.00    -0.188 NA
BRANCH   9  10
ATOM     10  N   UNL     1      -3.489   6.380   0.727  0.00  0.00    -0.204 N 
ATOM     11  C   UNL     1      -2.876   5.180   0.718  0.00  0.00    +0.270 C 
ATOM     12  O   UNL     1      -3.515   4.175   0.489  0.00  0.00    -0.270 OA
ATOM     13  H   UNL     1      -2.994   7.175   0.982  0.00  0.00    +0.177 HD
BRANCH  11  14
ATOM     14  C   UNL     1      -1.397   5.087   0.994  0.00  0.00    +0.326 C 
BRANCH  14  15
ATOM     15  O   UNL     1      -0.986   3.720   0.929  0.00  0.00    -0.480 OA
BRANCH  15  16
ATOM     16  C   UNL     1       0.328   3.459   1.155  0.00  0.00    +0.151 A 
ATOM     17  C   UNL     1       1.206   4.499   1.429  0.00  0.00    +0.048 A 
ATOM     18  C   UNL     1       2.542   4.232   1.652  0.00  0.00    +0.004 A 
ATOM     19  C   UNL     1       3.006   2.930   1.604  0.00  0.00    +0.002 A 
ATOM     20  C   UNL     1       2.134   1.893   1.333  0.00  0.00    +0.036 A 
ATOM     21  C   UNL     1       0.796   2.154   1.108  0.00  0.00    +0.168 A 
BRANCH  21  22
ATOM     22  N   UNL     1      -0.137   1.043   0.817  0.00  0.00    +0.060 N 
ATOM     23  O   UNL     1       0.275  -0.103   0.775  0.00  0.00    -0.126 OA
ATOM     24  O   UNL     1      -1.316   1.274   0.618  0.00  0.00    -0.126 OA
ENDBRANCH  21  22
ENDBRANCH  15  16
ENDBRANCH  14  15
ENDBRANCH  11  14
ENDBRANCH   9  10
ENDBRANCH   6   8
BRANCH   1  25
ATOM     25  O   UNL     1      -7.009   5.369  -0.190  0.00  0.00    -0.422 OA
BRANCH  25  26
ATOM     26  C   UNL     1      -6.910   4.753   1.004  0.00  0.00    +0.345 C 
ATOM     27  O   UNL     1      -7.276   5.322   2.013  0.00  0.00    -0.245 OA
BRANCH  26  34
ATOM     28  C   UNL     1      -6.463   3.545   3.595  0.00  0.00    +0.044 C 
ATOM     29  C   UNL     1      -6.135   2.793   2.331  0.00  0.00    -0.036 A 
ATOM     30  C   UNL     1      -5.617   1.517   2.401  0.00  0.00    +0.004 A 
ATOM     31  C   UNL     1      -5.315   0.825   1.242  0.00  0.00    +0.000 A 
ATOM     32  C   UNL     1      -5.530   1.407   0.005  0.00  0.00    +0.001 A 
ATOM     33  C   UNL     1      -6.053   2.681  -0.080  0.00  0.00    +0.015 A 
ATOM     34  C   UNL     1      -6.354   3.387   1.087  0.00  0.00    +0.062 A 
ENDBRANCH  26  34
ENDBRANCH  25  26
ENDBRANCH   1  25
TORSDOF 9
