REMARK  Name = ZINC13042097
REMARK  12 active torsions:
REMARK  status: ('A' for Active; 'I' for Inactive)
REMARK    1  A    between atoms: C_1  and  C_2
REMARK    2  A    between atoms: C_4  and  C_29
REMARK    3  A    between atoms: C_5  and  N_9
REMARK    4  A    between atoms: C_6  and  C_8
REMARK    5  A    between atoms: C_10  and  C_12
REMARK    6  A    between atoms: C_12  and  N_57
REMARK    7  A    between atoms: C_13  and  N_57
REMARK    8  A    between atoms: C_14  and  C_16
REMARK    9  A    between atoms: C_14  and  C_17
REMARK   10  A    between atoms: C_14  and  N_57
REMARK   11  A    between atoms: N_19  and  C_20
REMARK   12  A    between atoms: C_23  and  C_26
REMARK                            x       y       z     vdW  Elec       q    Type
REMARK                         _______ _______ _______ _____ _____    ______ ____
ROOT
ATOM      1  C   UNL     1      -7.022   1.276  -1.324  0.00  0.00    +0.017 C 
ATOM      2  C   UNL     1      -7.352   0.296  -0.196  0.00  0.00    -0.004 C 
ENDROOT
BRANCH   1   3
ATOM      3  C   UNL     1      -8.148   2.266  -1.475  0.00  0.00    +0.203 C 
ATOM      4  O   UNL     1      -7.936   3.451  -1.329  0.00  0.00    -0.277 OA
ATOM      5  N   UNL     1      -9.390   1.835  -1.771  0.00  0.00    -0.287 N 
ATOM      6  H   UNL     1      -9.575   0.884  -1.817  0.00  0.00    +0.155 HD
BRANCH   5   7
ATOM      7  C   UNL     1     -10.409   2.756  -2.012  0.00  0.00    +0.033 A 
ATOM      8  C   UNL     1     -10.434   3.961  -1.318  0.00  0.00    +0.024 A 
ATOM      9  C   UNL     1     -11.436   4.874  -1.557  0.00  0.00    +0.015 A 
ATOM     10  C   UNL     1     -12.434   4.585  -2.491  0.00  0.00    +0.037 A 
ATOM     11  C   UNL     1     -12.409   3.371  -3.183  0.00  0.00    +0.015 A 
ATOM     12  C   UNL     1     -11.402   2.465  -2.943  0.00  0.00    +0.024 A 
BRANCH  10  13
ATOM     13  C   UNL     1     -13.513   5.560  -2.746  0.00  0.00    +0.242 C 
ATOM     14  O   UNL     1     -14.381   5.307  -3.559  0.00  0.00    -0.270 OA
ATOM     15  N   UNL     1     -13.536   6.730  -2.078  0.00  0.00    -0.325 N 
ATOM     16  H   UNL     1     -12.843   6.932  -1.429  0.00  0.00    +0.145 HD
ATOM     17  H   UNL     1     -14.245   7.371  -2.246  0.00  0.00    +0.145 HD
ENDBRANCH  10  13
ENDBRANCH   5   7
ENDBRANCH   1   3
BRANCH   1  19
ATOM     18  C   UNL     1      -5.865   2.628   0.318  0.00  0.00    -0.094 C 
ATOM     19  N   UNL     1      -5.777   2.012  -1.023  0.00  0.00    +0.391 N 
ATOM     20  H   UNL     1      -5.650   2.753  -1.722  0.00  0.00    -0.080 HD
BRANCH  19  21
ATOM     21  C   UNL     1      -4.620   1.094  -1.082  0.00  0.00    +0.020 C 
BRANCH  21  23
ATOM     22  N   UNL     1      -2.154   1.286  -1.041  0.00  0.00    -0.287 N 
ATOM     23  C   UNL     1      -3.352   1.902  -0.991  0.00  0.00    +0.201 C 
ATOM     24  O   UNL     1      -3.409   3.108  -0.873  0.00  0.00    -0.278 OA
ATOM     25  H   UNL     1      -2.108   0.317  -1.055  0.00  0.00    +0.155 HD
BRANCH  22  30
ATOM     26  C   UNL     1       2.620   4.348  -1.168  0.00  0.00    +0.044 C 
ATOM     27  C   UNL     1       1.350   3.537  -1.136  0.00  0.00    -0.050 A 
ATOM     28  C   UNL     1       0.451   3.703  -0.099  0.00  0.00    +0.008 A 
ATOM     29  C   UNL     1      -0.713   2.961  -0.066  0.00  0.00    -0.029 A 
ATOM     30  C   UNL     1      -0.978   2.043  -1.074  0.00  0.00    +0.039 A 
ATOM     31  C   UNL     1      -0.076   1.883  -2.118  0.00  0.00    -0.029 A 
ATOM     32  C   UNL     1       1.087   2.628  -2.144  0.00  0.00    +0.008 A 
ATOM     33  C   UNL     1      -0.363   0.893  -3.217  0.00  0.00    +0.045 C 
ATOM     34  C   UNL     1      -1.692   3.143   1.065  0.00  0.00    +0.045 C 
ENDBRANCH  22  30
ENDBRANCH  21  23
ENDBRANCH  19  21
ENDBRANCH   1  19
TORSDOF 7
