REMARK  Name = ZINC36273753
REMARK  8 active torsions:
REMARK  status: ('A' for Active; 'I' for Inactive)
REMARK    1  A    between atoms: C_1  and  C_2
REMARK    2  A    between atoms: C_2  and  C_3
REMARK    3  A    between atoms: C_3  and  N_4
REMARK    4  A    between atoms: C_5  and  C_7
REMARK    5  A    between atoms: C_7  and  O_8
REMARK    6  A    between atoms: O_8  and  C_9
REMARK    7  A    between atoms: C_16  and  C_18
REMARK    8  A    between atoms: C_21  and  N_24
REMARK                            x       y       z     vdW  Elec       q    Type
REMARK                         _______ _______ _______ _____ _____    ______ ____
ROOT
ATOM      1  C   UNL     1       2.116  -5.936  -3.631  0.00  0.00    +0.162 A 
ATOM      2  C   UNL     1       1.593  -6.786  -2.701  0.00  0.00    +0.051 A 
ATOM      3  C   UNL     1       1.711  -8.174  -2.884  0.00  0.00    +0.022 A 
ATOM      4  C   UNL     1       2.338  -8.667  -3.972  0.00  0.00    +0.093 A 
ATOM      5  N   UNL     1       2.867  -7.828  -4.913  0.00  0.00    -0.305 N 
ATOM      6  C   UNL     1       2.764  -6.470  -4.769  0.00  0.00    +0.159 A 
ATOM      7  N   UNL     1       3.347  -5.895  -5.811  0.00  0.00    -0.337 N 
ATOM      8  C   UNL     1       3.820  -6.847  -6.630  0.00  0.00    +0.065 A 
ATOM      9  C   UNL     1       3.538  -8.062  -6.082  0.00  0.00    +0.119 A 
ATOM     10  H   UNL     1       3.420  -4.939  -5.958  0.00  0.00    +0.167 HD
ENDROOT
BRANCH   8  11
ATOM     11  C   UNL     1       4.538  -6.615  -7.908  0.00  0.00    -0.000 A 
ATOM     12  C   UNL     1       4.779  -5.315  -8.348  0.00  0.00    +0.012 A 
ATOM     13  C   UNL     1       5.447  -5.102  -9.535  0.00  0.00    +0.023 A 
ATOM     14  C   UNL     1       5.880  -6.184 -10.293  0.00  0.00    +0.025 A 
ATOM     15  C   UNL     1       5.641  -7.482  -9.857  0.00  0.00    +0.023 A 
ATOM     16  C   UNL     1       4.978  -7.699  -8.667  0.00  0.00    +0.012 A 
BRANCH  14  17
ATOM     17  N   UNL     1       6.556  -5.966 -11.496  0.00  0.00    -0.358 N 
ATOM     18  H   UNL     1       6.723  -5.061 -11.802  0.00  0.00    +0.142 HD
ATOM     19  H   UNL     1       6.859  -6.721 -12.025  0.00  0.00    +0.142 HD
ENDBRANCH  14  17
ENDBRANCH   8  11
BRANCH   1  20
ATOM     20  O   UNL     1       2.010  -4.590  -3.469  0.00  0.00    -0.479 OA
BRANCH  20  21
ATOM     21  C   UNL     1       1.341  -4.130  -2.293  0.00  0.00    +0.324 C 
BRANCH  21  23
ATOM     22  N   UNL     1       0.738  -1.962  -1.265  0.00  0.00    -0.313 N 
ATOM     23  C   UNL     1       1.321  -2.623  -2.285  0.00  0.00    +0.251 C 
ATOM     24  O   UNL     1       1.829  -2.004  -3.196  0.00  0.00    -0.272 OA
ATOM     25  H   UNL     1       0.332  -2.457  -0.536  0.00  0.00    +0.149 HD
BRANCH  22  26
ATOM     26  C   UNL     1       0.718  -0.497  -1.257  0.00  0.00    +0.104 C 
BRANCH  26  28
ATOM     27  C   UNL     1      -0.019   1.526   0.010  0.00  0.00    +0.005 C 
ATOM     28  C   UNL     1       0.002  -0.004   0.002  0.00  0.00    +0.015 C 
ENDBRANCH  26  28
ENDBRANCH  22  26
ENDBRANCH  21  23
ENDBRANCH  20  21
ENDBRANCH   1  20
TORSDOF 7
