REMARK  Name = ZINC14770076
REMARK  7 active torsions:
REMARK  status: ('A' for Active; 'I' for Inactive)
REMARK    1  A    between atoms: C_1  and  C_2
REMARK    2  A    between atoms: C_2  and  C_3
REMARK    3  A    between atoms: C_2  and  C_4
REMARK    4  A    between atoms: C_22  and  C_26
REMARK    5  A    between atoms: C_22  and  O_27
REMARK    6  A    between atoms: C_23  and  C_24
REMARK    7  A    between atoms: C_23  and  O_25
REMARK                            x       y       z     vdW  Elec       q    Type
REMARK                         _______ _______ _______ _____ _____    ______ ____
ROOT
ATOM      1  C   UNL     1      -1.545  -0.455   4.315  0.00  0.00    +0.135 C 
ATOM      2  C   UNL     1      -1.409   0.754   3.432  0.00  0.00    +0.314 C 
ATOM      3  O   UNL     1      -1.423   1.861   3.936  0.00  0.00    -0.250 OA
ATOM      4  O   UNL     1      -1.273   0.650   2.104  0.00  0.00    -0.462 OA
ATOM      5  C   UNL     1      -0.866   1.829   1.371  0.00  0.00    +0.165 C 
ATOM      6  C   UNL     1      -0.014   1.416   0.152  0.00  0.00    +0.025 C 
ATOM      7  C   UNL     1      -0.795   1.961  -1.051  0.00  0.00    -0.074 C 
ATOM      8  C   UNL     1      -2.062   2.593   0.796  0.00  0.00    +0.003 C 
ATOM      9  C   UNL     1      -3.185   1.681   0.426  0.00  0.00    -0.048 C 
ATOM     10  C   UNL     1      -3.611   1.950  -0.779  0.00  0.00    -0.044 C 
ATOM     11  C   UNL     1      -2.823   3.099  -1.333  0.00  0.00    -0.050 C 
ATOM     12  C   UNL     1      -3.774   0.598   1.300  0.00  0.00    +0.261 C 
ATOM     13  O   UNL     1      -3.999   1.126   2.624  0.00  0.00    -0.458 OA
ATOM     14  C   UNL     1      -4.041   0.346   3.699  0.00  0.00    +0.342 C 
ATOM     15  O   UNL     1      -4.227   0.873   4.782  0.00  0.00    -0.247 OA
ATOM     16  C   UNL     1      -3.876  -1.145   3.659  0.00  0.00    +0.189 C 
ATOM     17  C   UNL     1      -2.401  -1.541   3.671  0.00  0.00    +0.115 C 
ATOM     18  C   UNL     1      -2.254  -2.830   4.499  0.00  0.00    +0.046 C 
ATOM     19  C   UNL     1      -4.554  -1.746   4.901  0.00  0.00    +0.056 C 
ATOM     20  N   UNL     1      -1.619   3.047  -0.511  0.00  0.00    +0.389 N 
ATOM     21  H   UNL     1      -1.121   3.944  -0.477  0.00  0.00    -0.080 HD
ENDROOT
BRANCH   1  23
ATOM     22  C   UNL     1       0.559  -1.345   3.294  0.00  0.00    +0.008 C 
ATOM     23  C   UNL     1      -0.149  -1.021   4.611  0.00  0.00    -0.001 C 
ATOM     24  C   UNL     1       0.667   0.013   5.389  0.00  0.00    +0.008 C 
ENDBRANCH   1  23
BRANCH  17  25
ATOM     25  O   UNL     1      -1.950  -1.810   2.344  0.00  0.00    -0.385 OA
ATOM     26  H   UNL     1      -2.427  -2.528   1.905  0.00  0.00    +0.210 HD
ENDBRANCH  17  25
BRANCH  16  27
ATOM     27  O   UNL     1      -4.510  -1.685   2.498  0.00  0.00    -0.375 OA
ATOM     28  H   UNL     1      -5.459  -1.510   2.451  0.00  0.00    +0.211 HD
ENDBRANCH  16  27
TORSDOF 3
