REMARK  Name = ZINC21684520
REMARK  8 active torsions:
REMARK  status: ('A' for Active; 'I' for Inactive)
REMARK    1  A    between atoms: C_1  and  C_2
REMARK    2  A    between atoms: C_4  and  N_16
REMARK    3  A    between atoms: C_17  and  C_19
REMARK    4  A    between atoms: C_22  and  S_25
REMARK    5  A    between atoms: S_25  and  N_28
REMARK    6  A    between atoms: N_28  and  C_29
REMARK    7  A    between atoms: N_28  and  C_30
REMARK    8  A    between atoms: C_30  and  C_31
REMARK                            x       y       z     vdW  Elec       q    Type
REMARK                         _______ _______ _______ _____ _____    ______ ____
ROOT
ATOM      1  N   UNL     1      -1.109  -0.844   0.008  0.00  0.00    -0.266 N 
ATOM      2  C   UNL     1      -0.943  -2.181  -0.001  0.00  0.00    +0.249 C 
ATOM      3  O   UNL     1       0.176  -2.655  -0.014  0.00  0.00    -0.270 OA
ATOM      4  H   UNL     1      -2.122  -0.415   0.019  0.00  0.00    +0.157 HD
ENDROOT
BRANCH   1   8
ATOM      5  C   UNL     1       3.605   0.791  -0.029  0.00  0.00    +0.067 C 
ATOM      6  C   UNL     1       2.098   0.759  -0.014  0.00  0.00    +0.062 A 
ATOM      7  C   UNL     1       1.306  -0.394  -0.013  0.00  0.00    +0.068 A 
ATOM      8  C   UNL     1       0.002  -0.004   0.002  0.00  0.00    +0.131 A 
ATOM      9  N   UNL     1      -0.016   1.359   0.009  0.00  0.00    -0.194 N 
ATOM     10  N   UNL     1       1.312   1.804  -0.001  0.00  0.00    -0.168 NA
ATOM     11  C   UNL     1      -1.150   2.163   0.019  0.00  0.00    +0.196 A 
ATOM     12  N   UNL     1      -1.230   3.473   0.027  0.00  0.00    -0.221 NA
ATOM     13  C   UNL     1      -2.410   4.128   0.036  0.00  0.00    +0.081 A 
ATOM     14  C   UNL     1      -2.634   5.525   0.044  0.00  0.00    +0.029 A 
ATOM     15  C   UNL     1      -3.907   6.030   0.052  0.00  0.00    +0.002 A 
ATOM     16  C   UNL     1      -5.018   5.197   0.053  0.00  0.00    +0.001 A 
ATOM     17  C   UNL     1      -4.837   3.827   0.045  0.00  0.00    +0.017 A 
ATOM     18  C   UNL     1      -3.564   3.312   0.037  0.00  0.00    +0.041 A 
ATOM     19  S   UNL     1      -2.870   1.676   0.017  0.00  0.00    -0.048 S 
ENDBRANCH   1   8
BRANCH   2  20
ATOM     20  C   UNL     1      -2.122  -3.072   0.005  0.00  0.00    +0.037 A 
ATOM     21  C   UNL     1      -3.409  -2.532   0.025  0.00  0.00    +0.015 A 
ATOM     22  C   UNL     1      -4.506  -3.369   0.025  0.00  0.00    +0.029 A 
ATOM     23  C   UNL     1      -4.332  -4.742   0.016  0.00  0.00    +0.106 A 
ATOM     24  C   UNL     1      -3.059  -5.284   0.002  0.00  0.00    +0.029 A 
ATOM     25  C   UNL     1      -1.954  -4.458  -0.004  0.00  0.00    +0.015 A 
BRANCH  23  26
ATOM     26  S   UNL     1      -5.738  -5.804   0.023  0.00  0.00    +0.061 S 
ATOM     27  O   UNL     1      -6.817  -5.052  -0.513  0.00  0.00    -0.153 OA
ATOM     28  O   UNL     1      -5.316  -7.039  -0.538  0.00  0.00    -0.153 OA
BRANCH  26  29
ATOM     29  N   UNL     1      -6.114  -6.108   1.607  0.00  0.00    -0.175 NA
ATOM     30  C   UNL     1      -5.515  -7.254   2.295  0.00  0.00    +0.132 C 
BRANCH  29  31
ATOM     31  C   UNL     1      -7.045  -5.230   2.320  0.00  0.00    +0.144 C 
BRANCH  31  32
ATOM     32  C   UNL     1      -8.434  -5.811   2.254  0.00  0.00    -0.032 A 
ATOM     33  C   UNL     1      -9.277  -5.468   1.214  0.00  0.00    +0.005 A 
ATOM     34  C   UNL     1     -10.550  -6.005   1.150  0.00  0.00    +0.000 A 
ATOM     35  C   UNL     1     -10.982  -6.876   2.132  0.00  0.00    +0.000 A 
ATOM     36  C   UNL     1     -10.140  -7.215   3.175  0.00  0.00    +0.000 A 
ATOM     37  C   UNL     1      -8.866  -6.682   3.236  0.00  0.00    +0.005 A 
ENDBRANCH  31  32
ENDBRANCH  29  31
ENDBRANCH  26  29
ENDBRANCH  23  26
ENDBRANCH   2  20
TORSDOF 6
