REMARK  Name = ZINC61882189
REMARK  9 active torsions:
REMARK  status: ('A' for Active; 'I' for Inactive)
REMARK    1  A    between atoms: C_1  and  C_2
REMARK    2  A    between atoms: C_2  and  C_4
REMARK    3  A    between atoms: C_2  and  N_18
REMARK    4  A    between atoms: C_4  and  N_5
REMARK    5  A    between atoms: N_5  and  S_6
REMARK    6  A    between atoms: S_6  and  C_9
REMARK    7  A    between atoms: C_13  and  N_16
REMARK    8  A    between atoms: N_18  and  C_19
REMARK    9  A    between atoms: N_18  and  C_20
REMARK                            x       y       z     vdW  Elec       q    Type
REMARK                         _______ _______ _______ _____ _____    ______ ____
ROOT
ATOM      1  S   UNL     1       1.712  -2.334   2.803  0.00  0.00    +0.060 S 
ATOM      2  O   UNL     1       1.458  -3.704   3.079  0.00  0.00    -0.153 OA
ATOM      3  O   UNL     1       2.957  -1.877   2.292  0.00  0.00    -0.153 OA
ENDROOT
BRANCH   1   4
ATOM      4  C   UNL     1       1.431  -1.457   4.305  0.00  0.00    +0.122 A 
ATOM      5  C   UNL     1       2.378  -0.562   4.770  0.00  0.00    +0.049 A 
ATOM      6  C   UNL     1       2.161   0.129   5.949  0.00  0.00    +0.045 A 
ATOM      7  C   UNL     1       0.996  -0.073   6.666  0.00  0.00    +0.044 A 
ATOM      8  C   UNL     1       0.043  -0.970   6.201  0.00  0.00    +0.042 A 
ATOM      9  C   UNL     1       0.262  -1.659   5.014  0.00  0.00    +0.065 A 
ATOM     10 BR   UNL     1      -1.035  -2.876   4.372  0.00  0.00    -0.046 Br
ATOM     11 CL   UNL     1       3.353   1.250   6.529  0.00  0.00    -0.083 Cl
BRANCH   8  12
ATOM     12  N   UNL     1      -1.135  -1.177   6.923  0.00  0.00    -0.357 N 
ATOM     13  H   UNL     1      -1.288  -0.694   7.750  0.00  0.00    +0.142 HD
ATOM     14  H   UNL     1      -1.799  -1.804   6.598  0.00  0.00    +0.142 HD
ENDBRANCH   8  12
ENDBRANCH   1   4
BRANCH   1  15
ATOM     15  N   UNL     1       0.552  -1.845   1.726  0.00  0.00    -0.191 NA
ATOM     16  H   UNL     1      -0.101  -2.482   1.395  0.00  0.00    +0.148 HD
BRANCH  15  17
ATOM     17  C   UNL     1       0.511  -0.452   1.275  0.00  0.00    +0.090 C 
BRANCH  17  19
ATOM     18  C   UNL     1      -0.440   1.115  -0.423  0.00  0.00    -0.012 C 
ATOM     19  C   UNL     1      -0.356  -0.348   0.019  0.00  0.00    -0.057 C 
BRANCH  19  20
ATOM     20  N   UNL     1      -1.705  -0.850   0.312  0.00  0.00    +0.379 N 
ATOM     21  C   UNL     1      -2.353   0.031   1.292  0.00  0.00    -0.096 C 
ATOM     22  C   UNL     1      -2.498  -0.874  -0.925  0.00  0.00    -0.096 C 
ATOM     23  H   UNL     1      -1.642  -1.784   0.689  0.00  0.00    -0.082 HD
ENDBRANCH  19  20
ENDBRANCH  17  19
ENDBRANCH  15  17
ENDBRANCH   1  15
TORSDOF 6
