REMARK  Name = ZINC12886618
REMARK  6 active torsions:
REMARK  status: ('A' for Active; 'I' for Inactive)
REMARK    1  A    between atoms: C_1  and  C_2
REMARK    2  A    between atoms: C_17  and  C_19
REMARK    3  A    between atoms: C_19  and  C_20
REMARK    4  A    between atoms: N_25  and  C_28
REMARK    5  A    between atoms: C_28  and  C_29
REMARK    6  A    between atoms: C_29  and  C_30
REMARK                            x       y       z     vdW  Elec       q    Type
REMARK                         _______ _______ _______ _____ _____    ______ ____
ROOT
ATOM      1  C   UNL     1       2.222  -5.874   2.455  0.00  0.00    +0.044 C 
ATOM      2  C   UNL     1       1.753  -5.841   1.023  0.00  0.00    -0.049 A 
ATOM      3  C   UNL     1       0.755  -4.962   0.640  0.00  0.00    +0.008 A 
ATOM      4  C   UNL     1       0.327  -4.933  -0.668  0.00  0.00    -0.026 A 
ATOM      5  C   UNL     1       0.888  -5.781  -1.617  0.00  0.00    +0.054 A 
ATOM      6  C   UNL     1       1.892  -6.664  -1.224  0.00  0.00    +0.063 A 
ATOM      7  C   UNL     1       2.318  -6.689   0.089  0.00  0.00    +0.025 A 
ATOM      8 CL   UNL     1       2.609  -7.734  -2.388  0.00  0.00    -0.082 Cl
ATOM      9  N   UNL     1       0.295  -5.570  -2.865  0.00  0.00    -0.285 N 
ATOM     10  C   UNL     1      -0.653  -4.613  -2.821  0.00  0.00    +0.211 C 
ATOM     11  O   UNL     1      -1.330  -4.222  -3.748  0.00  0.00    -0.277 OA
ATOM     12  C   UNL     1      -0.708  -4.125  -1.399  0.00  0.00    +0.050 C 
ATOM     13  C   UNL     1      -2.103  -4.318  -0.792  0.00  0.00    +0.088 C 
ATOM     14  C   UNL     1      -2.300  -3.085   0.134  0.00  0.00    +0.073 C 
ATOM     15  C   UNL     1      -0.993  -2.276  -0.001  0.00  0.00    -0.049 C 
ATOM     16  C   UNL     1      -3.431  -2.320  -0.513  0.00  0.00    +0.224 C 
ATOM     17  O   UNL     1      -3.897  -1.279  -0.103  0.00  0.00    -0.275 OA
ATOM     18  N   UNL     1      -3.837  -2.970  -1.610  0.00  0.00    -0.241 N 
ATOM     19  C   UNL     1      -3.167  -4.099  -1.867  0.00  0.00    +0.225 C 
ATOM     20  O   UNL     1      -3.375  -4.839  -2.804  0.00  0.00    -0.275 OA
ATOM     21  H   UNL     1       0.538  -6.055  -3.669  0.00  0.00    +0.155 HD
ATOM     22  N   UNL     1      -0.443  -2.701  -1.290  0.00  0.00    +0.394 N 
ATOM     23  H   UNL     1      -0.902  -2.195  -2.056  0.00  0.00    -0.083 HD
ATOM     24  H   UNL     1       0.568  -2.525  -1.320  0.00  0.00    -0.083 HD
ENDROOT
BRANCH  15  25
ATOM     25  C   UNL     1      -1.293  -0.775   0.010  0.00  0.00    +0.080 C 
BRANCH  25  26
ATOM     26  C   UNL     1       0.002  -0.004   0.002  0.00  0.00    +0.209 C 
ATOM     27  O   UNL     1       1.060  -0.596  -0.011  0.00  0.00    -0.276 OA
ATOM     28  N   UNL     1      -0.016   1.344   0.009  0.00  0.00    -0.329 N 
ATOM     29  H   UNL     1       0.817   1.840   0.004  0.00  0.00    +0.145 HD
ATOM     30  H   UNL     1      -0.863   1.817   0.016  0.00  0.00    +0.145 HD
ENDBRANCH  25  26
ENDBRANCH  15  25
BRANCH  18  31
ATOM     31  C   UNL     1      -4.927  -2.485  -2.460  0.00  0.00    +0.121 C 
BRANCH  31  32
ATOM     32  C   UNL     1      -4.358  -1.572  -3.548  0.00  0.00    +0.054 C 
BRANCH  32  33
ATOM     33  C   UNL     1      -5.479  -1.073  -4.423  0.00  0.00    -0.046 A 
ATOM     34  C   UNL     1      -5.849  -1.788  -5.547  0.00  0.00    +0.004 A 
ATOM     35  C   UNL     1      -6.880  -1.332  -6.347  0.00  0.00    +0.000 A 
ATOM     36  C   UNL     1      -7.535  -0.158  -6.028  0.00  0.00    +0.000 A 
ATOM     37  C   UNL     1      -7.162   0.559  -4.907  0.00  0.00    +0.000 A 
ATOM     38  C   UNL     1      -6.134   0.102  -4.104  0.00  0.00    +0.004 A 
ENDBRANCH  32  33
ENDBRANCH  31  32
ENDBRANCH  18  31
TORSDOF 5
