REMARK  Name = ZINC63162191
REMARK  5 active torsions:
REMARK  status: ('A' for Active; 'I' for Inactive)
REMARK    1  A    between atoms: C_4  and  N_24
REMARK    2  A    between atoms: C_6  and  C_7
REMARK    3  A    between atoms: C_7  and  N_8
REMARK    4  A    between atoms: N_11  and  C_12
REMARK    5  A    between atoms: C_14  and  C_20
REMARK                            x       y       z     vdW  Elec       q    Type
REMARK                         _______ _______ _______ _____ _____    ______ ____
ROOT
ATOM      1  N   UNL     1      -1.813  -0.903  -1.359  0.00  0.00    -0.295 N 
ATOM      2  C   UNL     1      -2.943  -1.593  -1.612  0.00  0.00    +0.304 C 
ATOM      3  O   UNL     1      -3.696  -1.883  -0.702  0.00  0.00    -0.252 OA
ATOM      4  N   UNL     1      -3.240  -1.960  -2.875  0.00  0.00    -0.265 N 
ATOM      5  H   UNL     1      -1.213  -0.672  -2.085  0.00  0.00    +0.151 HD
ATOM      6  H   UNL     1      -2.679  -1.665  -3.610  0.00  0.00    +0.157 HD
ENDROOT
BRANCH   4   7
ATOM      7  C   UNL     1      -4.358  -2.767  -3.126  0.00  0.00    +0.100 A 
ATOM      8  C   UNL     1      -5.352  -2.333  -3.960  0.00  0.00    +0.042 A 
ATOM      9  C   UNL     1      -6.460  -3.161  -4.194  0.00  0.00    +0.073 A 
ATOM     10  C   UNL     1      -6.537  -4.373  -3.598  0.00  0.00    +0.098 A 
ATOM     11  N   UNL     1      -5.551  -4.805  -2.769  0.00  0.00    -0.327 N 
ATOM     12  H   UNL     1      -5.624  -5.678  -2.351  0.00  0.00    +0.168 HD
ATOM     13  C   UNL     1      -4.470  -4.040  -2.525  0.00  0.00    +0.270 A 
ATOM     14  O   UNL     1      -3.590  -4.444  -1.782  0.00  0.00    -0.266 OA
BRANCH   9  15
ATOM     15  C   UNL     1      -7.564  -2.699  -5.109  0.00  0.00    +0.419 C 
ATOM     16  F   UNL     1      -8.551  -3.688  -5.185  0.00  0.00    -0.166 F 
ATOM     17  F   UNL     1      -8.124  -1.520  -4.607  0.00  0.00    -0.166 F 
ATOM     18  F   UNL     1      -7.043  -2.462  -6.386  0.00  0.00    -0.166 F 
ENDBRANCH   9  15
ENDBRANCH   4   7
BRANCH   1  19
ATOM     19  C   UNL     1      -1.491  -0.504   0.014  0.00  0.00    +0.141 C 
BRANCH  19  25
ATOM     20  C   UNL     1      -0.159   1.627  -0.130  0.00  0.00    +0.023 A 
ATOM     21  C   UNL     1       1.053   2.287  -0.115  0.00  0.00    +0.084 A 
ATOM     22  N   UNL     1       2.183   1.623   0.044  0.00  0.00    -0.350 N 
ATOM     23  C   UNL     1       2.200   0.308   0.194  0.00  0.00    +0.099 A 
ATOM     24  C   UNL     1       1.015  -0.421   0.189  0.00  0.00    +0.047 A 
ATOM     25  C   UNL     1      -0.185   0.248   0.025  0.00  0.00    -0.026 A 
ATOM     26  H   UNL     1       3.021   2.111   0.051  0.00  0.00    +0.166 HD
BRANCH  23  27
ATOM     27  N   UNL     1       3.413  -0.351   0.358  0.00  0.00    -0.317 N 
ATOM     28  C   UNL     1       3.584  -1.802   0.529  0.00  0.00    +0.106 C 
ATOM     29  C   UNL     1       5.094  -2.068   0.700  0.00  0.00    +0.020 C 
ATOM     30  C   UNL     1       5.636  -0.696   1.182  0.00  0.00    +0.020 C 
ATOM     31  C   UNL     1       4.741   0.288   0.384  0.00  0.00    +0.106 C 
ENDBRANCH  23  27
ENDBRANCH  19  25
ENDBRANCH   1  19
TORSDOF 5
