REMARK  Name = ZINC63386390
REMARK  12 active torsions:
REMARK  status: ('A' for Active; 'I' for Inactive)
REMARK    1  A    between atoms: C_1  and  C_2
REMARK    2  A    between atoms: C_2  and  C_4
REMARK    3  A    between atoms: C_2  and  N_12
REMARK    4  A    between atoms: C_4  and  C_5
REMARK    5  A    between atoms: C_5  and  C_6
REMARK    6  A    between atoms: C_13  and  C_15
REMARK    7  A    between atoms: C_15  and  C_16
REMARK    8  A    between atoms: C_16  and  C_17
REMARK    9  A    between atoms: N_21  and  C_25
REMARK   10  A    between atoms: C_22  and  O_24
REMARK   11  A    between atoms: C_25  and  C_26
REMARK   12  A    between atoms: C_26  and  C_27
REMARK                            x       y       z     vdW  Elec       q    Type
REMARK                         _______ _______ _______ _____ _____    ______ ____
ROOT
ATOM      1  C   UNL     1       5.026  -1.635   3.354  0.00  0.00    +0.197 C 
ATOM      2  C   UNL     1       6.525  -1.605   3.128  0.00  0.00    +0.248 C 
ATOM      3  O   UNL     1       7.218  -0.636   2.899  0.00  0.00    -0.273 OA
ATOM      4  N   UNL     1       6.922  -2.890   3.239  0.00  0.00    -0.224 N 
ATOM      5  C   UNL     1       5.852  -3.706   3.504  0.00  0.00    +0.285 C 
ATOM      6  N   UNL     1       4.731  -3.058   3.586  0.00  0.00    -0.224 NA
ENDROOT
BRANCH   5   7
ATOM      7  O   UNL     1       5.954  -5.043   3.664  0.00  0.00    -0.481 OA
ATOM      8  H   UNL     1       5.112  -5.483   3.846  0.00  0.00    +0.295 HD
ENDBRANCH   5   7
BRANCH   1   9
ATOM      9  C   UNL     1       4.287  -1.129   2.114  0.00  0.00    +0.045 C 
BRANCH   9  10
ATOM     10  C   UNL     1       2.783  -1.099   2.395  0.00  0.00    +0.098 C 
BRANCH  10  12
ATOM     11  N   UNL     1       0.711  -0.489   1.189  0.00  0.00    -0.313 N 
ATOM     12  C   UNL     1       2.054  -0.600   1.174  0.00  0.00    +0.213 C 
ATOM     13  O   UNL     1       2.676  -0.297   0.177  0.00  0.00    -0.276 OA
ATOM     14  H   UNL     1       0.213  -0.731   1.986  0.00  0.00    +0.149 HD
BRANCH  11  16
ATOM     15  C   UNL     1      -0.019   1.526   0.010  0.00  0.00    +0.028 C 
ATOM     16  C   UNL     1       0.002  -0.004   0.002  0.00  0.00    +0.070 C 
BRANCH  16  17
ATOM     17  C   UNL     1      -1.433  -0.534   0.013  0.00  0.00    +0.026 C 
BRANCH  17  18
ATOM     18  C   UNL     1      -1.416  -2.058  -0.121  0.00  0.00    +0.037 C 
BRANCH  18  19
ATOM     19  C   UNL     1      -2.829  -2.579  -0.111  0.00  0.00    -0.047 A 
ATOM     20  C   UNL     1      -3.432  -2.917   1.087  0.00  0.00    +0.003 A 
ATOM     21  C   UNL     1      -4.729  -3.396   1.096  0.00  0.00    +0.000 A 
ATOM     22  C   UNL     1      -5.423  -3.536  -0.091  0.00  0.00    +0.000 A 
ATOM     23  C   UNL     1      -4.821  -3.197  -1.288  0.00  0.00    +0.000 A 
ATOM     24  C   UNL     1      -3.525  -2.714  -1.297  0.00  0.00    +0.003 A 
ENDBRANCH  18  19
ENDBRANCH  17  18
ENDBRANCH  16  17
ENDBRANCH  11  16
ENDBRANCH  10  12
ENDBRANCH   9  10
ENDBRANCH   1   9
BRANCH   4  25
ATOM     25  C   UNL     1       8.305  -3.351   3.094  0.00  0.00    +0.122 C 
BRANCH  25  26
ATOM     26  C   UNL     1       8.997  -3.325   4.458  0.00  0.00    +0.052 C 
BRANCH  26  27
ATOM     27  C   UNL     1      10.420  -3.799   4.310  0.00  0.00    -0.040 C 
ATOM     28  C   UNL     1      11.520  -3.030   4.147  0.00  0.00    -0.001 A 
ATOM     29  C   UNL     1      11.714  -1.577   4.061  0.00  0.00    +0.010 A 
ATOM     30  C   UNL     1      12.965  -1.091   3.892  0.00  0.00    +0.001 A 
ATOM     31  C   UNL     1      14.078  -1.938   3.796  0.00  0.00    +0.002 A 
ATOM     32  C   UNL     1      13.979  -3.283   3.865  0.00  0.00    +0.026 A 
ATOM     33  C   UNL     1      12.711  -3.902   4.043  0.00  0.00    +0.043 A 
ATOM     34  N   UNL     1      12.361  -5.162   4.138  0.00  0.00    -0.380 N 
ATOM     35  C   UNL     1      10.907  -5.231   4.319  0.00  0.00    +0.144 C 
ATOM     36  H   UNL     1      12.963  -5.921   4.099  0.00  0.00    +0.160 HD
ENDBRANCH  26  27
ENDBRANCH  25  26
ENDBRANCH   4  25
TORSDOF 11
