REMARK  Name = ZINC63708111
REMARK  7 active torsions:
REMARK  status: ('A' for Active; 'I' for Inactive)
REMARK    1  A    between atoms: C_1  and  C_2
REMARK    2  A    between atoms: C_4  and  N_8
REMARK    3  A    between atoms: C_9  and  C_11
REMARK    4  A    between atoms: C_11  and  S_12
REMARK    5  A    between atoms: S_12  and  C_13
REMARK    6  A    between atoms: C_25  and  C_28
REMARK    7  A    between atoms: C_32  and  N_34
REMARK                            x       y       z     vdW  Elec       q    Type
REMARK                         _______ _______ _______ _____ _____    ______ ____
ROOT
ATOM      1  C   UNL     1      -2.860  -7.353   3.444  0.00  0.00    +0.245 C 
ATOM      2  N   UNL     1      -3.934  -6.571   4.053  0.00  0.00    -0.357 N 
ATOM      3  C   UNL     1      -3.741  -5.675   5.002  0.00  0.00    +0.048 A 
ATOM      4  C   UNL     1      -4.791  -4.853   5.466  0.00  0.00    +0.026 A 
ATOM      5  C   UNL     1      -4.530  -3.883   6.382  0.00  0.00    +0.002 A 
ATOM      6  C   UNL     1      -3.251  -3.675   6.893  0.00  0.00    +0.001 A 
ATOM      7  C   UNL     1      -2.198  -4.457   6.516  0.00  0.00    +0.013 A 
ATOM      8  C   UNL     1      -2.409  -5.493   5.603  0.00  0.00    +0.035 A 
ATOM      9  C   UNL     1      -1.415  -6.418   5.240  0.00  0.00    +0.113 C 
ATOM     10  N   UNL     1      -1.689  -7.402   4.325  0.00  0.00    -0.220 N 
ATOM     11  N   UNL     1      -0.738  -8.373   4.394  0.00  0.00    -0.212 NA
ATOM     12  C   UNL     1       0.273  -7.901   5.365  0.00  0.00    +0.188 C 
ATOM     13  N   UNL     1      -0.130  -6.511   5.650  0.00  0.00    -0.311 N 
ATOM     14  H   UNL     1      -0.322  -8.537   3.490  0.00  0.00    +0.147 HD
ATOM     15  H   UNL     1       0.413  -5.812   6.048  0.00  0.00    +0.149 HD
ATOM     16  H   UNL     1      -4.841  -6.718   3.741  0.00  0.00    +0.162 HD
ENDROOT
BRANCH  12  17
ATOM     17  C   UNL     1       0.232  -8.735   6.620  0.00  0.00    -0.009 A 
ATOM     18  C   UNL     1      -0.148 -10.063   6.555  0.00  0.00    +0.007 A 
ATOM     19  C   UNL     1      -0.186 -10.827   7.705  0.00  0.00    +0.003 A 
ATOM     20  C   UNL     1       0.155 -10.265   8.921  0.00  0.00    +0.033 A 
ATOM     21  C   UNL     1       0.536  -8.937   8.986  0.00  0.00    +0.127 A 
ATOM     22  C   UNL     1       0.578  -8.174   7.834  0.00  0.00    +0.039 A 
BRANCH  21  23
ATOM     23  N   UNL     1       0.901  -8.335  10.287  0.00  0.00    +0.056 N 
ATOM     24  O   UNL     1       0.866  -9.004  11.294  0.00  0.00    -0.126 OA
ATOM     25  O   UNL     1       1.233  -7.174  10.344  0.00  0.00    -0.126 OA
ENDBRANCH  21  23
ENDBRANCH  12  17
BRANCH   1  26
ATOM     26  S   UNL     1      -2.389  -6.593   1.865  0.00  0.00    -0.107 S 
BRANCH  26  27
ATOM     27  C   UNL     1      -1.828  -4.931   2.329  0.00  0.00    +0.168 C 
BRANCH  27  29
ATOM     28  N   UNL     1      -0.946  -2.918   1.194  0.00  0.00    -0.288 N 
ATOM     29  C   UNL     1      -1.402  -4.182   1.093  0.00  0.00    +0.225 C 
ATOM     30  O   UNL     1      -1.470  -4.717   0.006  0.00  0.00    -0.275 OA
ATOM     31  H   UNL     1      -0.891  -2.491   2.063  0.00  0.00    +0.151 HD
BRANCH  28  35
ATOM     32  C   UNL     1      -0.018   1.503   0.010  0.00  0.00    +0.067 C 
ATOM     33  C   UNL     1       0.002  -0.004   0.002  0.00  0.00    +0.060 C 
ATOM     34  C   UNL     1      -1.086  -0.777   0.003  0.00  0.00    +0.045 C 
ATOM     35  C   UNL     1      -0.531  -2.190  -0.007  0.00  0.00    +0.239 C 
ATOM     36  N   UNL     1       0.926  -1.973  -0.013  0.00  0.00    -0.160 NA
ATOM     37  N   UNL     1       1.125  -0.756  -0.013  0.00  0.00    -0.157 NA
ENDBRANCH  28  35
ENDBRANCH  27  29
ENDBRANCH  26  27
ENDBRANCH   1  26
TORSDOF 6
