REMARK  Name = ZINC13565846
REMARK  9 active torsions:
REMARK  status: ('A' for Active; 'I' for Inactive)
REMARK    1  A    between atoms: C_1  and  C_2
REMARK    2  A    between atoms: C_2  and  O_3
REMARK    3  A    between atoms: O_3  and  C_4
REMARK    4  A    between atoms: C_4  and  C_6
REMARK    5  A    between atoms: C_7  and  C_21
REMARK    6  A    between atoms: C_12  and  C_14
REMARK    7  A    between atoms: C_21  and  N_65
REMARK    8  A    between atoms: C_29  and  C_31
REMARK    9  A    between atoms: C_29  and  O_38
REMARK                            x       y       z     vdW  Elec       q    Type
REMARK                         _______ _______ _______ _____ _____    ______ ____
ROOT
ATOM      1  C   UNL     1      -4.208   1.046   2.370  0.00  0.00    +0.076 C 
ATOM      2  C   UNL     1      -4.940   1.220   3.491  0.00  0.00    +0.008 C 
ATOM      3  N   UNL     1      -6.205   0.714   3.592  0.00  0.00    -0.274 N 
ATOM      4  C   UNL     1      -6.804   0.014   2.621  0.00  0.00    +0.304 C 
ATOM      5  O   UNL     1      -7.932  -0.401   2.806  0.00  0.00    -0.252 OA
ATOM      6  N   UNL     1      -6.199  -0.246   1.446  0.00  0.00    -0.288 N 
ATOM      7  C   UNL     1      -4.832   0.261   1.234  0.00  0.00    +0.143 C 
ATOM      8  H   UNL     1      -6.694   0.867   4.415  0.00  0.00    +0.156 HD
ATOM      9  H   UNL     1      -6.652  -0.755   0.755  0.00  0.00    +0.151 HD
ENDROOT
BRANCH   7  10
ATOM     10  C   UNL     1      -3.941  -0.917   0.938  0.00  0.00    -0.022 A 
ATOM     11  C   UNL     1      -3.998  -2.045   1.736  0.00  0.00    +0.007 A 
ATOM     12  C   UNL     1      -3.184  -3.127   1.462  0.00  0.00    +0.020 A 
ATOM     13  C   UNL     1      -2.304  -3.079   0.395  0.00  0.00    +0.041 A 
ATOM     14  C   UNL     1      -2.243  -1.948  -0.399  0.00  0.00    +0.020 A 
ATOM     15  C   UNL     1      -3.061  -0.868  -0.128  0.00  0.00    +0.007 A 
ATOM     16 CL   UNL     1      -1.277  -4.436   0.054  0.00  0.00    -0.084 Cl
ENDBRANCH   7  10
BRANCH   1  17
ATOM     17  C   UNL     1      -2.900   1.574   2.262  0.00  0.00    +0.339 C 
ATOM     18  O   UNL     1      -2.705   2.591   1.623  0.00  0.00    -0.245 OA
BRANCH  17  19
ATOM     19  O   UNL     1      -1.868   0.950   2.867  0.00  0.00    -0.462 OA
BRANCH  19  21
ATOM     20  C   UNL     1       0.459   0.696   3.466  0.00  0.00    +0.048 C 
ATOM     21  C   UNL     1      -0.575   1.538   2.716  0.00  0.00    +0.229 C 
ENDBRANCH  19  21
ENDBRANCH  17  19
ENDBRANCH   1  17
BRANCH   2  22
ATOM     22  C   UNL     1      -4.355   1.989   4.647  0.00  0.00    -0.026 C 
BRANCH  22  30
ATOM     23  C   UNL     1      -4.837   4.237   3.840  0.00  0.00    -0.065 C 
ATOM     24  C   UNL     1      -3.479   4.830   4.282  0.00  0.00    -0.017 C 
ATOM     25  C   UNL     1      -3.420   4.588   5.804  0.00  0.00    -0.017 C 
ATOM     26  C   UNL     1      -4.747   3.871   6.144  0.00  0.00    -0.065 C 
ATOM     27  C   UNL     1      -5.810   4.939   6.450  0.00  0.00    +0.024 C 
ATOM     28  C   UNL     1      -5.773   6.004   5.350  0.00  0.00    +0.088 C 
ATOM     29  C   UNL     1      -5.921   5.337   3.980  0.00  0.00    +0.024 C 
ATOM     30  N   UNL     1      -5.132   3.249   4.882  0.00  0.00    +0.387 N 
ATOM     31  H   UNL     1      -6.135   3.031   4.888  0.00  0.00    -0.080 HD
BRANCH  28  32
ATOM     32  C   UNL     1      -6.904   6.978   5.559  0.00  0.00    -0.016 A 
ATOM     33  C   UNL     1      -8.081   6.555   6.148  0.00  0.00    +0.009 A 
ATOM     34  C   UNL     1      -9.117   7.448   6.344  0.00  0.00    +0.039 A 
ATOM     35  C   UNL     1      -8.980   8.765   5.940  0.00  0.00    +0.123 A 
ATOM     36  C   UNL     1      -7.803   9.187   5.345  0.00  0.00    +0.039 A 
ATOM     37  C   UNL     1      -6.766   8.293   5.155  0.00  0.00    +0.009 A 
ATOM     38  F   UNL     1      -9.993   9.639   6.127  0.00  0.00    -0.205 F 
ENDBRANCH  28  32
BRANCH  28  39
ATOM     39  O   UNL     1      -4.528   6.702   5.406  0.00  0.00    -0.384 OA
ATOM     40  H   UNL     1      -4.435   7.394   4.737  0.00  0.00    +0.211 HD
ENDBRANCH  28  39
ENDBRANCH  22  30
ENDBRANCH   2  22
TORSDOF 8
