REMARK  Name = ZINC66515170
REMARK  6 active torsions:
REMARK  status: ('A' for Active; 'I' for Inactive)
REMARK    1  A    between atoms: C_1  and  C_2
REMARK    2  A    between atoms: C_2  and  C_3
REMARK    3  A    between atoms: C_3  and  N_4
REMARK    4  A    between atoms: C_10  and  N_13
REMARK    5  A    between atoms: C_14  and  C_16
REMARK    6  A    between atoms: C_16  and  N_17
REMARK                            x       y       z     vdW  Elec       q    Type
REMARK                         _______ _______ _______ _____ _____    ______ ____
ROOT
ATOM      1  N   UNL     1       2.317  -4.794  -4.319  0.00  0.00    -0.284 N 
ATOM      2  C   UNL     1       2.851  -5.770  -5.079  0.00  0.00    +0.235 C 
ATOM      3  O   UNL     1       3.429  -6.699  -4.555  0.00  0.00    -0.274 OA
ATOM      4  H   UNL     1       1.786  -4.094  -4.731  0.00  0.00    +0.155 HD
ENDROOT
BRANCH   1  11
ATOM      5  N   UNL     1      -0.380  -3.338  -1.090  0.00  0.00    +0.385 N 
ATOM      6  C   UNL     1       0.698  -3.397  -0.077  0.00  0.00    -0.042 C 
ATOM      7  C   UNL     1       1.832  -4.154  -0.730  0.00  0.00    -0.061 A 
ATOM      8  C   UNL     1       2.943  -4.783  -0.200  0.00  0.00    +0.002 A 
ATOM      9  C   UNL     1       3.846  -5.416  -1.034  0.00  0.00    +0.002 A 
ATOM     10  C   UNL     1       3.642  -5.422  -2.400  0.00  0.00    +0.023 A 
ATOM     11  C   UNL     1       2.527  -4.790  -2.936  0.00  0.00    +0.035 A 
ATOM     12  C   UNL     1       1.621  -4.156  -2.096  0.00  0.00    -0.041 A 
ATOM     13  C   UNL     1       0.343  -3.401  -2.381  0.00  0.00    -0.040 C 
ATOM     14  H   UNL     1      -1.002  -4.127  -0.994  0.00  0.00    -0.081 HD
BRANCH   5  15
ATOM     15  C   UNL     1      -1.126  -2.078  -0.978  0.00  0.00    -0.078 C 
BRANCH  15  17
ATOM     16  C   UNL     1      -2.738  -0.779   0.421  0.00  0.00    +0.002 C 
ATOM     17  C   UNL     1      -1.961  -2.092   0.304  0.00  0.00    -0.022 C 
ENDBRANCH  15  17
ENDBRANCH   5  15
ENDBRANCH   1  11
BRANCH   2  18
ATOM     18  C   UNL     1       2.731  -5.707  -6.580  0.00  0.00    +0.214 C 
BRANCH  18  19
ATOM     19  N   UNL     1       3.388  -6.875  -7.172  0.00  0.00    -0.215 N 
ATOM     20  C   UNL     1       4.689  -6.915  -7.526  0.00  0.00    +0.247 C 
ATOM     21  O   UNL     1       5.506  -6.025  -7.420  0.00  0.00    -0.273 OA
ATOM     22  C   UNL     1       4.914  -8.302  -8.083  0.00  0.00    +0.113 C 
ATOM     23  C   UNL     1       5.949  -9.048  -7.249  0.00  0.00    +0.035 C 
ATOM     24  C   UNL     1       6.139 -10.460  -7.811  0.00  0.00    +0.003 C 
ATOM     25  C   UNL     1       6.601 -10.370  -9.267  0.00  0.00    +0.000 C 
ATOM     26  C   UNL     1       5.542  -9.639 -10.095  0.00  0.00    +0.003 C 
ATOM     27  C   UNL     1       5.349  -8.225  -9.543  0.00  0.00    +0.035 C 
ATOM     28  N   UNL     1       3.600  -8.948  -7.972  0.00  0.00    -0.285 N 
ATOM     29  C   UNL     1       2.773  -8.038  -7.423  0.00  0.00    +0.310 C 
ATOM     30  O   UNL     1       1.600  -8.247  -7.185  0.00  0.00    -0.252 OA
ATOM     31  H   UNL     1       3.373  -9.853  -8.237  0.00  0.00    +0.151 HD
ENDBRANCH  18  19
ENDBRANCH   2  18
TORSDOF 5
