REMARK  Name = ZINC56764848
REMARK  11 active torsions:
REMARK  status: ('A' for Active; 'I' for Inactive)
REMARK    1  A    between atoms: C_1  and  C_2
REMARK    2  A    between atoms: C_2  and  N_3
REMARK    3  A    between atoms: N_3  and  C_4
REMARK    4  A    between atoms: N_3  and  C_6
REMARK    5  A    between atoms: C_4  and  C_5
REMARK    6  A    between atoms: C_6  and  C_8
REMARK    7  A    between atoms: C_6  and  C_9
REMARK    8  A    between atoms: C_9  and  N_10
REMARK    9  A    between atoms: N_13  and  C_14
REMARK   10  A    between atoms: C_17  and  N_21
REMARK   11  A    between atoms: C_22  and  C_24
REMARK                            x       y       z     vdW  Elec       q    Type
REMARK                         _______ _______ _______ _____ _____    ______ ____
ROOT
ATOM      1  C   UNL     1       4.497  -1.378  -6.319  0.00  0.00    +0.036 A 
ATOM      2  C   UNL     1       5.839  -1.608  -6.594  0.00  0.00    +0.025 A 
ATOM      3  C   UNL     1       6.283  -1.629  -7.901  0.00  0.00    +0.026 A 
ATOM      4  C   UNL     1       5.388  -1.419  -8.942  0.00  0.00    +0.052 A 
ATOM      5  C   UNL     1       4.045  -1.188  -8.668  0.00  0.00    +0.064 A 
ATOM      6  C   UNL     1       3.601  -1.173  -7.360  0.00  0.00    +0.045 A 
ATOM      7 CL   UNL     1       2.926  -0.926  -9.968  0.00  0.00    -0.082 Cl
ENDROOT
BRANCH   1  11
ATOM      8  N   UNL     1       2.347  -1.713  -3.433  0.00  0.00    -0.301 N 
ATOM      9  C   UNL     1       2.818  -1.822  -4.691  0.00  0.00    +0.304 C 
ATOM     10  O   UNL     1       2.135  -2.340  -5.553  0.00  0.00    -0.253 OA
ATOM     11  N   UNL     1       4.047  -1.358  -4.993  0.00  0.00    -0.269 N 
ATOM     12  H   UNL     1       2.892  -1.300  -2.745  0.00  0.00    +0.150 HD
ATOM     13  H   UNL     1       4.619  -1.009  -4.291  0.00  0.00    +0.156 HD
BRANCH   8  14
ATOM     14  C   UNL     1       1.011  -2.219  -3.105  0.00  0.00    +0.090 C 
BRANCH  14  15
ATOM     15  C   UNL     1       0.672  -1.860  -1.656  0.00  0.00    -0.054 C 
ATOM     16  C   UNL     1      -0.747  -2.332  -1.333  0.00  0.00    -0.012 C 
BRANCH  15  17
ATOM     17  N   UNL     1       0.756  -0.404  -1.480  0.00  0.00    +0.382 N 
ATOM     18  H   UNL     1       1.681  -0.088  -1.729  0.00  0.00    -0.081 HD
BRANCH  17  20
ATOM     19  C   UNL     1      -0.057   1.769  -2.261  0.00  0.00    -0.017 C 
ATOM     20  C   UNL     1      -0.235   0.252  -2.343  0.00  0.00    -0.082 C 
ENDBRANCH  17  20
BRANCH  17  21
ATOM     21  C   UNL     1       0.484  -0.065  -0.076  0.00  0.00    -0.082 C 
ATOM     22  C   UNL     1       1.587  -0.644   0.811  0.00  0.00    -0.017 C 
ENDBRANCH  17  21
ENDBRANCH  15  17
ENDBRANCH  14  15
ENDBRANCH   8  14
ENDBRANCH   1  11
BRANCH   4  23
ATOM     23  N   UNL     1       5.839  -1.439 -10.268  0.00  0.00    -0.278 N 
ATOM     24  C   UNL     1       6.851  -2.256 -10.623  0.00  0.00    +0.284 C 
ATOM     25  O   UNL     1       7.317  -3.035  -9.813  0.00  0.00    -0.266 OA
ATOM     26  H   UNL     1       5.423  -0.866 -10.930  0.00  0.00    +0.155 HD
BRANCH  24  27
ATOM     27  C   UNL     1       7.389  -2.206 -11.986  0.00  0.00    +0.189 A 
ATOM     28  C   UNL     1       8.403  -2.977 -12.477  0.00  0.00    +0.054 A 
ATOM     29  C   UNL     1       8.588  -2.597 -13.815  0.00  0.00    +0.042 A 
ATOM     30  C   UNL     1       7.689  -1.623 -14.080  0.00  0.00    +0.196 A 
ATOM     31  O   UNL     1       6.965  -1.394 -12.976  0.00  0.00    -0.458 OA
ENDBRANCH  24  27
ENDBRANCH   4  23
TORSDOF 8
