REMARK  Name = ZINC38805437
REMARK  10 active torsions:
REMARK  status: ('A' for Active; 'I' for Inactive)
REMARK    1  A    between atoms: C_1  and  C_2
REMARK    2  A    between atoms: C_2  and  O_3
REMARK    3  A    between atoms: O_3  and  C_4
REMARK    4  A    between atoms: C_12  and  N_23
REMARK    5  A    between atoms: C_13  and  C_14
REMARK    6  A    between atoms: C_24  and  C_26
REMARK    7  A    between atoms: C_26  and  O_27
REMARK    8  A    between atoms: O_27  and  C_28
REMARK    9  A    between atoms: C_31  and  O_34
REMARK   10  A    between atoms: O_34  and  C_35
REMARK                            x       y       z     vdW  Elec       q    Type
REMARK                         _______ _______ _______ _____ _____    ______ ____
ROOT
ATOM      1  C   UNL     1      -1.497  -1.836   0.006  0.00  0.00    +0.403 C 
ATOM      2  O   UNL     1      -0.523  -2.563  -0.007  0.00  0.00    -0.226 OA
ATOM      3  N   UNL     1      -2.735  -2.368   0.015  0.00  0.00    -0.262 N 
ATOM      4  C   UNL     1      -2.941  -3.824   0.016  0.00  0.00    +0.116 C 
ATOM      5  C   UNL     1      -3.618  -4.246   1.321  0.00  0.00    +0.056 C 
ATOM      6  C   UNL     1      -4.811  -3.333   1.587  0.00  0.00    -0.023 A 
ATOM      7  C   UNL     1      -4.909  -2.123   0.990  0.00  0.00    +0.013 A 
ATOM      8  S   UNL     1      -6.426  -1.437   1.594  0.00  0.00    -0.076 S 
ATOM      9  C   UNL     1      -6.930  -2.785   2.649  0.00  0.00    +0.082 A 
ATOM     10  C   UNL     1      -5.898  -3.693   2.479  0.00  0.00    +0.039 A 
ATOM     11  C   UNL     1      -3.938  -1.512   0.032  0.00  0.00    +0.153 C 
ENDROOT
BRANCH  10  12
ATOM     12  C   UNL     1      -5.903  -4.987   3.184  0.00  0.00    +0.112 A 
ATOM     13  N   UNL     1      -5.010  -5.954   3.143  0.00  0.00    -0.239 NA
ATOM     14  C   UNL     1      -5.147  -7.095   3.849  0.00  0.00    +0.079 A 
ATOM     15  C   UNL     1      -4.269  -8.204   3.894  0.00  0.00    +0.029 A 
ATOM     16  C   UNL     1      -4.560  -9.296   4.670  0.00  0.00    +0.002 A 
ATOM     17  C   UNL     1      -5.717  -9.355   5.434  0.00  0.00    +0.001 A 
ATOM     18  C   UNL     1      -6.597  -8.290   5.414  0.00  0.00    +0.017 A 
ATOM     19  C   UNL     1      -6.315  -7.191   4.640  0.00  0.00    +0.040 A 
ATOM     20  S   UNL     1      -7.120  -5.640   4.319  0.00  0.00    -0.067 S 
ENDBRANCH  10  12
BRANCH   9  21
ATOM     21  N   UNL     1      -8.068  -2.896   3.439  0.00  0.00    -0.277 N 
ATOM     22  C   UNL     1      -8.967  -1.892   3.470  0.00  0.00    +0.255 C 
ATOM     23  O   UNL     1      -8.783  -0.892   2.808  0.00  0.00    -0.272 OA
ATOM     24  H   UNL     1      -8.216  -3.695   3.968  0.00  0.00    +0.155 HD
BRANCH  22  25
ATOM     25  C   UNL     1     -10.201  -2.011   4.326  0.00  0.00    +0.324 C 
BRANCH  25  26
ATOM     26  O   UNL     1     -10.992  -0.829   4.190  0.00  0.00    -0.483 OA
BRANCH  26  27
ATOM     27  C   UNL     1     -12.149  -0.774   4.903  0.00  0.00    +0.121 A 
ATOM     28  C   UNL     1     -12.511  -1.836   5.719  0.00  0.00    +0.049 A 
ATOM     29  C   UNL     1     -13.686  -1.780   6.443  0.00  0.00    +0.049 A 
ATOM     30  C   UNL     1     -14.504  -0.664   6.353  0.00  0.00    +0.120 A 
ATOM     31  C   UNL     1     -14.141   0.398   5.538  0.00  0.00    +0.049 A 
ATOM     32  C   UNL     1     -12.964   0.344   4.817  0.00  0.00    +0.049 A 
BRANCH  30  33
ATOM     33  O   UNL     1     -15.662  -0.610   7.065  0.00  0.00    -0.495 OA
ATOM     34  C   UNL     1     -16.455   0.571   6.925  0.00  0.00    +0.277 C 
ENDBRANCH  30  33
ENDBRANCH  26  27
ENDBRANCH  25  26
ENDBRANCH  22  25
ENDBRANCH   9  21
BRANCH   1  35
ATOM     35  O   UNL     1      -1.339  -0.499   0.012  0.00  0.00    -0.451 OA
BRANCH  35  37
ATOM     36  C   UNL     1      -0.019   1.526   0.010  0.00  0.00    +0.048 C 
ATOM     37  C   UNL     1       0.002  -0.004   0.002  0.00  0.00    +0.230 C 
ENDBRANCH  35  37
ENDBRANCH   1  35
TORSDOF 8
