REMARK  Name = ZINC63737518
REMARK  7 active torsions:
REMARK  status: ('A' for Active; 'I' for Inactive)
REMARK    1  A    between atoms: C_1  and  C_2
REMARK    2  A    between atoms: C_2  and  C_3
REMARK    3  A    between atoms: N_5  and  C_6
REMARK    4  A    between atoms: C_9  and  S_12
REMARK    5  A    between atoms: S_12  and  N_15
REMARK    6  A    between atoms: N_15  and  C_16
REMARK    7  A    between atoms: C_20  and  C_22
REMARK                            x       y       z     vdW  Elec       q    Type
REMARK                         _______ _______ _______ _____ _____    ______ ____
ROOT
ATOM      1  N   UNL     1      -7.800  -4.333  -1.826  0.00  0.00    -0.216 N 
ATOM      2  H   UNL     1      -8.506  -3.735  -2.118  0.00  0.00    +0.174 HD
ENDROOT
BRANCH   1   3
ATOM      3  C   UNL     1      -7.274  -5.277  -2.711  0.00  0.00    +0.048 A 
ATOM      4  C   UNL     1      -5.899  -5.455  -2.801  0.00  0.00    +0.024 A 
ATOM      5  C   UNL     1      -5.382  -6.390  -3.677  0.00  0.00    +0.002 A 
ATOM      6  C   UNL     1      -6.231  -7.146  -4.464  0.00  0.00    +0.006 A 
ATOM      7  C   UNL     1      -7.600  -6.970  -4.377  0.00  0.00    -0.020 A 
ATOM      8  C   UNL     1      -8.124  -6.042  -3.499  0.00  0.00    +0.030 A 
BRANCH   7   9
ATOM      9  C   UNL     1      -8.521  -7.796  -5.237  0.00  0.00    +0.133 C 
ATOM     10  C   UNL     1      -8.537  -7.258  -6.650  0.00  0.00    +0.012 C 
ATOM     11  C   UNL     1      -8.085  -8.259  -7.439  0.00  0.00    -0.004 A 
ATOM     12  C   UNL     1      -7.870  -8.365  -8.886  0.00  0.00    +0.010 A 
ATOM     13  C   UNL     1      -7.396  -9.525  -9.396  0.00  0.00    +0.001 A 
ATOM     14  C   UNL     1      -7.107 -10.626  -8.579  0.00  0.00    +0.002 A 
ATOM     15  C   UNL     1      -7.279 -10.605  -7.240  0.00  0.00    +0.026 A 
ATOM     16  C   UNL     1      -7.772  -9.436  -6.597  0.00  0.00    +0.043 A 
ATOM     17  N   UNL     1      -8.022  -9.173  -5.335  0.00  0.00    -0.374 N 
ATOM     18  H   UNL     1      -7.898  -9.784  -4.593  0.00  0.00    +0.161 HD
ENDBRANCH   7   9
ENDBRANCH   1   3
BRANCH   1  19
ATOM     19  S   UNL     1      -7.220  -4.235  -0.278  0.00  0.00    +0.072 S 
ATOM     20  O   UNL     1      -7.993  -3.244   0.384  0.00  0.00    -0.150 OA
ATOM     21  O   UNL     1      -5.804  -4.155  -0.380  0.00  0.00    -0.150 OA
BRANCH  19  25
ATOM     22  C   UNL     1      -8.151  -8.175   1.753  0.00  0.00    +0.033 A 
ATOM     23  C   UNL     1      -6.909  -7.971   1.165  0.00  0.00    +0.025 A 
ATOM     24  C   UNL     1      -6.628  -6.769   0.546  0.00  0.00    +0.030 A 
ATOM     25  C   UNL     1      -7.582  -5.768   0.512  0.00  0.00    +0.109 A 
ATOM     26  C   UNL     1      -8.819  -5.967   1.097  0.00  0.00    +0.030 A 
ATOM     27  C   UNL     1      -9.108  -7.170   1.711  0.00  0.00    +0.025 A 
BRANCH  22  30
ATOM     28  C   UNL     1      -9.682  -9.908   2.312  0.00  0.00    +0.217 C 
ATOM     29  O   UNL     1     -10.571  -9.278   1.780  0.00  0.00    -0.275 OA
ATOM     30  N   UNL     1      -8.438  -9.392   2.380  0.00  0.00    -0.286 N 
ATOM     31  H   UNL     1      -7.743  -9.864   2.864  0.00  0.00    +0.155 HD
BRANCH  28  33
ATOM     32  C   UNL     1     -11.441 -11.614   2.686  0.00  0.00    +0.013 C 
ATOM     33  C   UNL     1      -9.966 -11.268   2.896  0.00  0.00    +0.093 C 
ENDBRANCH  28  33
ENDBRANCH  22  30
ENDBRANCH  19  25
ENDBRANCH   1  19
TORSDOF 6
