REMARK  Name = ZINC02863718
REMARK  12 active torsions:
REMARK  status: ('A' for Active; 'I' for Inactive)
REMARK    1  A    between atoms: C_1  and  C_2
REMARK    2  A    between atoms: C_2  and  CA_3
REMARK    3  A    between atoms: CA_3  and  C_5
REMARK    4  A    between atoms: CA_3  and  N_41
REMARK    5  A    between atoms: C_5  and  O_6
REMARK    6  A    between atoms: C_7  and  C_8
REMARK    7  A    between atoms: C_7  and  N_41
REMARK    8  A    between atoms: C_10  and  O_19
REMARK    9  A    between atoms: C_11  and  O_15
REMARK   10  A    between atoms: O_15  and  C_16
REMARK   11  A    between atoms: C_16  and  C_17
REMARK   12  A    between atoms: O_19  and  C_20
REMARK                            x       y       z     vdW  Elec       q    Type
REMARK                         _______ _______ _______ _____ _____    ______ ____
ROOT
ATOM      1  C   UNL     1       0.936   0.439   4.819  0.00  0.00    -0.060 A 
ATOM      2  C   UNL     1       1.347   1.612   4.212  0.00  0.00    +0.051 A 
ATOM      3  C   UNL     1       0.807   1.988   2.993  0.00  0.00    +0.163 A 
ATOM      4  C   UNL     1      -0.148   1.182   2.381  0.00  0.00    +0.175 A 
ATOM      5  C   UNL     1      -0.559   0.010   2.995  0.00  0.00    +0.059 A 
ATOM      6  C   UNL     1      -0.012  -0.362   4.210  0.00  0.00    +0.020 A 
ATOM      7  I   UNL     1      -2.003  -1.202   2.082  0.00  0.00    -0.040 I 
ENDROOT
BRANCH   3   8
ATOM      8  O   UNL     1       1.209   3.141   2.396  0.00  0.00    -0.491 OA
ATOM      9  C   UNL     1       2.193   3.918   3.083  0.00  0.00    +0.277 C 
ENDBRANCH   3   8
BRANCH   1  10
ATOM     10  C   UNL     1       1.525   0.032   6.145  0.00  0.00    -0.046 C 
BRANCH  10  11
ATOM     11  N   UNL     1       0.703   0.597   7.232  0.00  0.00    +0.385 N 
ATOM     12  H1  UNL     1       0.695   1.620   7.153  0.00  0.00    -0.085 HD
ATOM     13  H2  UNL     1      -0.256   0.240   7.152  0.00  0.00    -0.085 HD
BRANCH  11  14
ATOM     14  CA  UNL     1       1.257   0.214   8.544  0.00  0.00    -0.046 C 
BRANCH  14  16
ATOM     15  C   UNL     1       1.467   2.598   9.260  0.00  0.00    +0.002 C 
ATOM     16  C   UNL     1       0.831   1.246   9.590  0.00  0.00    -0.017 C 
ENDBRANCH  14  16
BRANCH  14  17
ATOM     17  C   UNL     1       0.723  -1.164   8.941  0.00  0.00    +0.140 C 
BRANCH  17  18
ATOM     18  O   UNL     1      -0.692  -1.092   9.127  0.00  0.00    -0.397 OA
ATOM     19  H   UNL     1      -1.099  -1.931   9.381  0.00  0.00    +0.209 HD
ENDBRANCH  17  18
ENDBRANCH  14  17
ENDBRANCH  11  14
ENDBRANCH  10  11
ENDBRANCH   1  10
BRANCH   4  20
ATOM     20  O   UNL     1      -0.682   1.547   1.184  0.00  0.00    -0.483 OA
BRANCH  20  21
ATOM     21  C   UNL     1      -0.013   1.086   0.008  0.00  0.00    +0.256 C 
BRANCH  21  22
ATOM     22  C   UNL     1      -0.742   1.585  -1.213  0.00  0.00    +0.006 C 
ATOM     23  C   UNL     1      -0.069   2.095  -2.215  0.00  0.00    +0.007 C 
ENDBRANCH  21  22
ENDBRANCH  20  21
ENDBRANCH   4  20
TORSDOF 10
