REMARK  Name = ZINC15226985
REMARK  9 active torsions:
REMARK  status: ('A' for Active; 'I' for Inactive)
REMARK    1  A    between atoms: C_1  and  C_2
REMARK    2  A    between atoms: C_4  and  C_18
REMARK    3  A    between atoms: C_5  and  C_17
REMARK    4  A    between atoms: N_6  and  C_7
REMARK    5  A    between atoms: C_9  and  C_15
REMARK    6  A    between atoms: C_11  and  C_13
REMARK    7  A    between atoms: C_19  and  C_20
REMARK    8  A    between atoms: C_19  and  C_22
REMARK    9  A    between atoms: N_24  and  C_25
REMARK                            x       y       z     vdW  Elec       q    Type
REMARK                         _______ _______ _______ _____ _____    ______ ____
ROOT
ATOM      1  C   UNL     1       4.545   4.628  -2.000  0.00  0.00    +0.064 C 
ATOM      2  C   UNL     1       4.630   5.644  -0.890  0.00  0.00    +0.022 A 
ATOM      3  C   UNL     1       5.754   6.252  -0.476  0.00  0.00    +0.031 A 
ATOM      4  C   UNL     1       5.361   7.153   0.617  0.00  0.00    -0.003 A 
ATOM      5  C   UNL     1       3.991   7.001   0.759  0.00  0.00    +0.028 A 
ATOM      6  N   UNL     1       3.575   6.093  -0.145  0.00  0.00    -0.317 N 
ATOM      7  C   UNL     1       3.120   7.723   1.754  0.00  0.00    +0.064 C 
ENDROOT
BRANCH   6   8
ATOM      8  C   UNL     1       2.247   5.672  -0.303  0.00  0.00    +0.048 A 
ATOM      9  C   UNL     1       1.282   6.574  -0.725  0.00  0.00    +0.041 A 
ATOM     10  C   UNL     1      -0.042   6.159  -0.885  0.00  0.00    +0.066 A 
ATOM     11  C   UNL     1      -0.391   4.835  -0.625  0.00  0.00    +0.030 A 
ATOM     12  C   UNL     1       0.581   3.933  -0.196  0.00  0.00    +0.066 A 
ATOM     13  C   UNL     1       1.903   4.356  -0.039  0.00  0.00    +0.041 A 
BRANCH  12  14
ATOM     14  C   UNL     1       0.215   2.529   0.086  0.00  0.00    +0.387 C 
ATOM     15  O   UNL     1       1.064   1.742   0.455  0.00  0.00    -0.241 OA
ATOM     16  O   UNL     1      -1.060   2.122  -0.067  0.00  0.00    -0.241 OA
ENDBRANCH  12  14
BRANCH  10  17
ATOM     17  C   UNL     1      -1.070   7.120  -1.335  0.00  0.00    +0.387 C 
ATOM     18  O   UNL     1      -0.764   8.273  -1.566  0.00  0.00    -0.241 OA
ATOM     19  O   UNL     1      -2.346   6.718  -1.489  0.00  0.00    -0.241 OA
ENDBRANCH  10  17
ENDBRANCH   6   8
BRANCH   4  20
ATOM     20  C   UNL     1       6.209   8.005   1.369  0.00  0.00    +0.033 C 
ATOM     21  C   UNL     1       7.196   8.732   0.732  0.00  0.00    +0.114 C 
BRANCH  21  22
ATOM     22  C   UNL     1       7.249   8.772  -0.735  0.00  0.00    +0.259 C 
ATOM     23  O   UNL     1       6.355   8.269  -1.390  0.00  0.00    -0.269 OA
ATOM     24  N   UNL     1       8.288   9.365  -1.357  0.00  0.00    -0.280 N 
ATOM     25  H   UNL     1       8.971   9.815  -0.836  0.00  0.00    +0.155 HD
BRANCH  24  26
ATOM     26  C   UNL     1       8.380   9.331  -2.752  0.00  0.00    +0.052 A 
ATOM     27  C   UNL     1       7.228   9.265  -3.525  0.00  0.00    +0.025 A 
ATOM     28  C   UNL     1       7.323   9.236  -4.902  0.00  0.00    +0.002 A 
ATOM     29  C   UNL     1       8.563   9.262  -5.513  0.00  0.00    +0.002 A 
ATOM     30  C   UNL     1       9.713   9.321  -4.747  0.00  0.00    +0.022 A 
ATOM     31  C   UNL     1       9.626   9.356  -3.369  0.00  0.00    +0.062 A 
ATOM     32 CL   UNL     1      11.070   9.430  -2.408  0.00  0.00    -0.082 Cl
ENDBRANCH  24  26
ENDBRANCH  21  22
BRANCH  21  33
ATOM     33  C   UNL     1       8.168   9.448   1.503  0.00  0.00    +0.104 C 
ATOM     34  N   UNL     1       8.939  10.015   2.115  0.00  0.00    -0.191 NA
ENDBRANCH  21  33
ENDBRANCH   4  20
TORSDOF 7
