REMARK  Name = ZINC43223290
REMARK  6 active torsions:
REMARK  status: ('A' for Active; 'I' for Inactive)
REMARK    1  A    between atoms: C_1  and  C_2
REMARK    2  A    between atoms: C_2  and  C_3
REMARK    3  A    between atoms: C_2  and  N_4
REMARK    4  A    between atoms: C_5  and  C_7
REMARK    5  A    between atoms: C_12  and  C_14
REMARK    6  A    between atoms: N_16  and  C_17
REMARK                            x       y       z     vdW  Elec       q    Type
REMARK                         _______ _______ _______ _____ _____    ______ ____
ROOT
ATOM      1  C   UNL     1      -3.465  -1.164  -1.134  0.00  0.00    +0.068 C 
ATOM      2  C   UNL     1      -4.384  -0.204  -0.349  0.00  0.00    -0.069 C 
ATOM      3  N   UNL     1      -4.981   0.674  -1.387  0.00  0.00    +0.380 N 
ATOM      4  C   UNL     1      -5.256  -0.240  -2.526  0.00  0.00    -0.069 C 
ATOM      5  C   UNL     1      -4.037  -1.190  -2.566  0.00  0.00    +0.068 C 
ATOM      6  H   UNL     1      -5.839   1.086  -1.051  0.00  0.00    -0.086 HD
ATOM      7  H   UNL     1      -4.327   1.392  -1.661  0.00  0.00    -0.086 HD
ENDROOT
BRANCH   1   9
ATOM      8  N   UNL     1      -1.372  -0.511   0.012  0.00  0.00    -0.313 N 
ATOM      9  C   UNL     1      -2.051  -0.643  -1.145  0.00  0.00    +0.215 C 
ATOM     10  O   UNL     1      -1.524  -0.341  -2.194  0.00  0.00    -0.276 OA
ATOM     11  H   UNL     1      -1.794  -0.752   0.852  0.00  0.00    +0.149 HD
BRANCH   8  13
ATOM     12  C   UNL     1      -0.019   1.526   0.010  0.00  0.00    +0.027 C 
ATOM     13  C   UNL     1       0.002  -0.004   0.002  0.00  0.00    +0.067 C 
ATOM     14  C   UNL     1       0.742  -0.511   1.242  0.00  0.00    +0.027 C 
ENDBRANCH   8  13
ENDBRANCH   1   9
BRANCH   5  15
ATOM     15  C   UNL     1      -4.471  -2.586  -2.931  0.00  0.00    +0.215 C 
ATOM     16  O   UNL     1      -4.343  -3.490  -2.132  0.00  0.00    -0.276 OA
ATOM     17  N   UNL     1      -5.003  -2.831  -4.145  0.00  0.00    -0.308 N 
ATOM     18  H   UNL     1      -5.106  -2.108  -4.784  0.00  0.00    +0.149 HD
BRANCH  17  19
ATOM     19  C   UNL     1      -5.425  -4.188  -4.500  0.00  0.00    +0.104 C 
ATOM     20  C   UNL     1      -6.492  -4.143  -5.614  0.00  0.00    +0.032 C 
ATOM     21  C   UNL     1      -6.167  -5.408  -6.437  0.00  0.00    +0.037 C 
ATOM     22  C   UNL     1      -4.692  -5.662  -6.206  0.00  0.00    -0.042 A 
ATOM     23  C   UNL     1      -4.266  -4.962  -5.090  0.00  0.00    -0.024 A 
ATOM     24  C   UNL     1      -2.944  -5.046  -4.686  0.00  0.00    +0.006 A 
ATOM     25  C   UNL     1      -2.049  -5.827  -5.391  0.00  0.00    +0.000 A 
ATOM     26  C   UNL     1      -2.474  -6.528  -6.504  0.00  0.00    +0.000 A 
ATOM     27  C   UNL     1      -3.795  -6.444  -6.913  0.00  0.00    +0.004 A 
ENDBRANCH  17  19
ENDBRANCH   5  15
TORSDOF 4
