REMARK  Name = ZINC09118068
REMARK  14 active torsions:
REMARK  status: ('A' for Active; 'I' for Inactive)
REMARK    1  A    between atoms: C_1  and  C_2
REMARK    2  A    between atoms: C_2  and  O_3
REMARK    3  A    between atoms: O_3  and  C_4
REMARK    4  A    between atoms: C_4  and  C_6
REMARK    5  A    between atoms: C_10  and  N_11
REMARK    6  A    between atoms: C_12  and  C_14
REMARK    7  A    between atoms: C_14  and  S_15
REMARK    8  A    between atoms: S_15  and  C_16
REMARK    9  A    between atoms: C_18  and  C_23
REMARK   10  A    between atoms: C_20  and  N_22
REMARK   11  A    between atoms: C_24  and  C_29
REMARK   12  A    between atoms: C_24  and  C_30
REMARK   13  A    between atoms: C_25  and  C_27
REMARK   14  A    between atoms: C_25  and  C_28
REMARK                            x       y       z     vdW  Elec       q    Type
REMARK                         _______ _______ _______ _____ _____    ______ ____
ROOT
ATOM      1  C   UNL     1      -7.613   0.041   0.038  0.00  0.00    +0.091 A 
ATOM      2  C   UNL     1      -8.867   0.764   0.053  0.00  0.00    -0.024 A 
ATOM      3  C   UNL     1      -8.763   2.113   0.054  0.00  0.00    -0.016 A 
ATOM      4  S   UNL     1      -7.022   2.427   0.046  0.00  0.00    -0.079 S 
ATOM      5  C   UNL     1      -6.443   0.794   0.037  0.00  0.00    +0.086 A 
ATOM      6  C   UNL     1      -9.891   3.092   0.052  0.00  0.00    -0.041 C 
ATOM      7  C   UNL     1     -11.179   1.102   0.836  0.00  0.00    -0.069 C 
ATOM      8  C   UNL     1     -10.257   0.142   0.076  0.00  0.00    +0.024 C 
ATOM      9  C   UNL     1     -10.759   1.146   2.308  0.00  0.00    -0.010 C 
ATOM     10  C   UNL     1     -12.609   0.536   0.768  0.00  0.00    -0.010 C 
ATOM     11  C   UNL     1      -9.655   4.145   1.144  0.00  0.00    -0.005 C 
ATOM     12  C   UNL     1      -9.905   3.814  -1.309  0.00  0.00    -0.005 C 
ATOM     13  N   UNL     1     -11.230   2.461   0.237  0.00  0.00    +0.389 N 
ATOM     14  H   UNL     1     -11.683   2.391  -0.682  0.00  0.00    -0.084 HD
ATOM     15  H   UNL     1     -11.790   3.064   0.851  0.00  0.00    -0.084 HD
ENDROOT
BRANCH   5  16
ATOM     16  N   UNL     1      -5.132   0.344   0.028  0.00  0.00    -0.279 N 
ATOM     17  C   UNL     1      -4.116   1.230   0.028  0.00  0.00    +0.228 C 
ATOM     18  O   UNL     1      -4.348   2.420   0.036  0.00  0.00    -0.275 OA
ATOM     19  H   UNL     1      -4.946  -0.608   0.022  0.00  0.00    +0.155 HD
BRANCH  17  20
ATOM     20  C   UNL     1      -2.690   0.741   0.019  0.00  0.00    +0.173 C 
BRANCH  20  21
ATOM     21  S   UNL     1      -1.566   2.159   0.021  0.00  0.00    -0.077 S 
BRANCH  21  22
ATOM     22  C   UNL     1      -0.016   1.321   0.009  0.00  0.00    +0.191 A 
ATOM     23  N   UNL     1       1.103   2.031   0.002  0.00  0.00    -0.227 NA
ATOM     24  C   UNL     1       2.287   1.437  -0.012  0.00  0.00    +0.044 A 
ATOM     25  C   UNL     1       2.350   0.057  -0.020  0.00  0.00    +0.066 A 
ATOM     26  C   UNL     1       1.155  -0.665  -0.013  0.00  0.00    +0.121 A 
ATOM     27  N   UNL     1       0.002  -0.004   0.002  0.00  0.00    -0.207 NA
ATOM     28  C   UNL     1       3.551   2.257  -0.019  0.00  0.00    +0.066 C 
BRANCH  26  29
ATOM     29  N   UNL     1       1.171  -2.050  -0.020  0.00  0.00    -0.343 N 
ATOM     30  H   UNL     1       0.336  -2.545  -0.014  0.00  0.00    +0.144 HD
ATOM     31  H   UNL     1       2.016  -2.526  -0.030  0.00  0.00    +0.144 HD
ENDBRANCH  26  29
ENDBRANCH  21  22
ENDBRANCH  20  21
ENDBRANCH  17  20
ENDBRANCH   5  16
BRANCH   1  32
ATOM     32  C   UNL     1      -7.564  -1.422   0.021  0.00  0.00    +0.342 C 
ATOM     33  O   UNL     1      -7.535  -2.042   1.067  0.00  0.00    -0.245 OA
BRANCH  32  34
ATOM     34  O   UNL     1      -7.551  -2.083  -1.155  0.00  0.00    -0.461 OA
BRANCH  34  36
ATOM     35  C   UNL     1      -7.494  -4.101  -2.517  0.00  0.00    +0.048 C 
ATOM     36  C   UNL     1      -7.502  -3.533  -1.096  0.00  0.00    +0.229 C 
ENDBRANCH  34  36
ENDBRANCH  32  34
ENDBRANCH   1  32
TORSDOF 8
