REMARK  Name = ZINC20837554
REMARK  10 active torsions:
REMARK  status: ('A' for Active; 'I' for Inactive)
REMARK    1  A    between atoms: C_1  and  N_2
REMARK    2  A    between atoms: C_4  and  C_7
REMARK    3  A    between atoms: N_8  and  N_9
REMARK    4  A    between atoms: C_12  and  S_15
REMARK    5  A    between atoms: S_15  and  C_16
REMARK    6  A    between atoms: C_16  and  C_17
REMARK    7  A    between atoms: N_19  and  C_20
REMARK    8  A    between atoms: C_23  and  S_26
REMARK    9  A    between atoms: S_26  and  N_29
REMARK   10  A    between atoms: N_32  and  C_35
REMARK                            x       y       z     vdW  Elec       q    Type
REMARK                         _______ _______ _______ _____ _____    ______ ____
ROOT
ATOM      1  C   UNL     1       3.254   0.759   7.487  0.00  0.00    +0.227 C 
ATOM      2  O   UNL     1       2.163   1.129   7.869  0.00  0.00    -0.275 OA
ATOM      3  N   UNL     1       3.408   0.303   6.228  0.00  0.00    -0.285 N 
ATOM      4  H   UNL     1       4.374  -0.113   5.908  0.00  0.00    +0.155 HD
ENDROOT
BRANCH   3   5
ATOM      5  C   UNL     1       2.337   0.358   5.328  0.00  0.00    +0.034 A 
ATOM      6  C   UNL     1       1.423   1.401   5.397  0.00  0.00    +0.025 A 
ATOM      7  C   UNL     1       0.368   1.453   4.507  0.00  0.00    +0.030 A 
ATOM      8  C   UNL     1       0.222   0.468   3.548  0.00  0.00    +0.106 A 
ATOM      9  C   UNL     1       1.128  -0.575   3.480  0.00  0.00    +0.030 A 
ATOM     10  C   UNL     1       2.188  -0.630   4.364  0.00  0.00    +0.025 A 
BRANCH   8  11
ATOM     11  S   UNL     1      -1.125   0.537   2.414  0.00  0.00    +0.061 S 
ATOM     12  O   UNL     1      -2.141   1.311   3.038  0.00  0.00    -0.153 OA
ATOM     13  O   UNL     1      -1.348  -0.793   1.966  0.00  0.00    -0.153 OA
BRANCH  11  14
ATOM     14  N   UNL     1      -0.613   1.401   1.098  0.00  0.00    -0.180 NA
ATOM     15  C   UNL     1       0.022   0.728  -0.046  0.00  0.00    +0.091 C 
ATOM     16  C   UNL     1      -0.685   1.172  -1.331  0.00  0.00    -0.062 C 
ATOM     17  N   UNL     1      -0.693   2.639  -1.400  0.00  0.00    +0.380 N 
ATOM     18  C   UNL     1      -1.461   3.220  -0.291  0.00  0.00    -0.062 C 
ATOM     19  C   UNL     1      -0.786   2.861   1.037  0.00  0.00    +0.091 C 
ATOM     20  C   UNL     1      -1.207   3.102  -2.696  0.00  0.00    -0.096 C 
ATOM     21  H   UNL     1       0.347   2.984  -1.304  0.00  0.00    -0.082 HD
ENDBRANCH  11  14
ENDBRANCH   8  11
ENDBRANCH   3   5
BRANCH   1  22
ATOM     22  C   UNL     1       4.436   0.811   8.420  0.00  0.00    +0.173 C 
BRANCH  22  23
ATOM     23  S   UNL     1       3.910   1.466  10.027  0.00  0.00    -0.075 S 
BRANCH  23  27
ATOM     24  N   UNL     1       7.324   2.016  13.921  0.00  0.00    -0.205 N 
ATOM     25  C   UNL     1       6.798   1.714  12.674  0.00  0.00    +0.232 A 
ATOM     26  N   UNL     1       5.496   1.875  12.290  0.00  0.00    -0.186 NA
ATOM     27  C   UNL     1       5.385   1.464  10.992  0.00  0.00    +0.211 A 
ATOM     28  N   UNL     1       6.567   1.061  10.591  0.00  0.00    -0.144 NA
ATOM     29  N   UNL     1       7.464   1.225  11.655  0.00  0.00    -0.245 N 
ATOM     30  H   UNL     1       6.673   2.425  14.708  0.00  0.00    +0.177 HD
ATOM     31  H   UNL     1       8.540   1.021  11.749  0.00  0.00    +0.192 HD
BRANCH  24  33
ATOM     32  C   UNL     1       9.175   2.083  15.347  0.00  0.00    +0.141 C 
ATOM     33  N   UNL     1       8.684   1.801  14.180  0.00  0.00    -0.187 NA
BRANCH  32  37
ATOM     34  C   UNL     1      13.615   1.866  17.638  0.00  0.00    +0.172 C 
ATOM     35  N   UNL     1      12.557   1.763  16.631  0.00  0.00    -0.274 N 
ATOM     36  C   UNL     1      11.265   2.108  16.804  0.00  0.00    +0.117 A 
ATOM     37  C   UNL     1      10.609   1.857  15.619  0.00  0.00    +0.032 A 
ATOM     38  C   UNL     1      11.559   1.335  14.716  0.00  0.00    +0.143 A 
ATOM     39  N   UNL     1      12.714   1.289  15.323  0.00  0.00    -0.179 NA
ENDBRANCH  32  37
ENDBRANCH  24  33
ENDBRANCH  23  27
ENDBRANCH  22  23
ENDBRANCH   1  22
TORSDOF 8
