REMARK  Name = ZINC63207696
REMARK  12 active torsions:
REMARK  status: ('A' for Active; 'I' for Inactive)
REMARK    1  A    between atoms: C_1  and  C_2
REMARK    2  A    between atoms: C_2  and  C_3
REMARK    3  A    between atoms: C_3  and  C_4
REMARK    4  A    between atoms: N_6  and  C_7
REMARK    5  A    between atoms: C_11  and  N_14
REMARK    6  A    between atoms: C_12  and  C_13
REMARK    7  A    between atoms: C_15  and  C_17
REMARK    8  A    between atoms: N_19  and  C_20
REMARK    9  A    between atoms: C_20  and  C_21
REMARK   10  A    between atoms: C_21  and  C_22
REMARK   11  A    between atoms: C_22  and  N_23
REMARK   12  A    between atoms: C_27  and  C_28
REMARK                            x       y       z     vdW  Elec       q    Type
REMARK                         _______ _______ _______ _____ _____    ______ ____
ROOT
ATOM      1  N   UNL     1       2.258  -6.761   4.449  0.00  0.00    -0.277 N 
ATOM      2  C   UNL     1       2.284  -8.108   4.446  0.00  0.00    +0.303 C 
ATOM      3  O   UNL     1       1.772  -8.723   3.532  0.00  0.00    -0.265 OA
ATOM      4  H   UNL     1       2.605  -6.271   5.211  0.00  0.00    +0.155 HD
ENDROOT
BRANCH   1   9
ATOM      5  C   UNL     1       1.758  -4.172   1.883  0.00  0.00    +0.038 A 
ATOM      6  C   UNL     1       0.680  -4.703   1.185  0.00  0.00    +0.024 A 
ATOM      7  C   UNL     1       0.132  -5.911   1.572  0.00  0.00    +0.004 A 
ATOM      8  C   UNL     1       0.654  -6.595   2.653  0.00  0.00    +0.024 A 
ATOM      9  C   UNL     1       1.731  -6.069   3.355  0.00  0.00    +0.038 A 
ATOM     10  C   UNL     1       2.288  -4.859   2.965  0.00  0.00    -0.008 A 
ATOM     11  C   UNL     1       3.461  -4.288   3.720  0.00  0.00    +0.047 C 
BRANCH   5  14
ATOM     12  C   UNL     1       2.180  -2.527   0.217  0.00  0.00    +0.217 C 
ATOM     13  O   UNL     1       1.672  -3.251  -0.613  0.00  0.00    -0.275 OA
ATOM     14  N   UNL     1       2.311  -2.948   1.490  0.00  0.00    -0.285 N 
ATOM     15  H   UNL     1       2.789  -2.403   2.135  0.00  0.00    +0.155 HD
BRANCH  12  16
ATOM     16  C   UNL     1       2.666  -1.155  -0.177  0.00  0.00    +0.096 C 
BRANCH  16  18
ATOM     17  C   UNL     1       2.893   0.464  -2.066  0.00  0.00    +0.004 C 
ATOM     18  C   UNL     1       2.400  -0.928  -1.666  0.00  0.00    +0.006 C 
ENDBRANCH  16  18
ENDBRANCH  12  16
ENDBRANCH   5  14
ENDBRANCH   1   9
BRANCH   2  19
ATOM     19  C   UNL     1       2.942  -8.845   5.566  0.00  0.00    +0.299 C 
ATOM     20  O   UNL     1       3.453  -8.231   6.479  0.00  0.00    -0.265 OA
ATOM     21  N   UNL     1       2.968 -10.193   5.562  0.00  0.00    -0.308 N 
ATOM     22  H   UNL     1       2.559 -10.684   4.832  0.00  0.00    +0.149 HD
BRANCH  21  23
ATOM     23  C   UNL     1       3.613 -10.916   6.660  0.00  0.00    +0.106 C 
BRANCH  23  24
ATOM     24  C   UNL     1       3.503 -12.422   6.414  0.00  0.00    +0.040 C 
BRANCH  24  25
ATOM     25  C   UNL     1       4.177 -13.177   7.561  0.00  0.00    +0.124 C 
BRANCH  25  26
ATOM     26  N   UNL     1       4.072 -14.619   7.325  0.00  0.00    -0.336 N 
ATOM     27  C   UNL     1       3.105 -15.454   7.818  0.00  0.00    +0.104 A 
ATOM     28  C   UNL     1       3.385 -16.688   7.357  0.00  0.00    +0.101 A 
ATOM     29  N   UNL     1       4.492 -16.609   6.604  0.00  0.00    -0.350 N 
ATOM     30  C   UNL     1       4.906 -15.372   6.576  0.00  0.00    +0.084 A 
ATOM     31  C   UNL     1       6.117 -14.867   5.835  0.00  0.00    +0.084 C 
ATOM     32  H   UNL     1       4.916 -17.354   6.149  0.00  0.00    +0.166 HD
ENDBRANCH  25  26
ENDBRANCH  24  25
ENDBRANCH  23  24
ENDBRANCH  21  23
ENDBRANCH   2  19
TORSDOF 9
