REMARK  Name = ZINC20465207
REMARK  7 active torsions:
REMARK  status: ('A' for Active; 'I' for Inactive)
REMARK    1  A    between atoms: N_9  and  C_11
REMARK    2  A    between atoms: C_13  and  C_23
REMARK    3  A    between atoms: C_16  and  C_21
REMARK    4  A    between atoms: C_18  and  O_20
REMARK    5  A    between atoms: C_21  and  O_22
REMARK    6  A    between atoms: C_23  and  N_24
REMARK    7  A    between atoms: C_25  and  C_27
REMARK                            x       y       z     vdW  Elec       q    Type
REMARK                         _______ _______ _______ _____ _____    ______ ____
ROOT
ATOM      1  C   UNL     1       1.312   3.532   0.279  0.00  0.00    -0.006 C 
ATOM      2  C   UNL     1       1.146   2.748   1.595  0.00  0.00    +0.125 C 
ATOM      3  O   UNL     1       1.277   1.352   1.280  0.00  0.00    -0.369 OA
ATOM      4  C   UNL     1       2.097   1.262   0.095  0.00  0.00    +0.171 C 
ATOM      5  C   UNL     1       1.598   2.440  -0.780  0.00  0.00    +0.135 C 
ENDROOT
BRANCH   1  14
ATOM      6  C   UNL     1      -3.376   7.042  -2.369  0.00  0.00    +0.000 A 
ATOM      7  C   UNL     1      -2.157   7.516  -2.818  0.00  0.00    +0.000 A 
ATOM      8  C   UNL     1      -0.991   6.883  -2.437  0.00  0.00    +0.002 A 
ATOM      9  C   UNL     1      -1.035   5.774  -1.605  0.00  0.00    -0.061 A 
ATOM     10  C   UNL     1      -2.250   5.303  -1.156  0.00  0.00    -0.048 A 
ATOM     11  C   UNL     1      -3.421   5.939  -1.541  0.00  0.00    +0.004 A 
ATOM     12  C   UNL     1      -2.348   4.105  -0.247  0.00  0.00    +0.017 C 
ATOM     13  C   UNL     1      -1.037   3.318  -0.278  0.00  0.00    -0.073 C 
ATOM     14  N   UNL     1       0.075   4.254  -0.048  0.00  0.00    +0.388 N 
ATOM     15  C   UNL     1       0.264   5.115  -1.220  0.00  0.00    -0.042 C 
ATOM     16  H   UNL     1      -0.176   4.893   0.812  0.00  0.00    -0.081 HD
ENDBRANCH   1  14
BRANCH   5  17
ATOM     17  O   UNL     1       0.405   2.085  -1.481  0.00  0.00    -0.391 OA
ATOM     18  H   UNL     1       0.439   1.319  -2.270  0.00  0.00    +0.210 HD
ENDBRANCH   5  17
BRANCH   4  19
ATOM     19  C   UNL     1       1.870  -0.072  -0.618  0.00  0.00    +0.190 C 
BRANCH  19  20
ATOM     20  O   UNL     1       2.442  -1.129   0.156  0.00  0.00    -0.392 OA
ATOM     21  H   UNL     1       2.377  -2.168  -0.200  0.00  0.00    +0.210 HD
ENDBRANCH  19  20
ENDBRANCH   4  19
BRANCH   2  22
ATOM     22  C   UNL     1      -0.237   3.019   2.192  0.00  0.00    +0.134 C 
BRANCH  22  23
ATOM     23  N   UNL     1      -0.153   2.983   3.654  0.00  0.00    -0.313 N 
ATOM     24  C   UNL     1      -1.257   3.196   4.398  0.00  0.00    +0.216 C 
ATOM     25  O   UNL     1      -2.319   3.418   3.856  0.00  0.00    -0.276 OA
ATOM     26  H   UNL     1       0.810   2.782   4.145  0.00  0.00    +0.149 HD
BRANCH  24  27
ATOM     27  C   UNL     1      -1.171   3.159   5.902  0.00  0.00    +0.075 C 
ATOM     28  C   UNL     1      -0.731   1.758   6.372  0.00  0.00    +0.013 C 
ATOM     29  C   UNL     1      -1.543   1.520   7.670  0.00  0.00    +0.001 C 
ATOM     30  C   UNL     1      -2.915   2.157   7.337  0.00  0.00    +0.001 C 
ATOM     31  C   UNL     1      -2.559   3.414   6.515  0.00  0.00    +0.013 C 
ENDBRANCH  24  27
ENDBRANCH  22  23
ENDBRANCH   2  22
TORSDOF 7
