REMARK  Name = ZINC63572227
REMARK  7 active torsions:
REMARK  status: ('A' for Active; 'I' for Inactive)
REMARK    1  A    between atoms: C_1  and  C_2
REMARK    2  A    between atoms: C_5  and  O_35
REMARK    3  A    between atoms: C_6  and  N_8
REMARK    4  A    between atoms: C_24  and  C_26
REMARK    5  A    between atoms: C_29  and  O_32
REMARK    6  A    between atoms: O_32  and  C_33
REMARK    7  A    between atoms: O_35  and  C_36
REMARK                            x       y       z     vdW  Elec       q    Type
REMARK                         _______ _______ _______ _____ _____    ______ ____
ROOT
ATOM      1  N   UNL     1       1.823  -2.541   2.706  0.00  0.00    -0.266 N 
ATOM      2  C   UNL     1       1.318  -1.957   3.811  0.00  0.00    +0.307 C 
ATOM      3  O   UNL     1       1.205  -0.748   3.862  0.00  0.00    -0.252 OA
ATOM      4  N   UNL     1       0.937  -2.715   4.859  0.00  0.00    -0.276 N 
ATOM      5  C   UNL     1       1.208  -4.156   4.849  0.00  0.00    +0.114 C 
ATOM      6  C   UNL     1      -0.115  -4.928   5.006  0.00  0.00    +0.052 C 
ATOM      7  C   UNL     1      -0.879  -4.254   6.119  0.00  0.00    -0.035 C 
ATOM      8  C   UNL     1      -1.441  -4.742   7.218  0.00  0.00    +0.001 A 
ATOM      9  C   UNL     1      -1.620  -6.122   7.696  0.00  0.00    +0.030 A 
ATOM     10  C   UNL     1      -2.235  -6.264   8.901  0.00  0.00    +0.042 A 
ATOM     11  C   UNL     1      -2.684  -5.183   9.668  0.00  0.00    +0.022 A 
ATOM     12  C   UNL     1      -2.568  -3.882   9.301  0.00  0.00    +0.027 A 
ATOM     13  C   UNL     1      -1.945  -3.607   8.049  0.00  0.00    +0.043 A 
ATOM     14  N   UNL     1      -1.728  -2.473   7.449  0.00  0.00    -0.375 N 
ATOM     15  C   UNL     1      -1.119  -2.749   6.147  0.00  0.00    +0.131 C 
ATOM     16  C   UNL     1       0.259  -2.086   6.003  0.00  0.00    +0.134 C 
ATOM     17 CL   UNL     1      -2.477  -7.869   9.519  0.00  0.00    -0.084 Cl
ATOM     18  H   UNL     1       1.840  -3.508   2.633  0.00  0.00    +0.156 HD
ATOM     19  H   UNL     1      -1.933  -1.595   7.805  0.00  0.00    +0.160 HD
ENDROOT
BRANCH   1  25
ATOM     20  C   UNL     1       1.802   1.705   0.225  0.00  0.00    +0.044 C 
ATOM     21  C   UNL     1       2.333   0.311   0.438  0.00  0.00    -0.048 A 
ATOM     22  C   UNL     1       3.316  -0.188  -0.398  0.00  0.00    +0.007 A 
ATOM     23  C   UNL     1       3.807  -1.466  -0.208  0.00  0.00    +0.048 A 
ATOM     24  C   UNL     1       3.315  -2.252   0.821  0.00  0.00    +0.141 A 
ATOM     25  C   UNL     1       2.325  -1.750   1.663  0.00  0.00    +0.077 A 
ATOM     26  C   UNL     1       1.841  -0.465   1.470  0.00  0.00    +0.030 A 
BRANCH  24  27
ATOM     27  O   UNL     1       3.796  -3.509   1.008  0.00  0.00    -0.493 OA
ATOM     28  C   UNL     1       4.810  -3.957   0.106  0.00  0.00    +0.277 C 
ENDBRANCH  24  27
ENDBRANCH   1  25
BRANCH  16  29
ATOM     29  C   UNL     1       0.094  -0.609   5.750  0.00  0.00    -0.024 A 
ATOM     30  C   UNL     1      -0.705  -0.173   4.709  0.00  0.00    +0.009 A 
ATOM     31  C   UNL     1      -0.858   1.180   4.474  0.00  0.00    +0.046 A 
ATOM     32  C   UNL     1      -0.210   2.101   5.285  0.00  0.00    +0.120 A 
ATOM     33  C   UNL     1       0.590   1.660   6.329  0.00  0.00    +0.046 A 
ATOM     34  C   UNL     1       0.736   0.307   6.562  0.00  0.00    +0.009 A 
BRANCH  32  35
ATOM     35  O   UNL     1      -0.358   3.432   5.056  0.00  0.00    -0.495 OA
ATOM     36  C   UNL     1       0.338   4.322   5.930  0.00  0.00    +0.277 C 
ENDBRANCH  32  35
ENDBRANCH  16  29
TORSDOF 4
