REMARK  Name = ZINC39657742
REMARK  11 active torsions:
REMARK  status: ('A' for Active; 'I' for Inactive)
REMARK    1  A    between atoms: C_1  and  S_2
REMARK    2  A    between atoms: S_2  and  C_3
REMARK    3  A    between atoms: C_3  and  C_4
REMARK    4  A    between atoms: C_4  and  C_5
REMARK    5  A    between atoms: C_9  and  C_18
REMARK    6  A    between atoms: N_20  and  C_21
REMARK    7  A    between atoms: C_21  and  C_22
REMARK    8  A    between atoms: C_27  and  S_28
REMARK    9  A    between atoms: S_28  and  C_29
REMARK   10  A    between atoms: C_34  and  C_35
REMARK   11  A    between atoms: C_35  and  O_36
REMARK                            x       y       z     vdW  Elec       q    Type
REMARK                         _______ _______ _______ _____ _____    ______ ____
ROOT
ATOM      1  C   UNL     1      -2.801  -5.503   2.892  0.00  0.00    +0.218 C 
ATOM      2  O   UNL     1      -2.568  -4.428   3.402  0.00  0.00    -0.275 OA
ATOM      3  N   UNL     1      -2.786  -6.623   3.642  0.00  0.00    -0.311 N 
ATOM      4  H   UNL     1      -2.902  -7.489   3.221  0.00  0.00    +0.149 HD
ENDROOT
BRANCH   1   9
ATOM      5  C   UNL     1      -2.958  -2.059   0.615  0.00  0.00    +0.216 C 
ATOM      6  O   UNL     1      -3.851  -1.240   0.578  0.00  0.00    -0.276 OA
ATOM      7  N   UNL     1      -3.243  -3.372   0.514  0.00  0.00    -0.300 N 
ATOM      8  C   UNL     1      -2.310  -4.516   0.641  0.00  0.00    +0.121 C 
ATOM      9  C   UNL     1      -3.108  -5.586   1.419  0.00  0.00    +0.100 C 
ATOM     10  C   UNL     1      -4.584  -5.242   1.157  0.00  0.00    -0.004 C 
ATOM     11  C   UNL     1      -4.562  -3.998   0.257  0.00  0.00    +0.115 C 
ATOM     12  C   UNL     1      -5.293  -4.923   2.469  0.00  0.00    -0.010 C 
ATOM     13  C   UNL     1      -6.772  -4.639   2.189  0.00  0.00    -0.082 C 
ATOM     14  N   UNL     1      -7.384  -5.811   1.552  0.00  0.00    +0.379 N 
ATOM     15  C   UNL     1      -6.758  -6.056   0.247  0.00  0.00    -0.082 C 
ATOM     16  C   UNL     1      -5.279  -6.399   0.445  0.00  0.00    -0.010 C 
ATOM     17  H   UNL     1      -7.255  -6.619   2.142  0.00  0.00    -0.086 HD
ATOM     18  H   UNL     1      -8.371  -5.646   1.424  0.00  0.00    -0.086 HD
BRANCH   5  19
ATOM     19  C   UNL     1      -1.528  -1.608   0.774  0.00  0.00    +0.106 C 
BRANCH  19  20
ATOM     20  C   UNL     1      -1.468  -0.080   0.735  0.00  0.00    +0.078 C 
BRANCH  20  22
ATOM     21  C   UNL     1       0.158   2.267   0.881  0.00  0.00    +0.084 C 
ATOM     22  S   UNL     1       0.263   0.459   0.780  0.00  0.00    -0.164 S 
ENDBRANCH  20  22
ENDBRANCH  19  20
ENDBRANCH   5  19
ENDBRANCH   1   9
BRANCH   3  23
ATOM     23  C   UNL     1      -2.594  -6.531   5.091  0.00  0.00    +0.140 C 
BRANCH  23  24
ATOM     24  C   UNL     1      -2.494  -7.918   5.673  0.00  0.00    -0.017 A 
ATOM     25  C   UNL     1      -3.578  -8.473   6.325  0.00  0.00    +0.006 A 
ATOM     26  C   UNL     1      -3.488  -9.745   6.860  0.00  0.00    +0.000 A 
ATOM     27  C   UNL     1      -2.313 -10.466   6.744  0.00  0.00    +0.001 A 
ATOM     28  C   UNL     1      -1.226  -9.917   6.093  0.00  0.00    +0.015 A 
ATOM     29  C   UNL     1      -1.315  -8.641   5.550  0.00  0.00    +0.017 A 
BRANCH  29  30
ATOM     30  S   UNL     1       0.068  -7.940   4.712  0.00  0.00    -0.089 S 
BRANCH  30  31
ATOM     31  C   UNL     1       0.735  -6.795   5.874  0.00  0.00    +0.018 A 
ATOM     32  C   UNL     1       0.214  -6.727   7.161  0.00  0.00    +0.015 A 
ATOM     33  C   UNL     1       0.739  -5.829   8.069  0.00  0.00    +0.001 A 
ATOM     34  C   UNL     1       1.782  -4.998   7.699  0.00  0.00    +0.000 A 
ATOM     35  C   UNL     1       2.301  -5.063   6.420  0.00  0.00    +0.007 A 
ATOM     36  C   UNL     1       1.785  -5.963   5.508  0.00  0.00    -0.008 A 
BRANCH  36  37
ATOM     37  C   UNL     1       2.357  -6.038   4.116  0.00  0.00    +0.192 C 
BRANCH  37  38
ATOM     38  O   UNL     1       3.337  -5.012   3.947  0.00  0.00    -0.390 OA
ATOM     39  H   UNL     1       3.693  -4.951   3.050  0.00  0.00    +0.210 HD
ENDBRANCH  37  38
ENDBRANCH  36  37
ENDBRANCH  30  31
ENDBRANCH  29  30
ENDBRANCH  23  24
ENDBRANCH   3  23
TORSDOF 10
