REMARK  Name = ZINC04121501
REMARK  2 active torsions:
REMARK  status: ('A' for Active; 'I' for Inactive)
REMARK    1  A    between atoms: N_11  and  N_12
REMARK    2  A    between atoms: C_13  and  C_15
REMARK                            x       y       z     vdW  Elec       q    Type
REMARK                         _______ _______ _______ _____ _____    ______ ____
ROOT
ATOM      1  C   UNL     1      -0.017   1.368   0.010  0.00  0.00    +0.079 A 
ATOM      2  C   UNL     1       1.159   2.109   0.002  0.00  0.00    +0.127 A 
ATOM      3  C   UNL     1       2.375   1.448  -0.013  0.00  0.00    +0.055 A 
ATOM      4  C   UNL     1       2.402   0.075  -0.021  0.00  0.00    +0.046 A 
ATOM      5  C   UNL     1       1.228  -0.711  -0.013  0.00  0.00    +0.116 A 
ATOM      6  C   UNL     1       0.002  -0.004   0.002  0.00  0.00    +0.152 A 
ATOM      7  F   UNL     1      -1.163  -0.688   0.009  0.00  0.00    -0.203 F 
ATOM      8  N   UNL     1       1.420  -2.050  -0.023  0.00  0.00    -0.221 NA
ATOM      9  C   UNL     1       2.616  -2.590  -0.037  0.00  0.00    +0.176 A 
ATOM     10  S   UNL     1       3.683  -1.156  -0.039  0.00  0.00    -0.051 S 
ATOM     11  N   UNL     1       2.962  -3.927  -0.047  0.00  0.00    -0.242 N 
ATOM     12  F   UNL     1       1.115   3.459   0.010  0.00  0.00    -0.205 F 
ATOM     13  H   UNL     1       2.271  -4.607  -0.044  0.00  0.00    +0.172 HD
ENDROOT
BRANCH  11  14
ATOM     14  N   UNL     1       4.313  -4.301  -0.062  0.00  0.00    -0.228 N 
ATOM     15  C   UNL     1       4.651  -5.606  -0.073  0.00  0.00    +0.298 C 
ATOM     16  O   UNL     1       3.783  -6.459  -0.069  0.00  0.00    -0.265 OA
ATOM     17  H   UNL     1       5.004  -3.621  -0.065  0.00  0.00    +0.173 HD
BRANCH  15  18
ATOM     18  C   UNL     1       6.061  -5.996  -0.088  0.00  0.00    +0.218 C 
ATOM     19  C   UNL     1       7.004  -5.044  -0.086  0.00  0.00    +0.238 C 
ATOM     20  O   UNL     1       8.319  -5.348  -0.108  0.00  0.00    -0.492 OA
ATOM     21  C   UNL     1       8.677  -6.689   0.246  0.00  0.00    +0.269 C 
ATOM     22  C   UNL     1       7.726  -7.646  -0.487  0.00  0.00    +0.270 C 
ATOM     23  O   UNL     1       6.385  -7.319  -0.098  0.00  0.00    -0.481 OA
ENDBRANCH  15  18
ENDBRANCH  11  14
TORSDOF 2
