REMARK  Name = ZINC47877071
REMARK  12 active torsions:
REMARK  status: ('A' for Active; 'I' for Inactive)
REMARK    1  A    between atoms: C_1  and  N_2
REMARK    2  A    between atoms: N_2  and  C_3
REMARK    3  A    between atoms: N_2  and  C_4
REMARK    4  A    between atoms: C_4  and  C_6
REMARK    5  A    between atoms: C_4  and  C_13
REMARK    6  A    between atoms: C_6  and  C_7
REMARK    7  A    between atoms: C_13  and  N_14
REMARK    8  A    between atoms: N_17  and  C_18
REMARK    9  A    between atoms: C_23  and  O_24
REMARK   10  A    between atoms: O_24  and  C_25
REMARK   11  A    between atoms: C_25  and  C_26
REMARK   12  A    between atoms: C_26  and  C_27
REMARK                            x       y       z     vdW  Elec       q    Type
REMARK                         _______ _______ _______ _____ _____    ______ ____
ROOT
ATOM      1  N   UNL     1       1.501  -2.768  -0.075  0.00  0.00    -0.301 N 
ATOM      2  C   UNL     1       1.685  -4.078  -0.333  0.00  0.00    +0.304 C 
ATOM      3  O   UNL     1       0.997  -4.910   0.227  0.00  0.00    -0.253 OA
ATOM      4  N   UNL     1       2.631  -4.466  -1.210  0.00  0.00    -0.266 N 
ATOM      5  H   UNL     1       2.050  -2.104  -0.521  0.00  0.00    +0.150 HD
ATOM      6  H   UNL     1       3.235  -3.811  -1.594  0.00  0.00    +0.156 HD
ENDROOT
BRANCH   4   7
ATOM      7  C   UNL     1       2.744  -5.817  -1.568  0.00  0.00    +0.077 A 
ATOM      8  C   UNL     1       1.650  -6.661  -1.451  0.00  0.00    +0.027 A 
ATOM      9  C   UNL     1       1.763  -7.992  -1.804  0.00  0.00    +0.002 A 
ATOM     10  C   UNL     1       2.966  -8.486  -2.276  0.00  0.00    +0.004 A 
ATOM     11  C   UNL     1       4.061  -7.650  -2.396  0.00  0.00    +0.047 A 
ATOM     12  C   UNL     1       3.954  -6.313  -2.049  0.00  0.00    +0.142 A 
BRANCH  12  13
ATOM     13  O   UNL     1       5.028  -5.489  -2.171  0.00  0.00    -0.490 OA
BRANCH  13  14
ATOM     14  C   UNL     1       6.236  -6.067  -2.671  0.00  0.00    +0.238 C 
BRANCH  14  15
ATOM     15  C   UNL     1       7.325  -4.995  -2.738  0.00  0.00    +0.136 C 
BRANCH  15  16
ATOM     16  C   UNL     1       8.598  -5.605  -3.265  0.00  0.00    +0.214 C 
ATOM     17  O   UNL     1       8.632  -6.781  -3.557  0.00  0.00    -0.276 OA
ATOM     18  N   UNL     1       9.700  -4.843  -3.410  0.00  0.00    -0.329 N 
ATOM     19  H   UNL     1       9.674  -3.902  -3.176  0.00  0.00    +0.145 HD
ATOM     20  H   UNL     1      10.520  -5.236  -3.749  0.00  0.00    +0.145 HD
ENDBRANCH  15  16
ENDBRANCH  14  15
ENDBRANCH  13  14
ENDBRANCH  12  13
ENDBRANCH   4   7
BRANCH   1  21
ATOM     21  C   UNL     1       0.472  -2.347   0.879  0.00  0.00    +0.091 C 
BRANCH  21  22
ATOM     22  C   UNL     1       0.358  -0.821   0.865  0.00  0.00    -0.048 C 
BRANCH  22  24
ATOM     23  C   UNL     1       0.806  -0.671  -1.487  0.00  0.00    -0.096 C 
ATOM     24  N   UNL     1      -0.175  -0.382  -0.432  0.00  0.00    +0.379 N 
ATOM     25  C   UNL     1      -1.425  -1.099  -0.717  0.00  0.00    -0.096 C 
ATOM     26  H   UNL     1      -0.355   0.610  -0.404  0.00  0.00    -0.082 HD
ENDBRANCH  22  24
BRANCH  22  27
ATOM     27  C   UNL     1      -0.585  -0.370   1.982  0.00  0.00    +0.021 C 
BRANCH  27  28
ATOM     28  C   UNL     1      -0.595   1.135   2.053  0.00  0.00    -0.049 A 
ATOM     29  C   UNL     1       0.387   1.800   2.763  0.00  0.00    +0.003 A 
ATOM     30  C   UNL     1       0.378   3.181   2.829  0.00  0.00    +0.000 A 
ATOM     31  C   UNL     1      -0.613   3.897   2.184  0.00  0.00    +0.000 A 
ATOM     32  C   UNL     1      -1.595   3.232   1.473  0.00  0.00    +0.000 A 
ATOM     33  C   UNL     1      -1.583   1.852   1.404  0.00  0.00    +0.003 A 
ENDBRANCH  27  28
ENDBRANCH  22  27
ENDBRANCH  21  22
ENDBRANCH   1  21
TORSDOF 10
