REMARK  Name = ZINC12780770
REMARK  11 active torsions:
REMARK  status: ('A' for Active; 'I' for Inactive)
REMARK    1  A    between atoms: C_1  and  C_2
REMARK    2  A    between atoms: C_5  and  O_33
REMARK    3  A    between atoms: C_6  and  N_8
REMARK    4  A    between atoms: C_9  and  C_11
REMARK    5  A    between atoms: C_11  and  C_13
REMARK    6  A    between atoms: C_11  and  N_59
REMARK    7  A    between atoms: C_19  and  C_21
REMARK    8  A    between atoms: C_19  and  C_22
REMARK    9  A    between atoms: C_19  and  N_59
REMARK   10  A    between atoms: C_25  and  N_28
REMARK   11  A    between atoms: O_33  and  C_34
REMARK                            x       y       z     vdW  Elec       q    Type
REMARK                         _______ _______ _______ _____ _____    ______ ____
ROOT
ATOM      1  C   UNL     1       1.896   2.098  -1.366  0.00  0.00    +0.048 C 
ENDROOT
BRANCH   1   2
ATOM      2  C   UNL     1       2.465   0.762  -1.768  0.00  0.00    -0.053 A 
ATOM      3  C   UNL     1       3.199   0.022  -0.859  0.00  0.00    +0.002 A 
ATOM      4  C   UNL     1       3.718  -1.205  -1.227  0.00  0.00    +0.000 A 
ATOM      5  C   UNL     1       3.511  -1.689  -2.505  0.00  0.00    +0.000 A 
ATOM      6  C   UNL     1       2.781  -0.946  -3.415  0.00  0.00    +0.000 A 
ATOM      7  C   UNL     1       2.259   0.279  -3.046  0.00  0.00    +0.002 A 
ENDBRANCH   1   2
BRANCH   1   9
ATOM      8  N   UNL     1       3.600   3.396  -2.602  0.00  0.00    -0.284 N 
ATOM      9  C   UNL     1       2.976   3.146  -1.434  0.00  0.00    +0.208 C 
ATOM     10  O   UNL     1       3.285   3.765  -0.437  0.00  0.00    -0.277 OA
ATOM     11  H   UNL     1       3.399   2.858  -3.384  0.00  0.00    +0.155 HD
BRANCH   8  17
ATOM     12  C   UNL     1       7.166   6.061  -0.513  0.00  0.00    +0.044 C 
ATOM     13  C   UNL     1       6.279   5.747  -1.691  0.00  0.00    -0.048 A 
ATOM     14  C   UNL     1       6.394   6.483  -2.855  0.00  0.00    +0.007 A 
ATOM     15  C   UNL     1       5.584   6.200  -3.939  0.00  0.00    +0.048 A 
ATOM     16  C   UNL     1       4.658   5.172  -3.862  0.00  0.00    +0.141 A 
ATOM     17  C   UNL     1       4.538   4.434  -2.687  0.00  0.00    +0.076 A 
ATOM     18  C   UNL     1       5.355   4.724  -1.604  0.00  0.00    +0.030 A 
BRANCH  16  19
ATOM     19  O   UNL     1       3.864   4.888  -4.929  0.00  0.00    -0.493 OA
ATOM     20  C   UNL     1       4.042   5.688  -6.101  0.00  0.00    +0.277 C 
ENDBRANCH  16  19
ENDBRANCH   8  17
ENDBRANCH   1   9
BRANCH   1  21
ATOM     21  N   UNL     1       1.383   2.020   0.016  0.00  0.00    +0.394 N 
ATOM     22  H   UNL     1       1.392   2.958   0.434  0.00  0.00    -0.083 HD
ATOM     23  H   UNL     1       1.985   1.395   0.565  0.00  0.00    -0.083 HD
BRANCH  21  24
ATOM     24  C   UNL     1       0.004   1.498   0.021  0.00  0.00    -0.043 C 
ATOM     25  C   UNL     1       0.037  -0.032   0.013  0.00  0.00    -0.009 C 
BRANCH  24  26
ATOM     26  C   UNL     1      -0.702   1.978   1.263  0.00  0.00    -0.061 A 
ATOM     27  C   UNL     1      -0.027   2.015   2.470  0.00  0.00    +0.004 A 
ATOM     28  C   UNL     1      -0.669   2.460   3.608  0.00  0.00    +0.028 A 
ATOM     29  C   UNL     1      -1.997   2.860   3.543  0.00  0.00    +0.067 A 
ATOM     30  C   UNL     1      -2.674   2.817   2.332  0.00  0.00    +0.028 A 
ATOM     31  C   UNL     1      -2.024   2.377   1.195  0.00  0.00    +0.004 A 
BRANCH  29  32
ATOM     32  N   UNL     1      -2.654   3.308   4.698  0.00  0.00    -0.220 N 
ATOM     33  C   UNL     1      -2.134   3.400   5.938  0.00  0.00    +0.225 A 
ATOM     34  N   UNL     1      -3.065   3.862   6.734  0.00  0.00    -0.222 NA
ATOM     35  C   UNL     1      -4.187   4.067   6.045  0.00  0.00    +0.245 A 
ATOM     36  N   UNL     1      -3.986   3.743   4.795  0.00  0.00    -0.154 NA
ENDBRANCH  29  32
ENDBRANCH  24  26
ENDBRANCH  21  24
ENDBRANCH   1  21
TORSDOF 8
