REMARK  Name = ZINC00641155
REMARK  6 active torsions:
REMARK  status: ('A' for Active; 'I' for Inactive)
REMARK    1  A    between atoms: C_3  and  S_21
REMARK    2  A    between atoms: C_6  and  N_7
REMARK    3  A    between atoms: N_7  and  C_8
REMARK    4  A    between atoms: C_8  and  N_10
REMARK    5  A    between atoms: C_11  and  C_13
REMARK    6  A    between atoms: S_21  and  N_24
REMARK                            x       y       z     vdW  Elec       q    Type
REMARK                         _______ _______ _______ _____ _____    ______ ____
ROOT
ATOM      1  N   UNL     1       7.185   0.042  -0.065  0.00  0.00    -0.297 N 
ATOM      2  H   UNL     1       7.138   0.987   0.149  0.00  0.00    +0.154 HD
ENDROOT
BRANCH   1   8
ATOM      3  C   UNL     1       9.224  -0.450   1.132  0.00  0.00    +0.025 A 
ATOM      4  C   UNL     1      10.426  -1.124   1.221  0.00  0.00    +0.030 A 
ATOM      5  C   UNL     1      10.819  -1.976   0.205  0.00  0.00    +0.105 A 
ATOM      6  C   UNL     1      10.009  -2.159  -0.900  0.00  0.00    +0.030 A 
ATOM      7  C   UNL     1       8.803  -1.492  -0.993  0.00  0.00    +0.025 A 
ATOM      8  C   UNL     1       8.405  -0.636   0.025  0.00  0.00    +0.033 A 
BRANCH   5   9
ATOM      9  S   UNL     1      12.356  -2.830   0.320  0.00  0.00    +0.056 S 
ATOM     10  O   UNL     1      12.675  -2.908   1.702  0.00  0.00    -0.153 OA
ATOM     11  O   UNL     1      12.242  -3.984  -0.502  0.00  0.00    -0.153 OA
BRANCH   9  12
ATOM     12  N   UNL     1      13.506  -1.864  -0.378  0.00  0.00    -0.204 NA
ATOM     13  H   UNL     1      14.424  -1.900  -0.066  0.00  0.00    +0.144 HD
ATOM     14  H   UNL     1      13.262  -1.262  -1.098  0.00  0.00    +0.144 HD
ENDBRANCH   9  12
ENDBRANCH   5   9
ENDBRANCH   1   8
BRANCH   1  15
ATOM     15  C   UNL     1       6.075  -0.619  -0.450  0.00  0.00    +0.141 C 
ATOM     16  S   UNL     1       6.177  -2.258  -0.931  0.00  0.00    -0.018 S 
BRANCH  15  17
ATOM     17  N   UNL     1       4.884   0.012  -0.456  0.00  0.00    -0.264 N 
ATOM     18  C   UNL     1       3.773  -0.648  -0.840  0.00  0.00    +0.250 C 
ATOM     19  O   UNL     1       3.846  -1.812  -1.182  0.00  0.00    -0.270 OA
ATOM     20  H   UNL     1       4.825   0.941  -0.183  0.00  0.00    +0.157 HD
BRANCH  18  21
ATOM     21  C   UNL     1       2.468   0.043  -0.846  0.00  0.00    +0.039 A 
ATOM     22  C   UNL     1       1.316  -0.638  -1.244  0.00  0.00    +0.014 A 
ATOM     23  C   UNL     1       0.100   0.011  -1.248  0.00  0.00    +0.022 A 
ATOM     24  C   UNL     1       0.019   1.338  -0.858  0.00  0.00    +0.059 A 
ATOM     25  C   UNL     1       1.158   2.020  -0.461  0.00  0.00    +0.060 A 
ATOM     26  C   UNL     1       2.381   1.380  -0.454  0.00  0.00    +0.034 A 
ATOM     27 CL   UNL     1       1.047   3.683   0.026  0.00  0.00    -0.082 Cl
ATOM     28 CL   UNL     1      -1.515   2.151  -0.871  0.00  0.00    -0.082 Cl
ENDBRANCH  18  21
ENDBRANCH  15  17
ENDBRANCH   1  15
TORSDOF 6
