REMARK  Name = ZINC39635136
REMARK  13 active torsions:
REMARK  status: ('A' for Active; 'I' for Inactive)
REMARK    1  A    between atoms: C_1  and  C_2
REMARK    2  A    between atoms: C_2  and  C_4
REMARK    3  A    between atoms: C_2  and  S_10
REMARK    4  A    between atoms: S_10  and  C_11
REMARK    5  A    between atoms: N_21  and  C_22
REMARK    6  A    between atoms: C_22  and  C_23
REMARK    7  A    between atoms: C_23  and  N_24
REMARK    8  A    between atoms: N_24  and  C_25
REMARK    9  A    between atoms: N_24  and  C_28
REMARK   10  A    between atoms: C_25  and  C_26
REMARK   11  A    between atoms: C_25  and  C_27
REMARK   12  A    between atoms: C_28  and  C_29
REMARK   13  A    between atoms: C_28  and  C_30
REMARK                            x       y       z     vdW  Elec       q    Type
REMARK                         _______ _______ _______ _____ _____    ______ ____
ROOT
ATOM      1  C   UNL     1       3.204   0.579   1.824  0.00  0.00    +0.173 A 
ATOM      2  N   UNL     1       3.544   1.418   0.877  0.00  0.00    -0.223 NA
ATOM      3  C   UNL     1       4.831   1.758   0.663  0.00  0.00    +0.079 A 
ATOM      4  C   UNL     1       5.194   2.653  -0.348  0.00  0.00    +0.028 A 
ATOM      5  C   UNL     1       6.511   2.971  -0.529  0.00  0.00    +0.002 A 
ATOM      6  C   UNL     1       7.497   2.417   0.278  0.00  0.00    +0.001 A 
ATOM      7  C   UNL     1       7.173   1.539   1.275  0.00  0.00    +0.015 A 
ATOM      8  C   UNL     1       5.838   1.197   1.482  0.00  0.00    +0.065 A 
ATOM      9  C   UNL     1       5.431   0.260   2.538  0.00  0.00    +0.262 A 
ATOM     10  O   UNL     1       6.251  -0.255   3.275  0.00  0.00    -0.267 OA
ATOM     11  N   UNL     1       4.109  -0.004   2.664  0.00  0.00    -0.289 N 
ENDROOT
BRANCH   1  12
ATOM     12  S   UNL     1       1.497   0.192   2.030  0.00  0.00    -0.075 S 
BRANCH  12  14
ATOM     13  C   UNL     1       0.848   2.653   1.027  0.00  0.00    +0.029 C 
ATOM     14  C   UNL     1       0.669   1.161   0.740  0.00  0.00    +0.137 C 
BRANCH  14  15
ATOM     15  C   UNL     1      -0.800   0.826   0.725  0.00  0.00    +0.233 C 
ATOM     16  O   UNL     1      -1.335   0.401   1.727  0.00  0.00    -0.274 OA
ATOM     17  N   UNL     1      -1.520   0.998  -0.402  0.00  0.00    -0.239 N 
ATOM     18  C   UNL     1      -2.833   0.698  -0.415  0.00  0.00    +0.303 C 
ATOM     19  O   UNL     1      -3.370   0.272   0.589  0.00  0.00    -0.253 OA
ATOM     20  N   UNL     1      -3.553   0.870  -1.542  0.00  0.00    -0.313 N 
ATOM     21  H   UNL     1      -1.092   1.337  -1.203  0.00  0.00    +0.159 HD
ATOM     22  H   UNL     1      -3.125   1.209  -2.343  0.00  0.00    +0.146 HD
ATOM     23  H   UNL     1      -4.498   0.654  -1.551  0.00  0.00    +0.146 HD
ENDBRANCH  14  15
ENDBRANCH  12  14
ENDBRANCH   1  12
BRANCH  11  24
ATOM     24  C   UNL     1       3.648  -0.927   3.704  0.00  0.00    +0.109 C 
BRANCH  24  25
ATOM     25  C   UNL     1       3.627  -2.353   3.148  0.00  0.00    -0.056 C 
BRANCH  25  26
ATOM     26  N   UNL     1       3.302  -3.294   4.228  0.00  0.00    +0.384 N 
ATOM     27  H   UNL     1       3.947  -3.163   4.993  0.00  0.00    -0.081 HD
BRANCH  26  28
ATOM     28  C   UNL     1       1.931  -3.050   4.695  0.00  0.00    -0.074 C 
ATOM     29  C   UNL     1       0.945  -3.795   3.792  0.00  0.00    -0.014 C 
ATOM     30  C   UNL     1       1.785  -3.552   6.133  0.00  0.00    -0.014 C 
ENDBRANCH  26  28
BRANCH  26  31
ATOM     31  C   UNL     1       3.411  -4.671   3.726  0.00  0.00    -0.074 C 
ATOM     32  C   UNL     1       4.795  -4.880   3.108  0.00  0.00    -0.014 C 
ATOM     33  C   UNL     1       3.215  -5.652   4.883  0.00  0.00    -0.014 C 
ENDBRANCH  26  31
ENDBRANCH  25  26
ENDBRANCH  24  25
ENDBRANCH  11  24
TORSDOF 8
