REMARK  Name = ZINC01393585
REMARK  5 active torsions:
REMARK  status: ('A' for Active; 'I' for Inactive)
REMARK    1  A    between atoms: C_1  and  O_2
REMARK    2  A    between atoms: O_2  and  C_3
REMARK    3  A    between atoms: C_8  and  O_9
REMARK    4  A    between atoms: O_9  and  C_10
REMARK    5  A    between atoms: N_18  and  C_19
REMARK                            x       y       z     vdW  Elec       q    Type
REMARK                         _______ _______ _______ _____ _____    ______ ____
ROOT
ATOM      1  C   UNL     1      -0.441  -0.208   0.916  0.00  0.00    +0.162 A 
ATOM      2  C   UNL     1       0.800  -0.815   0.847  0.00  0.00    +0.053 A 
ATOM      3  C   UNL     1       0.904  -2.189   0.674  0.00  0.00    -0.037 A 
ATOM      4  C   UNL     1      -0.234  -2.956   0.565  0.00  0.00    -0.020 A 
ATOM      5  C   UNL     1      -1.482  -2.349   0.625  0.00  0.00    +0.055 A 
ATOM      6  C   UNL     1      -1.592  -0.981   0.800  0.00  0.00    +0.162 A 
ATOM      7  C   UNL     1      -0.190  -4.449   0.391  0.00  0.00    +0.113 C 
ATOM      8  C   UNL     1      -0.953  -4.809  -0.889  0.00  0.00    +0.083 C 
ATOM      9  C   UNL     1      -0.788  -6.282  -1.155  0.00  0.00    +0.059 A 
ATOM     10  C   UNL     1       0.355  -6.959  -0.741  0.00  0.00    +0.078 A 
ATOM     11  C   UNL     1       0.231  -8.286  -1.161  0.00  0.00    +0.148 A 
ATOM     12  N   UNL     1      -0.923  -8.407  -1.771  0.00  0.00    -0.174 NA
ATOM     13  N   UNL     1      -1.573  -7.162  -1.769  0.00  0.00    -0.234 N 
ATOM     14  C   UNL     1       1.423  -6.252  -0.017  0.00  0.00    +0.250 C 
ATOM     15  O   UNL     1       2.506  -6.772   0.174  0.00  0.00    -0.270 OA
ATOM     16  N   UNL     1       1.154  -4.991   0.431  0.00  0.00    -0.290 N 
ATOM     17  C   UNL     1       2.275  -4.253   1.006  0.00  0.00    +0.113 C 
ATOM     18  C   UNL     1       2.276  -2.793   0.603  0.00  0.00    +0.054 C 
ENDROOT
BRANCH  13  19
ATOM     19  C   UNL     1      -2.834  -6.894  -2.320  0.00  0.00    +0.085 A 
ATOM     20  C   UNL     1      -3.013  -5.790  -3.142  0.00  0.00    +0.049 A 
ATOM     21  C   UNL     1      -4.258  -5.529  -3.684  0.00  0.00    +0.043 A 
ATOM     22  C   UNL     1      -5.325  -6.366  -3.407  0.00  0.00    +0.021 A 
ATOM     23  C   UNL     1      -5.149  -7.466  -2.588  0.00  0.00    +0.023 A 
ATOM     24  C   UNL     1      -3.906  -7.736  -2.048  0.00  0.00    +0.066 A 
ATOM     25 CL   UNL     1      -3.685  -9.122  -1.026  0.00  0.00    -0.081 Cl
ATOM     26 CL   UNL     1      -4.483  -4.149  -4.713  0.00  0.00    -0.083 Cl
ENDBRANCH  13  19
BRANCH   1  28
ATOM     27  C   UNL     1       0.690   1.865   1.202  0.00  0.00    +0.277 C 
ATOM     28  O   UNL     1      -0.535   1.138   1.090  0.00  0.00    -0.491 OA
ENDBRANCH   1  28
BRANCH   6  29
ATOM     29  O   UNL     1      -2.818  -0.395   0.857  0.00  0.00    -0.491 OA
ATOM     30  C   UNL     1      -3.953  -1.254   0.730  0.00  0.00    +0.277 C 
ENDBRANCH   6  29
TORSDOF 3
