REMARK  Name = ZINC13816200
REMARK  9 active torsions:
REMARK  status: ('A' for Active; 'I' for Inactive)
REMARK    1  A    between atoms: C_5  and  C_7
REMARK    2  A    between atoms: C_7  and  C_9
REMARK    3  A    between atoms: C_7  and  C_23
REMARK    4  A    between atoms: C_9  and  C_10
REMARK    5  A    between atoms: C_10  and  N_11
REMARK    6  A    between atoms: N_13  and  C_14
REMARK    7  A    between atoms: C_14  and  C_15
REMARK    8  A    between atoms: C_15  and  C_16
REMARK    9  A    between atoms: C_16  and  C_17
REMARK                            x       y       z     vdW  Elec       q    Type
REMARK                         _______ _______ _______ _____ _____    ______ ____
ROOT
ATOM      1  N   UNL     1       5.045   4.541  -1.768  0.00  0.00    -0.358 N 
ATOM      2  C   UNL     1       6.207   5.032  -2.314  0.00  0.00    +0.169 C 
ATOM      3  N   UNL     1       6.728   4.459  -3.450  0.00  0.00    -0.358 N 
ATOM      4  H   UNL     1       4.593   3.790  -2.184  0.00  0.00    +0.162 HD
ATOM      5  H   UNL     1       7.640   6.458  -2.066  0.00  0.00    +0.159 HD
ATOM      6  H   UNL     1       6.276   3.708  -3.866  0.00  0.00    +0.162 HD
ATOM      7  N   UNL     1       6.776   6.058  -1.699  0.00  0.00    -0.371 N 
ATOM      8  H   UNL     1       6.347   6.451  -0.853  0.00  0.00    +0.159 HD
ENDROOT
BRANCH   1   9
ATOM      9  C   UNL     1       4.489   5.151  -0.558  0.00  0.00    +0.116 C 
BRANCH   9  10
ATOM     10  C   UNL     1       3.204   4.421  -0.163  0.00  0.00    +0.035 C 
BRANCH  10  11
ATOM     11  C   UNL     1       2.624   5.059   1.101  0.00  0.00    +0.072 C 
BRANCH  11  16
ATOM     12  C   UNL     1      -0.016   2.466   1.853  0.00  0.00    +0.000 A 
ATOM     13  C   UNL     1      -1.143   3.253   2.003  0.00  0.00    +0.003 A 
ATOM     14  C   UNL     1      -1.051   4.625   1.870  0.00  0.00    +0.038 A 
ATOM     15  C   UNL     1       0.169   5.212   1.576  0.00  0.00    +0.127 A 
ATOM     16  C   UNL     1       1.296   4.422   1.421  0.00  0.00    -0.003 A 
ATOM     17  C   UNL     1       1.202   3.050   1.560  0.00  0.00    +0.007 A 
ATOM     18  F   UNL     1       0.259   6.553   1.440  0.00  0.00    -0.205 F 
ENDBRANCH  11  16
BRANCH  11  19
ATOM     19  C   UNL     1       3.573   4.846   2.252  0.00  0.00    +0.049 A 
ATOM     20  C   UNL     1       4.282   3.663   2.343  0.00  0.00    +0.024 A 
ATOM     21  C   UNL     1       5.153   3.478   3.405  0.00  0.00    +0.003 A 
ATOM     22  C   UNL     1       5.278   4.493   4.341  0.00  0.00    +0.020 A 
ATOM     23  C   UNL     1       4.536   5.648   4.185  0.00  0.00    +0.111 A 
ATOM     24  N   UNL     1       3.721   5.792   3.159  0.00  0.00    -0.259 NA
ENDBRANCH  11  19
ENDBRANCH  10  11
ENDBRANCH   9  10
ENDBRANCH   1   9
BRANCH   3  25
ATOM     25  C   UNL     1       7.967   4.982  -4.032  0.00  0.00    +0.116 C 
BRANCH  25  26
ATOM     26  C   UNL     1       8.325   4.173  -5.280  0.00  0.00    +0.027 C 
BRANCH  26  27
ATOM     27  C   UNL     1       9.619   4.720  -5.888  0.00  0.00    +0.058 C 
BRANCH  27  28
ATOM     28  C   UNL     1       9.972   3.922  -7.117  0.00  0.00    +0.059 A 
ATOM     29  C   UNL     1      10.191   4.422  -8.349  0.00  0.00    +0.107 A 
ATOM     30  N   UNL     1      10.482   3.360  -9.161  0.00  0.00    -0.351 N 
ATOM     31  H   UNL     1      10.693   3.400 -10.138  0.00  0.00    +0.166 HD
ATOM     32  C   UNL     1      10.429   2.247  -8.398  0.00  0.00    +0.196 A 
ATOM     33  N   UNL     1      10.129   2.592  -7.176  0.00  0.00    -0.241 NA
ENDBRANCH  27  28
ENDBRANCH  26  27
ENDBRANCH  25  26
ENDBRANCH   3  25
TORSDOF 9
