REMARK  Name = ZINC01934007
REMARK  9 active torsions:
REMARK  status: ('A' for Active; 'I' for Inactive)
REMARK    1  A    between atoms: C_1  and  C_2
REMARK    2  A    between atoms: C_5  and  O_8
REMARK    3  A    between atoms: O_8  and  C_9
REMARK    4  A    between atoms: C_15  and  O_24
REMARK    5  A    between atoms: C_19  and  C_20
REMARK    6  A    between atoms: O_24  and  C_25
REMARK    7  A    between atoms: C_25  and  C_26
REMARK    8  A    between atoms: N_28  and  C_29
REMARK    9  A    between atoms: C_34  and  C_35
REMARK                            x       y       z     vdW  Elec       q    Type
REMARK                         _______ _______ _______ _____ _____    ______ ____
ROOT
ATOM      1  C   UNL     1      -1.231   3.410   0.025  0.00  0.00    +0.222 A 
ATOM      2  C   UNL     1      -1.220   4.133  -1.202  0.00  0.00    +0.235 A 
ATOM      3  O   UNL     1      -1.245   3.560  -2.278  0.00  0.00    -0.283 OA
ATOM      4  C   UNL     1      -1.176   5.603  -1.117  0.00  0.00    +0.068 A 
ATOM      5  C   UNL     1      -1.162   6.398  -2.264  0.00  0.00    +0.019 A 
ATOM      6  C   UNL     1      -1.120   7.758  -2.145  0.00  0.00    +0.046 A 
ATOM      7  C   UNL     1      -1.092   8.355  -0.886  0.00  0.00    +0.125 A 
ATOM      8  C   UNL     1      -1.105   7.580   0.262  0.00  0.00    +0.092 A 
ATOM      9  C   UNL     1      -1.147   6.197   0.158  0.00  0.00    +0.143 A 
ATOM     10  O   UNL     1      -1.162   5.418   1.259  0.00  0.00    -0.447 OA
ATOM     11  C   UNL     1      -1.207   4.081   1.193  0.00  0.00    +0.254 A 
ENDROOT
BRANCH  11  12
ATOM     12  C   UNL     1      -1.226   3.295   2.478  0.00  0.00    +0.454 C 
ATOM     13  F   UNL     1       0.086   3.013   2.872  0.00  0.00    -0.163 F 
ATOM     14  F   UNL     1      -1.860   4.045   3.474  0.00  0.00    -0.163 F 
ATOM     15  F   UNL     1      -1.922   2.098   2.282  0.00  0.00    -0.163 F 
ENDBRANCH  11  12
BRANCH   1  16
ATOM     16  O   UNL     1      -1.272   2.049   0.017  0.00  0.00    -0.448 OA
BRANCH  16  21
ATOM     17  C   UNL     1       3.620  -0.741  -0.056  0.00  0.00    +0.044 C 
ATOM     18  C   UNL     1       2.311   0.005  -0.035  0.00  0.00    -0.050 A 
ATOM     19  C   UNL     1       1.118  -0.694  -0.024  0.00  0.00    +0.007 A 
ATOM     20  C   UNL     1      -0.083  -0.012  -0.004  0.00  0.00    +0.046 A 
ATOM     21  C   UNL     1      -0.092   1.376   0.004  0.00  0.00    +0.129 A 
ATOM     22  C   UNL     1       1.107   2.075  -0.008  0.00  0.00    +0.046 A 
ATOM     23  C   UNL     1       2.305   1.388  -0.028  0.00  0.00    +0.007 A 
ENDBRANCH  16  21
ENDBRANCH   1  16
BRANCH   7  24
ATOM     24  O   UNL     1      -1.051   9.708  -0.783  0.00  0.00    -0.483 OA
BRANCH  24  25
ATOM     25  C   UNL     1      -1.039  10.451  -2.004  0.00  0.00    +0.324 C 
BRANCH  25  26
ATOM     26  C   UNL     1      -0.993  11.925  -1.694  0.00  0.00    +0.255 C 
ATOM     27  O   UNL     1      -0.972  12.302  -0.542  0.00  0.00    -0.272 OA
ATOM     28  N   UNL     1      -0.974  12.824  -2.698  0.00  0.00    -0.282 N 
ATOM     29  H   UNL     1      -0.910  12.523  -3.618  0.00  0.00    +0.155 HD
BRANCH  28  30
ATOM     30  C   UNL     1      -1.048  14.192  -2.413  0.00  0.00    +0.036 A 
ATOM     31  C   UNL     1      -1.639  14.627  -1.234  0.00  0.00    +0.025 A 
ATOM     32  C   UNL     1      -1.710  15.977  -0.955  0.00  0.00    +0.022 A 
ATOM     33  C   UNL     1      -1.193  16.898  -1.850  0.00  0.00    +0.041 A 
ATOM     34  C   UNL     1      -0.604  16.468  -3.026  0.00  0.00    +0.025 A 
ATOM     35  C   UNL     1      -0.525  15.118  -3.307  0.00  0.00    -0.028 A 
ATOM     36  C   UNL     1       0.121  14.650  -4.585  0.00  0.00    +0.046 C 
ATOM     37 CL   UNL     1      -1.284  18.595  -1.497  0.00  0.00    -0.084 Cl
ENDBRANCH  28  30
ENDBRANCH  25  26
ENDBRANCH  24  25
ENDBRANCH   7  24
TORSDOF 7
