REMARK  Name = ZINC13042096
REMARK  12 active torsions:
REMARK  status: ('A' for Active; 'I' for Inactive)
REMARK    1  A    between atoms: C_1  and  C_2
REMARK    2  A    between atoms: C_4  and  C_29
REMARK    3  A    between atoms: C_5  and  N_9
REMARK    4  A    between atoms: C_6  and  C_8
REMARK    5  A    between atoms: C_10  and  C_12
REMARK    6  A    between atoms: C_12  and  N_57
REMARK    7  A    between atoms: C_13  and  N_57
REMARK    8  A    between atoms: C_14  and  C_16
REMARK    9  A    between atoms: C_14  and  C_17
REMARK   10  A    between atoms: C_14  and  N_57
REMARK   11  A    between atoms: N_19  and  C_20
REMARK   12  A    between atoms: C_23  and  C_26
REMARK                            x       y       z     vdW  Elec       q    Type
REMARK                         _______ _______ _______ _____ _____    ______ ____
ROOT
ATOM      1  C   UNL     1       0.001  -0.788  -2.157  0.00  0.00    +0.017 C 
ATOM      2  C   UNL     1       1.299  -1.574  -1.959  0.00  0.00    -0.004 C 
ENDROOT
BRANCH   1   3
ATOM      3  C   UNL     1       0.318   0.569  -2.730  0.00  0.00    +0.203 C 
ATOM      4  O   UNL     1       0.113   1.567  -2.073  0.00  0.00    -0.277 OA
ATOM      5  N   UNL     1       0.829   0.673  -3.973  0.00  0.00    -0.287 N 
ATOM      6  H   UNL     1       1.067  -0.126  -4.468  0.00  0.00    +0.155 HD
BRANCH   5   7
ATOM      7  C   UNL     1       1.014   1.930  -4.547  0.00  0.00    +0.033 A 
ATOM      8  C   UNL     1       0.184   2.987  -4.188  0.00  0.00    +0.024 A 
ATOM      9  C   UNL     1       0.367   4.230  -4.750  0.00  0.00    +0.015 A 
ATOM     10  C   UNL     1       1.382   4.428  -5.689  0.00  0.00    +0.037 A 
ATOM     11  C   UNL     1       2.211   3.363  -6.052  0.00  0.00    +0.015 A 
ATOM     12  C   UNL     1       2.026   2.123  -5.483  0.00  0.00    +0.024 A 
BRANCH  10  13
ATOM     13  C   UNL     1       1.579   5.758  -6.297  0.00  0.00    +0.242 C 
ATOM     14  O   UNL     1       2.463   5.929  -7.114  0.00  0.00    -0.270 OA
ATOM     15  N   UNL     1       0.778   6.785  -5.946  0.00  0.00    -0.325 N 
ATOM     16  H   UNL     1       0.073   6.649  -5.294  0.00  0.00    +0.145 HD
ATOM     17  H   UNL     1       0.907   7.659  -6.346  0.00  0.00    +0.145 HD
ENDBRANCH  10  13
ENDBRANCH   5   7
ENDBRANCH   1   3
BRANCH   1  19
ATOM     18  C   UNL     1      -1.314  -1.883  -0.444  0.00  0.00    -0.094 C 
ATOM     19  N   UNL     1      -0.698  -0.608  -0.867  0.00  0.00    +0.391 N 
ATOM     20  H   UNL     1      -1.436   0.096  -0.983  0.00  0.00    -0.080 HD
BRANCH  19  21
ATOM     21  C   UNL     1       0.254  -0.141   0.162  0.00  0.00    +0.020 C 
BRANCH  21  23
ATOM     22  N   UNL     1       0.135   0.721   2.478  0.00  0.00    -0.287 N 
ATOM     23  C   UNL     1      -0.516   0.244   1.398  0.00  0.00    +0.201 C 
ATOM     24  O   UNL     1      -1.723   0.124   1.422  0.00  0.00    -0.278 OA
ATOM     25  H   UNL     1       1.096   0.851   2.445  0.00  0.00    +0.155 HD
BRANCH  22  30
ATOM     26  C   UNL     1      -2.740   1.963   7.207  0.00  0.00    +0.044 C 
ATOM     27  C   UNL     1      -1.976   1.633   5.951  0.00  0.00    -0.050 A 
ATOM     28  C   UNL     1      -0.932   0.728   5.996  0.00  0.00    +0.008 A 
ATOM     29  C   UNL     1      -0.230   0.423   4.846  0.00  0.00    -0.029 A 
ATOM     30  C   UNL     1      -0.574   1.027   3.644  0.00  0.00    +0.039 A 
ATOM     31  C   UNL     1      -1.619   1.940   3.603  0.00  0.00    -0.029 A 
ATOM     32  C   UNL     1      -2.321   2.236   4.755  0.00  0.00    +0.008 A 
ATOM     33  C   UNL     1      -1.992   2.603   2.302  0.00  0.00    +0.045 C 
ATOM     34  C   UNL     1       0.908  -0.563   4.897  0.00  0.00    +0.045 C 
ENDBRANCH  22  30
ENDBRANCH  21  23
ENDBRANCH  19  21
ENDBRANCH   1  19
TORSDOF 7
