REMARK  Name = ZINC45754487
REMARK  11 active torsions:
REMARK  status: ('A' for Active; 'I' for Inactive)
REMARK    1  A    between atoms: C_1  and  C_2
REMARK    2  A    between atoms: C_5  and  C_34
REMARK    3  A    between atoms: N_8  and  C_10
REMARK    4  A    between atoms: C_10  and  C_11
REMARK    5  A    between atoms: C_17  and  C_19
REMARK    6  A    between atoms: C_19  and  C_21
REMARK    7  A    between atoms: C_19  and  N_22
REMARK    8  A    between atoms: N_22  and  S_23
REMARK    9  A    between atoms: S_23  and  C_26
REMARK   10  A    between atoms: C_29  and  O_32
REMARK   11  A    between atoms: O_32  and  C_33
REMARK                            x       y       z     vdW  Elec       q    Type
REMARK                         _______ _______ _______ _____ _____    ______ ____
ROOT
ATOM      1  C   UNL     1       2.971  -2.034   2.241  0.00  0.00    +0.034 A 
ATOM      2  C   UNL     1       3.439  -0.905   2.828  0.00  0.00    +0.070 A 
ATOM      3  S   UNL     1       5.146  -0.941   2.305  0.00  0.00    -0.060 S 
ATOM      4  C   UNL     1       5.085  -2.365   1.411  0.00  0.00    +0.165 A 
ATOM      5  N   UNL     1       3.833  -2.747   1.539  0.00  0.00    -0.231 NA
ATOM      6  N   UNL     1       6.111  -2.990   0.710  0.00  0.00    -0.263 N 
ATOM      7  C   UNL     1       7.344  -2.447   0.696  0.00  0.00    +0.237 C 
ATOM      8  O   UNL     1       7.560  -1.415   1.294  0.00  0.00    -0.274 OA
ATOM      9  H   UNL     1       5.938  -3.815   0.231  0.00  0.00    +0.157 HD
ENDROOT
BRANCH   7  10
ATOM     10  C   UNL     1       8.456  -3.124  -0.064  0.00  0.00    +0.159 C 
ATOM     11  C   UNL     1       8.677  -4.530   0.500  0.00  0.00    +0.035 C 
BRANCH  10  12
ATOM     12  N   UNL     1       9.688  -2.344   0.076  0.00  0.00    -0.178 NA
ATOM     13  H   UNL     1       9.878  -1.880   0.906  0.00  0.00    +0.149 HD
BRANCH  12  14
ATOM     14  S   UNL     1      10.758  -2.253  -1.186  0.00  0.00    +0.059 S 
ATOM     15  O   UNL     1      11.821  -1.414  -0.756  0.00  0.00    -0.153 OA
ATOM     16  O   UNL     1      10.970  -3.584  -1.635  0.00  0.00    -0.153 OA
BRANCH  14  17
ATOM     17  C   UNL     1       9.944  -1.403  -2.498  0.00  0.00    +0.105 A 
ATOM     18  C   UNL     1       9.212  -2.113  -3.431  0.00  0.00    +0.032 A 
ATOM     19  C   UNL     1       8.574  -1.449  -4.461  0.00  0.00    +0.047 A 
ATOM     20  C   UNL     1       8.668  -0.069  -4.558  0.00  0.00    +0.120 A 
ATOM     21  C   UNL     1       9.403   0.642  -3.620  0.00  0.00    +0.047 A 
ATOM     22  C   UNL     1      10.035  -0.026  -2.589  0.00  0.00    +0.032 A 
BRANCH  20  23
ATOM     23  O   UNL     1       8.042   0.587  -5.570  0.00  0.00    -0.495 OA
ATOM     24  C   UNL     1       8.182   2.008  -5.608  0.00  0.00    +0.277 C 
ENDBRANCH  20  23
ENDBRANCH  14  17
ENDBRANCH  12  14
ENDBRANCH  10  12
ENDBRANCH   7  10
BRANCH   1  25
ATOM     25  C   UNL     1       1.534  -2.461   2.390  0.00  0.00    -0.022 C 
BRANCH  25  31
ATOM     26  C   UNL     1      -0.019   1.526   0.010  0.00  0.00    +0.005 C 
ATOM     27  C   UNL     1       0.002  -0.004   0.002  0.00  0.00    -0.031 C 
ATOM     28  C   UNL     1      -1.434  -0.535   0.015  0.00  0.00    +0.003 C 
ATOM     29  C   UNL     1      -1.402  -2.064   0.086  0.00  0.00    -0.031 C 
ATOM     30  C   UNL     1      -0.613  -2.496   1.324  0.00  0.00    -0.075 C 
ATOM     31  N   UNL     1       0.758  -1.980   1.239  0.00  0.00    +0.384 N 
ATOM     32  C   UNL     1       0.740  -0.512   1.242  0.00  0.00    -0.075 C 
ATOM     33  C   UNL     1      -2.832  -2.602   0.177  0.00  0.00    +0.005 C 
ATOM     34  H   UNL     1       1.188  -2.307   0.386  0.00  0.00    -0.081 HD
ENDBRANCH  25  31
ENDBRANCH   1  25
TORSDOF 7
