REMARK  Name = ZINC12650082
REMARK  9 active torsions:
REMARK  status: ('A' for Active; 'I' for Inactive)
REMARK    1  A    between atoms: C_4  and  C_7
REMARK    2  A    between atoms: C_7  and  C_9
REMARK    3  A    between atoms: C_7  and  O_23
REMARK    4  A    between atoms: N_11  and  C_12
REMARK    5  A    between atoms: C_16  and  C_18
REMARK    6  A    between atoms: O_23  and  C_24
REMARK    7  A    between atoms: C_24  and  C_26
REMARK    8  A    between atoms: C_29  and  N_35
REMARK    9  A    between atoms: C_30  and  N_32
REMARK                            x       y       z     vdW  Elec       q    Type
REMARK                         _______ _______ _______ _____ _____    ______ ____
ROOT
ATOM      1  C   UNL     1       1.040  -6.428  -0.307  0.00  0.00    +0.292 C 
ENDROOT
BRANCH   1   5
ATOM      2  C   UNL     1       0.796  -7.688  -4.381  0.00  0.00    +0.000 A 
ATOM      3  C   UNL     1       0.033  -8.317  -3.416  0.00  0.00    +0.000 A 
ATOM      4  C   UNL     1       0.111  -7.910  -2.098  0.00  0.00    +0.008 A 
ATOM      5  C   UNL     1       0.954  -6.872  -1.744  0.00  0.00    +0.002 A 
ATOM      6  C   UNL     1       1.714  -6.239  -2.710  0.00  0.00    +0.008 A 
ATOM      7  C   UNL     1       1.638  -6.650  -4.028  0.00  0.00    +0.000 A 
ENDBRANCH   1   5
BRANCH   1   8
ATOM      8  C   UNL     1       2.269  -7.024   0.331  0.00  0.00    +0.263 C 
ATOM      9  O   UNL     1       3.128  -6.299   0.786  0.00  0.00    -0.271 OA
ATOM     10  N   UNL     1       2.413  -8.362   0.395  0.00  0.00    -0.282 N 
ATOM     11  H   UNL     1       1.758  -8.941  -0.026  0.00  0.00    +0.155 HD
BRANCH  10  12
ATOM     12  C   UNL     1       3.507  -8.917   1.069  0.00  0.00    +0.034 A 
ATOM     13  C   UNL     1       4.742  -8.283   1.030  0.00  0.00    +0.025 A 
ATOM     14  C   UNL     1       5.819  -8.829   1.701  0.00  0.00    +0.022 A 
ATOM     15  C   UNL     1       5.670 -10.014   2.401  0.00  0.00    +0.053 A 
ATOM     16  C   UNL     1       4.442 -10.650   2.436  0.00  0.00    +0.075 A 
ATOM     17  C   UNL     1       3.361 -10.105   1.772  0.00  0.00    +0.037 A 
ATOM     18 CL   UNL     1       7.028 -10.702   3.236  0.00  0.00    -0.083 Cl
BRANCH  16  19
ATOM     19  C   UNL     1       4.285 -11.940   3.200  0.00  0.00    +0.419 C 
ATOM     20  F   UNL     1       2.964 -12.388   3.091  0.00  0.00    -0.166 F 
ATOM     21  F   UNL     1       5.150 -12.904   2.672  0.00  0.00    -0.166 F 
ATOM     22  F   UNL     1       4.593 -11.724   4.548  0.00  0.00    -0.166 F 
ENDBRANCH  16  19
ENDBRANCH  10  12
ENDBRANCH   1   8
BRANCH   1  23
ATOM     23  O   UNL     1       1.121  -4.979  -0.252  0.00  0.00    -0.444 OA
BRANCH  23  24
ATOM     24  C   UNL     1      -0.043  -4.304  -0.178  0.00  0.00    +0.340 C 
ATOM     25  O   UNL     1      -1.097  -4.909  -0.159  0.00  0.00    -0.245 OA
BRANCH  24  26
ATOM     26  C   UNL     1      -0.038  -2.831  -0.119  0.00  0.00    +0.061 A 
ATOM     27  C   UNL     1       1.173  -2.133  -0.141  0.00  0.00    +0.017 A 
ATOM     28  C   UNL     1       1.177  -0.768  -0.087  0.00  0.00    +0.026 A 
ATOM     29  C   UNL     1      -0.023  -0.067  -0.011  0.00  0.00    +0.055 A 
ATOM     30  C   UNL     1      -1.234  -0.753   0.017  0.00  0.00    +0.147 A 
ATOM     31  C   UNL     1      -1.245  -2.129  -0.042  0.00  0.00    +0.049 A 
BRANCH  30  32
ATOM     32  N   UNL     1      -2.508  -0.005   0.105  0.00  0.00    +0.058 N 
ATOM     33  O   UNL     1      -3.425  -0.442   0.776  0.00  0.00    -0.126 OA
ATOM     34  O   UNL     1      -2.639   1.047  -0.494  0.00  0.00    -0.126 OA
ENDBRANCH  30  32
BRANCH  29  35
ATOM     35  N   UNL     1      -0.012   1.322   0.044  0.00  0.00    -0.356 N 
ATOM     36  H   UNL     1       0.831   1.799   0.094  0.00  0.00    +0.142 HD
ATOM     37  H   UNL     1      -0.848   1.815   0.028  0.00  0.00    +0.142 HD
ENDBRANCH  29  35
ENDBRANCH  24  26
ENDBRANCH  23  24
ENDBRANCH   1  23
TORSDOF 9
