REMARK  Name = ZINC63384118
REMARK  8 active torsions:
REMARK  status: ('A' for Active; 'I' for Inactive)
REMARK    1  A    between atoms: C_1  and  C_2
REMARK    2  A    between atoms: C_2  and  C_4
REMARK    3  A    between atoms: C_2  and  N_12
REMARK    4  A    between atoms: C_4  and  C_5
REMARK    5  A    between atoms: C_5  and  C_6
REMARK    6  A    between atoms: C_15  and  C_22
REMARK    7  A    between atoms: C_29  and  O_34
REMARK    8  A    between atoms: O_34  and  C_35
REMARK                            x       y       z     vdW  Elec       q    Type
REMARK                         _______ _______ _______ _____ _____    ______ ____
ROOT
ATOM      1  N   UNL     1       0.732  -0.413  -1.206  0.00  0.00    -0.258 N 
ATOM      2  C   UNL     1       1.836  -1.177  -1.091  0.00  0.00    +0.262 A 
ATOM      3  O   UNL     1       2.303  -1.420   0.009  0.00  0.00    -0.267 OA
ATOM      4  C   UNL     1       2.446  -1.693  -2.248  0.00  0.00    +0.070 A 
ATOM      5  C   UNL     1       1.904  -1.407  -3.466  0.00  0.00    +0.259 A 
ATOM      6  N   UNL     1       0.778  -0.626  -3.538  0.00  0.00    -0.275 N 
ATOM      7  H   UNL     1       0.389  -0.420  -4.402  0.00  0.00    +0.173 HD
ATOM      8  C   UNL     1       0.208  -0.147  -2.417  0.00  0.00    +0.332 A 
ATOM      9  O   UNL     1      -0.791   0.540  -2.499  0.00  0.00    -0.246 OA
ATOM     10  O   UNL     1       2.470  -1.889  -4.593  0.00  0.00    -0.267 OA
ENDROOT
BRANCH   4  11
ATOM     11  C   UNL     1       3.682  -2.549  -2.144  0.00  0.00    -0.003 C 
ATOM     12  C   UNL     1       3.445  -3.885  -2.852  0.00  0.00    +0.097 C 
ATOM     13  C   UNL     1       3.271  -3.557  -4.330  0.00  0.00    -0.041 C 
ATOM     14  C   UNL     1       2.123  -4.104  -4.703  0.00  0.00    +0.002 A 
ATOM     15  C   UNL     1       1.460  -4.208  -6.012  0.00  0.00    +0.055 A 
ATOM     16  C   UNL     1       0.253  -4.837  -6.038  0.00  0.00    +0.121 A 
ATOM     17  C   UNL     1      -0.374  -5.378  -4.906  0.00  0.00    +0.047 A 
ATOM     18  C   UNL     1       0.150  -5.344  -3.654  0.00  0.00    +0.029 A 
ATOM     19  C   UNL     1       1.458  -4.693  -3.499  0.00  0.00    +0.043 A 
ATOM     20  N   UNL     1       2.208  -4.538  -2.427  0.00  0.00    -0.379 N 
ATOM     21  C   UNL     1       4.253  -2.675  -5.063  0.00  0.00    +0.014 C 
ATOM     22  C   UNL     1       4.478  -1.447  -4.162  0.00  0.00    -0.077 C 
ATOM     23  N   UNL     1       4.811  -1.870  -2.799  0.00  0.00    +0.386 N 
ATOM     24  H   UNL     1       5.067  -1.059  -2.256  0.00  0.00    -0.085 HD
ATOM     25  H   UNL     1       1.986  -4.801  -1.520  0.00  0.00    +0.160 HD
ATOM     26  H   UNL     1       5.598  -2.501  -2.834  0.00  0.00    -0.085 HD
BRANCH  16  27
ATOM     27  O   UNL     1      -0.384  -4.947  -7.234  0.00  0.00    -0.495 OA
ATOM     28  C   UNL     1      -1.649  -5.611  -7.236  0.00  0.00    +0.277 C 
ENDBRANCH  16  27
ENDBRANCH   4  11
BRANCH   1  30
ATOM     29  C   UNL     1       0.077   1.654  -0.075  0.00  0.00    +0.031 C 
ATOM     30  C   UNL     1       0.092   0.126  -0.003  0.00  0.00    +0.092 C 
BRANCH  30  31
ATOM     31  C   UNL     1      -1.344  -0.395   0.088  0.00  0.00    +0.030 C 
BRANCH  31  32
ATOM     32  C   UNL     1      -1.325  -1.912   0.285  0.00  0.00    +0.037 C 
BRANCH  32  33
ATOM     33  C   UNL     1      -2.739  -2.425   0.375  0.00  0.00    -0.047 A 
ATOM     34  C   UNL     1      -3.370  -2.500   1.603  0.00  0.00    +0.003 A 
ATOM     35  C   UNL     1      -4.667  -2.970   1.685  0.00  0.00    +0.000 A 
ATOM     36  C   UNL     1      -5.333  -3.365   0.540  0.00  0.00    +0.000 A 
ATOM     37  C   UNL     1      -4.703  -3.288  -0.687  0.00  0.00    +0.000 A 
ATOM     38  C   UNL     1      -3.407  -2.814  -0.770  0.00  0.00    +0.003 A 
ENDBRANCH  32  33
ENDBRANCH  31  32
ENDBRANCH  30  31
ENDBRANCH   1  30
TORSDOF 6
