REMARK  Name = ZINC62586808
REMARK  12 active torsions:
REMARK  status: ('A' for Active; 'I' for Inactive)
REMARK    1  A    between atoms: C_1  and  C_2
REMARK    2  A    between atoms: C_2  and  C_3
REMARK    3  A    between atoms: C_2  and  N_8
REMARK    4  A    between atoms: C_3  and  C_4
REMARK    5  A    between atoms: C_4  and  N_5
REMARK    6  A    between atoms: N_5  and  C_6
REMARK    7  A    between atoms: N_5  and  C_7
REMARK    8  A    between atoms: C_9  and  C_11
REMARK    9  A    between atoms: N_13  and  C_14
REMARK   10  A    between atoms: C_16  and  C_22
REMARK   11  A    between atoms: C_19  and  O_20
REMARK   12  A    between atoms: O_20  and  C_21
REMARK                            x       y       z     vdW  Elec       q    Type
REMARK                         _______ _______ _______ _____ _____    ______ ____
ROOT
ATOM      1  C   UNL     1       0.775  -1.123   3.567  0.00  0.00    +0.303 C 
ATOM      2  O   UNL     1       1.955  -1.399   3.499  0.00  0.00    -0.265 OA
ATOM      3  N   UNL     1       0.114  -1.272   4.732  0.00  0.00    -0.275 N 
ATOM      4  H   UNL     1      -0.811  -0.991   4.804  0.00  0.00    +0.155 HD
ENDROOT
BRANCH   3   5
ATOM      5  C   UNL     1       0.762  -1.834   5.837  0.00  0.00    +0.077 A 
ATOM      6  C   UNL     1       2.109  -1.593   6.046  0.00  0.00    +0.040 A 
ATOM      7  C   UNL     1       2.752  -2.155   7.151  0.00  0.00    +0.038 A 
ATOM      8  C   UNL     1       2.034  -2.959   8.040  0.00  0.00    +0.017 A 
ATOM      9  C   UNL     1       0.693  -3.195   7.828  0.00  0.00    +0.048 A 
ATOM     10  C   UNL     1       0.050  -2.633   6.733  0.00  0.00    +0.141 A 
BRANCH   7  11
ATOM     11  C   UNL     1       4.188  -1.902   7.378  0.00  0.00    +0.242 C 
ATOM     12  O   UNL     1       4.813  -1.203   6.604  0.00  0.00    -0.270 OA
ATOM     13  N   UNL     1       4.808  -2.445   8.445  0.00  0.00    -0.325 N 
ATOM     14  H   UNL     1       4.310  -3.003   9.063  0.00  0.00    +0.145 HD
ATOM     15  H   UNL     1       5.752  -2.279   8.595  0.00  0.00    +0.145 HD
ENDBRANCH   7  11
BRANCH  10  16
ATOM     16  O   UNL     1      -1.272  -2.864   6.532  0.00  0.00    -0.493 OA
ATOM     17  C   UNL     1      -1.940  -3.691   7.487  0.00  0.00    +0.277 C 
ENDBRANCH  10  16
ENDBRANCH   3   5
BRANCH   1  19
ATOM     18  N   UNL     1       0.717  -0.468   1.195  0.00  0.00    -0.305 N 
ATOM     19  C   UNL     1       0.056  -0.617   2.360  0.00  0.00    +0.300 C 
ATOM     20  O   UNL     1      -1.124  -0.341   2.428  0.00  0.00    -0.265 OA
ATOM     21  H   UNL     1       1.660  -0.688   1.141  0.00  0.00    +0.149 HD
BRANCH  18  23
ATOM     22  C   UNL     1      -0.003   1.558   0.029  0.00  0.00    +0.028 C 
ATOM     23  C   UNL     1       0.012   0.028   0.011  0.00  0.00    +0.069 C 
BRANCH  23  24
ATOM     24  C   UNL     1       0.728  -0.459  -1.251  0.00  0.00    +0.003 C 
BRANCH  24  25
ATOM     25  C   UNL     1       0.634  -1.984  -1.333  0.00  0.00    -0.078 C 
BRANCH  25  26
ATOM     26  N   UNL     1       1.322  -2.452  -2.544  0.00  0.00    +0.376 N 
ATOM     27  C   UNL     1       2.756  -2.156  -2.438  0.00  0.00    -0.097 C 
ATOM     28  C   UNL     1       1.130  -3.902  -2.686  0.00  0.00    -0.097 C 
ATOM     29  H   UNL     1       0.940  -1.982  -3.351  0.00  0.00    -0.083 HD
ENDBRANCH  25  26
ENDBRANCH  24  25
ENDBRANCH  23  24
ENDBRANCH  18  23
ENDBRANCH   1  19
TORSDOF 8
