REMARK  Name = ZINC58862728
REMARK  12 active torsions:
REMARK  status: ('A' for Active; 'I' for Inactive)
REMARK    1  A    between atoms: C_1  and  C_2
REMARK    2  A    between atoms: C_2  and  O_3
REMARK    3  A    between atoms: O_3  and  C_4
REMARK    4  A    between atoms: C_7  and  S_25
REMARK    5  A    between atoms: C_9  and  N_10
REMARK    6  A    between atoms: N_13  and  C_14
REMARK    7  A    between atoms: C_14  and  C_15
REMARK    8  A    between atoms: C_15  and  C_17
REMARK    9  A    between atoms: C_15  and  N_22
REMARK   10  A    between atoms: N_22  and  C_23
REMARK   11  A    between atoms: N_22  and  C_24
REMARK   12  A    between atoms: S_25  and  N_28
REMARK                            x       y       z     vdW  Elec       q    Type
REMARK                         _______ _______ _______ _____ _____    ______ ____
ROOT
ATOM      1  C   UNL     1      -1.638  -1.857   0.525  0.00  0.00    +0.142 A 
ATOM      2  C   UNL     1      -0.525  -2.681   0.574  0.00  0.00    +0.049 A 
ATOM      3  C   UNL     1      -0.674  -4.052   0.467  0.00  0.00    +0.032 A 
ATOM      4  C   UNL     1      -1.932  -4.604   0.311  0.00  0.00    +0.107 A 
ATOM      5  C   UNL     1      -3.047  -3.789   0.262  0.00  0.00    +0.055 A 
ATOM      6  C   UNL     1      -2.906  -2.413   0.374  0.00  0.00    +0.079 A 
ENDROOT
BRANCH   6   7
ATOM      7  N   UNL     1      -4.036  -1.585   0.330  0.00  0.00    -0.266 N 
ATOM      8  C   UNL     1      -5.085  -1.917  -0.447  0.00  0.00    +0.304 C 
ATOM      9  O   UNL     1      -5.089  -2.978  -1.042  0.00  0.00    -0.253 OA
ATOM     10  N   UNL     1      -6.130  -1.075  -0.566  0.00  0.00    -0.300 N 
ATOM     11  H   UNL     1      -4.062  -0.772   0.859  0.00  0.00    +0.156 HD
ATOM     12  H   UNL     1      -6.127  -0.228  -0.091  0.00  0.00    +0.150 HD
BRANCH  10  13
ATOM     13  C   UNL     1      -7.271  -1.436  -1.411  0.00  0.00    +0.095 C 
BRANCH  13  14
ATOM     14  C   UNL     1      -8.254  -0.265  -1.469  0.00  0.00    -0.014 C 
BRANCH  14  15
ATOM     15  C   UNL     1      -8.805  -0.003  -0.091  0.00  0.00    -0.022 A 
ATOM     16  C   UNL     1      -8.445   0.948   0.805  0.00  0.00    +0.009 A 
ATOM     17  C   UNL     1      -9.096   1.002   2.023  0.00  0.00    +0.008 A 
ATOM     18  C   UNL     1     -10.076   0.103   2.285  0.00  0.00    +0.045 A 
ATOM     19  S   UNL     1     -10.107  -0.858   0.781  0.00  0.00    -0.103 S 
ENDBRANCH  14  15
BRANCH  14  20
ATOM     20  N   UNL     1      -9.356  -0.596  -2.382  0.00  0.00    +0.382 N 
ATOM     21  C   UNL     1     -10.250   0.563  -2.511  0.00  0.00    -0.096 C 
ATOM     22  C   UNL     1      -8.811  -0.943  -3.702  0.00  0.00    -0.096 C 
ATOM     23  H   UNL     1      -9.873  -1.381  -2.015  0.00  0.00    -0.082 HD
ENDBRANCH  14  20
ENDBRANCH  13  14
ENDBRANCH  10  13
ENDBRANCH   6   7
BRANCH   4  24
ATOM     24  S   UNL     1      -2.115  -6.351   0.175  0.00  0.00    +0.061 S 
ATOM     25  O   UNL     1      -3.338  -6.580  -0.510  0.00  0.00    -0.153 OA
ATOM     26  O   UNL     1      -0.872  -6.853  -0.297  0.00  0.00    -0.153 OA
BRANCH  24  27
ATOM     27  N   UNL     1      -2.312  -6.944   1.709  0.00  0.00    -0.177 NA
ATOM     28  C   UNL     1      -1.150  -7.345   2.512  0.00  0.00    +0.109 C 
ATOM     29  C   UNL     1      -1.205  -6.616   3.858  0.00  0.00    +0.017 C 
ATOM     30  C   UNL     1      -2.554  -6.888   4.526  0.00  0.00    +0.003 C 
ATOM     31  C   UNL     1      -3.681  -6.352   3.640  0.00  0.00    +0.017 C 
ATOM     32  C   UNL     1      -3.654  -7.073   2.294  0.00  0.00    +0.109 C 
ENDBRANCH  24  27
ENDBRANCH   4  24
BRANCH   1  33
ATOM     33  O   UNL     1      -1.492  -0.509   0.629  0.00  0.00    -0.490 OA
BRANCH  33  35
ATOM     34  C   UNL     1      -0.199   1.516   0.882  0.00  0.00    +0.048 C 
ATOM     35  C   UNL     1      -0.162  -0.010   0.781  0.00  0.00    +0.226 C 
ENDBRANCH  33  35
ENDBRANCH   1  33
TORSDOF 9
