REMARK  Name = ZINC65248290
REMARK  7 active torsions:
REMARK  status: ('A' for Active; 'I' for Inactive)
REMARK    1  A    between atoms: C_1  and  C_2
REMARK    2  A    between atoms: C_2  and  C_3
REMARK    3  A    between atoms: C_3  and  O_4
REMARK    4  A    between atoms: O_4  and  C_5
REMARK    5  A    between atoms: C_8  and  C_11
REMARK    6  A    between atoms: C_14  and  C_17
REMARK    7  A    between atoms: C_19  and  O_29
REMARK                            x       y       z     vdW  Elec       q    Type
REMARK                         _______ _______ _______ _____ _____    ______ ____
ROOT
ATOM      1  C   UNL     1       3.335  -4.475   5.523  0.00  0.00    +0.168 C 
ATOM      2  N   UNL     1       3.896  -3.853   6.509  0.00  0.00    -0.067 NA
ATOM      3  O   UNL     1       4.458  -4.769   7.430  0.00  0.00    -0.368 OA
ATOM      4  C   UNL     1       4.191  -6.083   6.915  0.00  0.00    +0.311 C 
ATOM      5  N   UNL     1       3.449  -5.846   5.666  0.00  0.00    -0.289 N 
ATOM      6  H   UNL     1       3.107  -6.521   5.060  0.00  0.00    +0.151 HD
ENDROOT
BRANCH   4   7
ATOM      7  C   UNL     1       5.501  -6.822   6.633  0.00  0.00    +0.202 C 
ATOM      8  C   UNL     1       6.235  -6.986   7.950  0.00  0.00    +0.120 C 
ATOM      9  C   UNL     1       6.545  -8.289   8.346  0.00  0.00    +0.034 A 
ATOM     10  C   UNL     1       7.225  -8.531   9.557  0.00  0.00    +0.013 A 
ATOM     11  C   UNL     1       7.515  -9.810   9.920  0.00  0.00    +0.001 A 
ATOM     12  C   UNL     1       7.152 -10.889   9.119  0.00  0.00    +0.002 A 
ATOM     13  C   UNL     1       6.493 -10.717   7.939  0.00  0.00    +0.024 A 
ATOM     14  C   UNL     1       6.162  -9.423   7.501  0.00  0.00    +0.044 A 
ATOM     15  N   UNL     1       5.514  -9.257   6.341  0.00  0.00    -0.284 N 
ATOM     16  C   UNL     1       5.168  -8.080   5.864  0.00  0.00    +0.233 C 
ATOM     17  O   UNL     1       4.579  -8.005   4.801  0.00  0.00    -0.274 OA
ATOM     18  H   UNL     1       5.287 -10.047   5.825  0.00  0.00    +0.155 HD
BRANCH   8  19
ATOM     19  O   UNL     1       6.571  -5.930   8.699  0.00  0.00    -0.509 OA
ATOM     20  H   UNL     1       7.035  -6.159   9.516  0.00  0.00    +0.292 HD
ENDBRANCH   8  19
ENDBRANCH   4   7
BRANCH   1  24
ATOM     21  C   UNL     1       1.385  -2.554   2.272  0.00  0.00    +0.121 A 
ATOM     22  C   UNL     1       1.961  -1.793   3.282  0.00  0.00    +0.046 A 
ATOM     23  C   UNL     1       2.594  -2.413   4.338  0.00  0.00    +0.015 A 
ATOM     24  C   UNL     1       2.656  -3.806   4.392  0.00  0.00    +0.018 A 
ATOM     25  C   UNL     1       2.075  -4.567   3.376  0.00  0.00    +0.015 A 
ATOM     26  C   UNL     1       1.440  -3.941   2.326  0.00  0.00    +0.046 A 
BRANCH  21  27
ATOM     27  O   UNL     1       0.761  -1.940   1.234  0.00  0.00    -0.492 OA
BRANCH  27  28
ATOM     28  C   UNL     1       0.742  -0.511   1.242  0.00  0.00    +0.229 C 
BRANCH  28  30
ATOM     29  C   UNL     1      -0.019   1.526   0.010  0.00  0.00    +0.007 C 
ATOM     30  C   UNL     1       0.002  -0.004   0.002  0.00  0.00    +0.038 C 
ENDBRANCH  28  30
ENDBRANCH  27  28
ENDBRANCH  21  27
ENDBRANCH   1  24
TORSDOF 6
