REMARK  Name = ZINC43093164
REMARK  9 active torsions:
REMARK  status: ('A' for Active; 'I' for Inactive)
REMARK    1  A    between atoms: C_1  and  C_2
REMARK    2  A    between atoms: C_2  and  C_3
REMARK    3  A    between atoms: C_3  and  C_5
REMARK    4  A    between atoms: C_3  and  N_24
REMARK    5  A    between atoms: C_5  and  C_7
REMARK    6  A    between atoms: C_5  and  N_14
REMARK    7  A    between atoms: C_18  and  O_21
REMARK    8  A    between atoms: O_21  and  C_22
REMARK    9  A    between atoms: C_22  and  C_23
REMARK                            x       y       z     vdW  Elec       q    Type
REMARK                         _______ _______ _______ _____ _____    ______ ____
ROOT
ATOM      1  C   UNL     1      -1.295  -1.988  -0.113  0.00  0.00    -0.051 C 
ENDROOT
BRANCH   1   2
ATOM      2  C   UNL     1      -2.641  -2.601  -0.398  0.00  0.00    -0.049 A 
ATOM      3  C   UNL     1      -3.060  -2.773  -1.704  0.00  0.00    +0.003 A 
ATOM      4  C   UNL     1      -4.295  -3.335  -1.966  0.00  0.00    +0.000 A 
ATOM      5  C   UNL     1      -5.112  -3.727  -0.922  0.00  0.00    +0.001 A 
ATOM      6  C   UNL     1      -4.695  -3.556   0.384  0.00  0.00    +0.015 A 
ATOM      7  C   UNL     1      -3.456  -2.998   0.647  0.00  0.00    +0.019 A 
ATOM      8 BR   UNL     1      -2.881  -2.770   2.434  0.00  0.00    -0.050 Br
ENDBRANCH   1   2
BRANCH   1   9
ATOM      9  N   UNL     1      -0.335  -2.416  -1.139  0.00  0.00    +0.385 N 
ATOM     10  C   UNL     1      -0.238  -3.881  -1.136  0.00  0.00    -0.078 C 
ATOM     11  C   UNL     1       0.699  -4.336  -2.257  0.00  0.00    -0.016 C 
ATOM     12  C   UNL     1       2.088  -3.731  -2.031  0.00  0.00    +0.028 C 
ATOM     13  C   UNL     1       1.964  -2.206  -1.961  0.00  0.00    +0.102 C 
ATOM     14  C   UNL     1       0.980  -1.830  -0.852  0.00  0.00    -0.046 C 
ATOM     15  H   UNL     1      -0.650  -2.103  -2.045  0.00  0.00    -0.081 HD
BRANCH  13  16
ATOM     16  O   UNL     1       3.244  -1.636  -1.679  0.00  0.00    -0.379 OA
BRANCH  16  17
ATOM     17  C   UNL     1       4.011  -1.326  -2.844  0.00  0.00    +0.157 C 
ATOM     18  C   UNL     1       5.354  -0.725  -2.424  0.00  0.00    +0.034 C 
ENDBRANCH  16  17
ENDBRANCH  13  16
ENDBRANCH   1   9
BRANCH   1  19
ATOM     19  C   UNL     1      -1.414  -0.463  -0.130  0.00  0.00    -0.085 C 
BRANCH  19  20
ATOM     20  N   UNL     1      -1.993  -0.032  -1.410  0.00  0.00    +0.379 N 
ATOM     21  H   UNL     1      -1.981   0.975  -1.462  0.00  0.00    -0.090 HD
ATOM     22  H   UNL     1      -1.451  -0.415  -2.170  0.00  0.00    -0.090 HD
ATOM     23  H   UNL     1      -2.945  -0.361  -1.477  0.00  0.00    -0.090 HD
ENDBRANCH  19  20
BRANCH  19  25
ATOM     24  C   UNL     1      -2.344   1.520   1.073  0.00  0.00    +0.002 C 
ATOM     25  C   UNL     1      -2.319  -0.009   1.017  0.00  0.00    -0.021 C 
ENDBRANCH  19  25
ENDBRANCH   1  19
TORSDOF 7
