REMARK  Name = ZINC38687568
REMARK  14 active torsions:
REMARK  status: ('A' for Active; 'I' for Inactive)
REMARK    1  A    between atoms: C_1  and  C_2
REMARK    2  A    between atoms: C_2  and  C_3
REMARK    3  A    between atoms: C_3  and  C_4
REMARK    4  A    between atoms: C_4  and  O_5
REMARK    5  A    between atoms: O_5  and  C_6
REMARK    6  A    between atoms: C_9  and  C_12
REMARK    7  A    between atoms: C_17  and  O_26
REMARK    8  A    between atoms: C_21  and  N_25
REMARK    9  A    between atoms: C_22  and  C_23
REMARK   10  A    between atoms: O_26  and  C_27
REMARK   11  A    between atoms: C_27  and  C_29
REMARK   12  A    between atoms: C_30  and  C_40
REMARK   13  A    between atoms: C_32  and  C_39
REMARK   14  A    between atoms: C_34  and  C_38
REMARK                            x       y       z     vdW  Elec       q    Type
REMARK                         _______ _______ _______ _____ _____    ______ ____
ROOT
ATOM      1  C   UNL     1      -3.192  -8.191  -0.065  0.00  0.00    +0.098 C 
ATOM      2  C   UNL     1      -3.977  -8.587  -1.287  0.00  0.00    +0.008 A 
ATOM      3  C   UNL     1      -3.358  -8.581  -2.525  0.00  0.00    +0.012 A 
ATOM      4  C   UNL     1      -4.063  -8.943  -3.657  0.00  0.00    +0.047 A 
ATOM      5  C   UNL     1      -5.397  -9.312  -3.555  0.00  0.00    +0.136 A 
ATOM      6  C   UNL     1      -6.019  -9.318  -2.317  0.00  0.00    +0.093 A 
ATOM      7  C   UNL     1      -5.309  -8.955  -1.180  0.00  0.00    +0.138 A 
ATOM      8  O   UNL     1      -5.933  -8.966   0.024  0.00  0.00    -0.441 OA
ATOM      9  C   UNL     1      -5.207  -9.003   1.154  0.00  0.00    +0.199 C 
ATOM     10  C   UNL     1      -3.904  -8.647   1.177  0.00  0.00    +0.098 C 
ENDROOT
BRANCH   1  14
ATOM     11  C   UNL     1      -2.769  -3.939   0.028  0.00  0.00    +0.121 A 
ATOM     12  C   UNL     1      -1.643  -4.748  -0.025  0.00  0.00    +0.046 A 
ATOM     13  C   UNL     1      -1.783  -6.122  -0.055  0.00  0.00    +0.008 A 
ATOM     14  C   UNL     1      -3.043  -6.691  -0.032  0.00  0.00    -0.034 A 
ATOM     15  C   UNL     1      -4.166  -5.887   0.020  0.00  0.00    +0.008 A 
ATOM     16  C   UNL     1      -4.032  -4.512   0.056  0.00  0.00    +0.046 A 
BRANCH  11  17
ATOM     17  O   UNL     1      -2.634  -2.587   0.057  0.00  0.00    -0.492 OA
BRANCH  17  18
ATOM     18  C   UNL     1      -1.304  -2.067   0.025  0.00  0.00    +0.229 C 
BRANCH  18  19
ATOM     19  C   UNL     1      -1.353  -0.538   0.066  0.00  0.00    +0.041 C 
BRANCH  19  21
ATOM     20  C   UNL     1       0.023   1.548   0.072  0.00  0.00    +0.004 C 
ATOM     21  C   UNL     1       0.072   0.019   0.032  0.00  0.00    -0.000 C 
ENDBRANCH  19  21
ENDBRANCH  18  19
ENDBRANCH  17  18
ENDBRANCH  11  17
ENDBRANCH   1  14
BRANCH   9  22
ATOM     22  N   UNL     1      -5.808  -9.413   2.318  0.00  0.00    -0.328 N 
ATOM     23  H   UNL     1      -6.743  -9.671   2.317  0.00  0.00    +0.145 HD
ATOM     24  H   UNL     1      -5.297  -9.445   3.142  0.00  0.00    +0.145 HD
ENDBRANCH   9  22
BRANCH  10  25
ATOM     25  C   UNL     1      -3.187  -8.708   2.415  0.00  0.00    +0.101 C 
ATOM     26  N   UNL     1      -2.618  -8.756   3.397  0.00  0.00    -0.191 NA
ENDBRANCH  10  25
BRANCH   5  27
ATOM     27  O   UNL     1      -6.091  -9.668  -4.668  0.00  0.00    -0.420 OA
BRANCH  27  28
ATOM     28  C   UNL     1      -7.095  -8.863  -5.072  0.00  0.00    +0.380 C 
ATOM     29  O   UNL     1      -7.292  -7.806  -4.505  0.00  0.00    -0.241 OA
BRANCH  28  30
ATOM     30  C   UNL     1      -7.949  -9.262  -6.197  0.00  0.00    +0.216 A 
ATOM     31  C   UNL     1      -8.982  -8.532  -6.693  0.00  0.00    +0.010 A 
ATOM     32  C   UNL     1      -9.537  -9.314  -7.796  0.00  0.00    +0.027 A 
ATOM     33  C   UNL     1     -10.591  -9.120  -8.694  0.00  0.00    -0.039 A 
ATOM     34  C   UNL     1     -10.861 -10.071  -9.637  0.00  0.00    +0.007 A 
ATOM     35  C   UNL     1     -10.096 -11.228  -9.708  0.00  0.00    -0.047 A 
ATOM     36  C   UNL     1      -9.053 -11.438  -8.833  0.00  0.00    +0.050 A 
ATOM     37  C   UNL     1      -8.759 -10.484  -7.865  0.00  0.00    +0.137 A 
ATOM     38  O   UNL     1      -7.823 -10.408  -6.899  0.00  0.00    -0.448 OA
ATOM     39  C   UNL     1     -10.410 -12.265 -10.755  0.00  0.00    +0.044 C 
ATOM     40  C   UNL     1     -11.425  -7.867  -8.622  0.00  0.00    +0.044 C 
ATOM     41  C   UNL     1      -9.459  -7.189  -6.204  0.00  0.00    +0.048 C 
ENDBRANCH  28  30
ENDBRANCH  27  28
ENDBRANCH   5  27
TORSDOF 10
