REMARK  Name = ZINC06147079
REMARK  5 active torsions:
REMARK  status: ('A' for Active; 'I' for Inactive)
REMARK    1  A    between atoms: C_1  and  C_2
REMARK    2  A    between atoms: C_2  and  N_3
REMARK    3  A    between atoms: C_7  and  C_8
REMARK    4  A    between atoms: N_10  and  C_22
REMARK    5  A    between atoms: N_23  and  C_26
REMARK                            x       y       z     vdW  Elec       q    Type
REMARK                         _______ _______ _______ _____ _____    ______ ____
ROOT
ATOM      1  N   UNL     1      -8.650  -2.355  -0.303  0.00  0.00    -0.248 N 
ATOM      2  C   UNL     1      -7.678  -2.009   0.563  0.00  0.00    +0.267 C 
ATOM      3  O   UNL     1      -7.531  -0.916   1.086  0.00  0.00    -0.268 OA
ATOM      4  C   UNL     1      -6.864  -3.141   0.753  0.00  0.00    +0.103 C 
ATOM      5  C   UNL     1      -5.745  -3.236   1.565  0.00  0.00    +0.034 C 
ATOM      6  N   UNL     1      -7.412  -4.155  -0.052  0.00  0.00    -0.246 N 
ATOM      7  C   UNL     1      -8.493  -3.639  -0.668  0.00  0.00    +0.151 C 
ATOM      8  S   UNL     1      -9.507  -4.487  -1.755  0.00  0.00    -0.017 S 
ENDROOT
BRANCH   5   9
ATOM      9  C   UNL     1      -5.349  -2.144   2.335  0.00  0.00    +0.065 C 
ATOM     10  C   UNL     1      -4.234  -2.238   3.144  0.00  0.00    +0.193 C 
ATOM     11  N   UNL     1      -3.744  -1.243   3.945  0.00  0.00    -0.271 N 
ATOM     12  C   UNL     1      -2.619  -1.746   4.586  0.00  0.00    +0.087 A 
ATOM     13  C   UNL     1      -1.711  -1.196   5.513  0.00  0.00    +0.007 A 
ATOM     14  C   UNL     1      -1.849   0.122   5.976  0.00  0.00    +0.010 A 
ATOM     15  C   UNL     1      -0.953   0.620   6.872  0.00  0.00    +0.001 A 
ATOM     16  C   UNL     1       0.102  -0.161   7.338  0.00  0.00    +0.001 A 
ATOM     17  C   UNL     1       0.267  -1.443   6.912  0.00  0.00    +0.008 A 
ATOM     18  C   UNL     1      -0.638  -1.991   5.987  0.00  0.00    -0.016 A 
ATOM     19  C   UNL     1      -0.499  -3.312   5.525  0.00  0.00    +0.012 A 
ATOM     20  C   UNL     1      -1.387  -3.821   4.631  0.00  0.00    +0.049 A 
ATOM     21  C   UNL     1      -2.451  -3.050   4.152  0.00  0.00    +0.152 A 
ATOM     22  O   UNL     1      -3.449  -3.323   3.275  0.00  0.00    -0.440 OA
ATOM     23  C   UNL     1      -4.303   0.103   4.098  0.00  0.00    +0.138 C 
ENDBRANCH   5   9
BRANCH   6  24
ATOM     24  C   UNL     1      -6.926  -5.461  -0.185  0.00  0.00    +0.041 A 
ATOM     25  C   UNL     1      -7.312  -6.443   0.718  0.00  0.00    +0.024 A 
ATOM     26  C   UNL     1      -6.835  -7.732   0.580  0.00  0.00    +0.002 A 
ATOM     27  C   UNL     1      -5.965  -8.043  -0.449  0.00  0.00    +0.000 A 
ATOM     28  C   UNL     1      -5.575  -7.066  -1.347  0.00  0.00    +0.002 A 
ATOM     29  C   UNL     1      -6.053  -5.777  -1.218  0.00  0.00    +0.024 A 
ENDBRANCH   6  24
BRANCH   1  31
ATOM     30  C   UNL     1      -9.252  -0.745  -2.042  0.00  0.00    +0.025 C 
ATOM     31  C   UNL     1      -9.715  -1.468  -0.776  0.00  0.00    +0.112 C 
ENDBRANCH   1  31
TORSDOF 3
