REMARK  Name = ZINC39664164
REMARK  8 active torsions:
REMARK  status: ('A' for Active; 'I' for Inactive)
REMARK    1  A    between atoms: C_1  and  O_2
REMARK    2  A    between atoms: O_2  and  C_3
REMARK    3  A    between atoms: C_6  and  C_9
REMARK    4  A    between atoms: C_9  and  C_11
REMARK    5  A    between atoms: C_9  and  N_35
REMARK    6  A    between atoms: C_11  and  N_12
REMARK    7  A    between atoms: C_13  and  C_15
REMARK    8  A    between atoms: C_26  and  C_28
REMARK                            x       y       z     vdW  Elec       q    Type
REMARK                         _______ _______ _______ _____ _____    ______ ____
ROOT
ATOM      1  N   UNL     1       4.751  -5.180   4.185  0.00  0.00    -0.316 N 
ATOM      2  C   UNL     1       5.470  -4.643   5.191  0.00  0.00    +0.218 C 
ATOM      3  O   UNL     1       5.678  -3.449   5.218  0.00  0.00    -0.275 OA
ATOM      4  H   UNL     1       4.584  -6.135   4.165  0.00  0.00    +0.149 HD
ENDROOT
BRANCH   2   5
ATOM      5  C   UNL     1       6.014  -5.527   6.284  0.00  0.00    +0.100 C 
ATOM      6  C   UNL     1       6.304  -4.696   7.554  0.00  0.00    +0.121 C 
ATOM      7  N   UNL     1       7.543  -5.286   8.112  0.00  0.00    -0.300 N 
ATOM      8  C   UNL     1       8.376  -5.587   6.923  0.00  0.00    +0.115 C 
ATOM      9  C   UNL     1       7.376  -6.109   5.873  0.00  0.00    -0.004 C 
ATOM     10  C   UNL     1       7.765  -5.614   4.483  0.00  0.00    -0.010 C 
ATOM     11  C   UNL     1       9.095  -6.252   4.072  0.00  0.00    -0.082 C 
ATOM     12  N   UNL     1       8.960  -7.714   4.073  0.00  0.00    +0.379 N 
ATOM     13  C   UNL     1       8.677  -8.190   5.432  0.00  0.00    -0.082 C 
ATOM     14  C   UNL     1       7.330  -7.634   5.901  0.00  0.00    -0.010 C 
ATOM     15  C   UNL     1       7.845  -5.501   9.408  0.00  0.00    +0.219 C 
ATOM     16  O   UNL     1       7.016  -5.285  10.267  0.00  0.00    -0.275 OA
ATOM     17  H   UNL     1       8.203  -7.980   3.461  0.00  0.00    -0.086 HD
ATOM     18  H   UNL     1       9.818  -8.130   3.743  0.00  0.00    -0.086 HD
BRANCH  15  19
ATOM     19  C   UNL     1       9.211  -6.011   9.790  0.00  0.00    +0.079 C 
ATOM     20  C   UNL     1       9.237  -6.345  11.287  0.00  0.00    +0.017 C 
ATOM     21  C   UNL     1      10.570  -7.023  11.608  0.00  0.00    +0.027 C 
ATOM     22  C   UNL     1      11.707  -6.222  11.043  0.00  0.00    -0.031 C 
ATOM     23  C   UNL     1      11.572  -5.314  10.131  0.00  0.00    -0.030 C 
ATOM     24  C   UNL     1      10.258  -4.931   9.512  0.00  0.00    +0.039 C 
ENDBRANCH  15  19
ENDBRANCH   2   5
BRANCH   1  25
ATOM     25  C   UNL     1       4.222  -4.320   3.123  0.00  0.00    +0.093 C 
BRANCH  25  26
ATOM     26  C   UNL     1       3.344  -5.151   2.186  0.00  0.00    -0.020 C 
BRANCH  26  30
ATOM     27  C   UNL     1      -0.136  -6.467   4.288  0.00  0.00    +0.120 A 
ATOM     28  C   UNL     1       0.934  -7.330   4.107  0.00  0.00    +0.046 A 
ATOM     29  C   UNL     1       2.058  -6.903   3.427  0.00  0.00    +0.005 A 
ATOM     30  C   UNL     1       2.116  -5.615   2.927  0.00  0.00    -0.059 A 
ATOM     31  C   UNL     1       1.051  -4.752   3.106  0.00  0.00    +0.005 A 
ATOM     32  C   UNL     1      -0.077  -5.177   3.781  0.00  0.00    +0.046 A 
BRANCH  27  34
ATOM     33  C   UNL     1      -1.234  -8.226   5.451  0.00  0.00    +0.277 C 
ATOM     34  O   UNL     1      -1.243  -6.885   4.957  0.00  0.00    -0.495 OA
ENDBRANCH  27  34
ENDBRANCH  26  30
BRANCH  26  35
ATOM     35  N   UNL     1       2.940  -4.329   1.037  0.00  0.00    +0.385 N 
ATOM     36  C   UNL     1       4.123  -4.001   0.201  0.00  0.00    -0.078 C 
ATOM     37  C   UNL     1       3.501  -3.663  -1.177  0.00  0.00    -0.020 C 
ATOM     38  C   UNL     1       2.340  -4.677  -1.290  0.00  0.00    -0.020 C 
ATOM     39  C   UNL     1       2.026  -5.092   0.160  0.00  0.00    -0.078 C 
ATOM     40  H   UNL     1       2.492  -3.482   1.354  0.00  0.00    -0.081 HD
ENDBRANCH  26  35
ENDBRANCH  25  26
ENDBRANCH   1  25
TORSDOF 7
