REMARK  Name = ZINC12901713
REMARK  6 active torsions:
REMARK  status: ('A' for Active; 'I' for Inactive)
REMARK    1  A    between atoms: C_1  and  C_2
REMARK    2  A    between atoms: C_5  and  N_8
REMARK    3  A    between atoms: C_13  and  C_37
REMARK    4  A    between atoms: C_37  and  C_38
REMARK    5  A    between atoms: C_38  and  C_39
REMARK    6  A    between atoms: C_38  and  C_40
REMARK                            x       y       z     vdW  Elec       q    Type
REMARK                         _______ _______ _______ _____ _____    ______ ____
ROOT
ATOM      1  N   UNL     1      -1.198   7.613  -2.237  0.00  0.00    -0.210 N 
ATOM      2  C   UNL     1      -0.406   8.346  -1.447  0.00  0.00    +0.228 C 
ATOM      3  O   UNL     1      -0.438   9.554  -1.350  0.00  0.00    -0.275 OA
ATOM      4  C   UNL     1       0.534   7.434  -0.692  0.00  0.00    +0.073 C 
ATOM      5  C   UNL     1       0.151   7.438   0.803  0.00  0.00    -0.057 C 
ATOM      6  C   UNL     1      -0.412   5.303   0.038  0.00  0.00    +0.032 C 
ATOM      7  C   UNL     1       0.143   6.018  -1.200  0.00  0.00    +0.087 C 
ATOM      8  C   UNL     1      -0.977   6.295  -2.176  0.00  0.00    +0.229 C 
ATOM      9  O   UNL     1      -1.580   5.453  -2.807  0.00  0.00    -0.275 OA
ATOM     10  C   UNL     1      -0.055   3.845   0.040  0.00  0.00    -0.026 A 
ATOM     11  C   UNL     1       1.144   3.166   0.026  0.00  0.00    +0.005 A 
ATOM     12  C   UNL     1       1.155   1.782   0.029  0.00  0.00    +0.000 A 
ATOM     13  C   UNL     1      -0.039   1.084   0.045  0.00  0.00    +0.002 A 
ATOM     14  C   UNL     1      -1.241   1.761   0.054  0.00  0.00    +0.026 A 
ATOM     15  C   UNL     1      -1.259   3.154   0.058  0.00  0.00    +0.053 A 
ATOM     16  N   UNL     1      -2.342   4.047   0.071  0.00  0.00    -0.265 N 
ATOM     17  C   UNL     1      -1.920   5.343   0.061  0.00  0.00    +0.112 A 
ATOM     18  N   UNL     1      -2.737   6.357   0.069  0.00  0.00    -0.234 NA
ATOM     19  C   UNL     1      -4.082   6.199   0.086  0.00  0.00    +0.078 A 
ATOM     20  C   UNL     1      -4.952   7.291   0.093  0.00  0.00    +0.028 A 
ATOM     21  C   UNL     1      -6.312   7.080   0.110  0.00  0.00    +0.002 A 
ATOM     22  C   UNL     1      -6.832   5.792   0.120  0.00  0.00    +0.001 A 
ATOM     23  C   UNL     1      -5.995   4.698   0.114  0.00  0.00    +0.015 A 
ATOM     24  C   UNL     1      -4.614   4.890   0.097  0.00  0.00    +0.065 A 
ATOM     25  C   UNL     1      -3.672   3.765   0.090  0.00  0.00    +0.266 A 
ATOM     26  O   UNL     1      -4.069   2.614   0.102  0.00  0.00    -0.267 OA
ATOM     27  N   UNL     1       0.147   6.020   1.171  0.00  0.00    +0.393 N 
ATOM     28  H   UNL     1      -0.432   5.871   2.005  0.00  0.00    -0.084 HD
ATOM     29  H   UNL     1       1.104   5.698   1.357  0.00  0.00    -0.084 HD
ENDROOT
BRANCH   1  34
ATOM     30  C   UNL     1      -5.171   9.908  -5.579  0.00  0.00    +0.044 C 
ATOM     31  C   UNL     1      -4.116   9.298  -4.692  0.00  0.00    -0.050 A 
ATOM     32  C   UNL     1      -4.236   9.387  -3.317  0.00  0.00    +0.005 A 
ATOM     33  C   UNL     1      -3.270   8.829  -2.501  0.00  0.00    +0.024 A 
ATOM     34  C   UNL     1      -2.180   8.179  -3.063  0.00  0.00    +0.044 A 
ATOM     35  C   UNL     1      -2.060   8.097  -4.443  0.00  0.00    +0.024 A 
ATOM     36  C   UNL     1      -3.031   8.651  -5.254  0.00  0.00    +0.005 A 
ENDBRANCH   1  34
BRANCH   5  37
ATOM     37  C   UNL     1       1.183   8.224   1.615  0.00  0.00    -0.012 C 
BRANCH  37  38
ATOM     38  C   UNL     1       0.721   8.320   3.071  0.00  0.00    -0.019 C 
ATOM     39  C   UNL     1       1.808   8.996   3.908  0.00  0.00    +0.007 C 
ATOM     40  C   UNL     1      -0.566   9.145   3.143  0.00  0.00    +0.007 C 
ENDBRANCH  37  38
ENDBRANCH   5  37
TORSDOF 3
