REMARK  Name = ZINC39291686
REMARK  1 active torsions:
REMARK  status: ('A' for Active; 'I' for Inactive)
REMARK    1  A    between atoms: C_6  and  N_7
REMARK                            x       y       z     vdW  Elec       q    Type
REMARK                         _______ _______ _______ _____ _____    ______ ____
ROOT
ATOM      1  C   UNL     1      -0.017   1.379   0.010  0.00  0.00    +0.033 A 
ATOM      2  C   UNL     1       1.153   2.101   0.002  0.00  0.00    +0.013 A 
ATOM      3  C   UNL     1       2.400   1.447  -0.013  0.00  0.00    +0.009 A 
ATOM      4  C   UNL     1       2.386   0.053  -0.020  0.00  0.00    +0.103 A 
ATOM      5  C   UNL     1       1.220  -0.666  -0.014  0.00  0.00    +0.060 A 
ATOM      6  C   UNL     1       0.002  -0.004   0.002  0.00  0.00    +0.128 A 
ATOM      7  S   UNL     1       4.097  -0.415  -0.039  0.00  0.00    +0.026 S 
ATOM      8  O   UNL     1       4.393  -1.031   1.207  0.00  0.00    -0.164 OA
ATOM      9  O   UNL     1       4.369  -1.018  -1.296  0.00  0.00    -0.164 OA
ATOM     10  C   UNL     1       4.838   1.199  -0.037  0.00  0.00    +0.102 A 
ATOM     11  C   UNL     1       3.745   2.085  -0.022  0.00  0.00    +0.010 A 
ATOM     12  C   UNL     1       4.016   3.456  -0.017  0.00  0.00    +0.019 A 
ATOM     13  C   UNL     1       5.337   3.918  -0.026  0.00  0.00    -0.014 A 
ATOM     14  C   UNL     1       5.623   5.296  -0.019  0.00  0.00    +0.049 A 
ATOM     15  C   UNL     1       6.918   5.718  -0.027  0.00  0.00    +0.159 A 
ATOM     16  C   UNL     1       7.973   4.801  -0.043  0.00  0.00    +0.159 A 
ATOM     17  C   UNL     1       7.733   3.460  -0.050  0.00  0.00    +0.049 A 
ATOM     18  C   UNL     1       6.410   2.991  -0.041  0.00  0.00    -0.013 A 
ATOM     19  C   UNL     1       6.121   1.613  -0.047  0.00  0.00    +0.036 A 
ATOM     20  F   UNL     1       9.247   5.251  -0.051  0.00  0.00    -0.202 F 
ATOM     21  F   UNL     1       7.186   7.042  -0.021  0.00  0.00    -0.202 F 
ENDROOT
BRANCH   6  22
ATOM     22  N   UNL     1      -1.265  -0.769   0.010  0.00  0.00    +0.056 N 
ATOM     23  O   UNL     1      -2.324  -0.186   0.024  0.00  0.00    -0.126 OA
ATOM     24  O   UNL     1      -1.241  -1.978   0.004  0.00  0.00    -0.126 OA
ENDBRANCH   6  22
TORSDOF 1
