REMARK  Name = ZINC00722082
REMARK  9 active torsions:
REMARK  status: ('A' for Active; 'I' for Inactive)
REMARK    1  A    between atoms: C_1  and  C_2
REMARK    2  A    between atoms: C_3  and  C_27
REMARK    3  A    between atoms: C_4  and  C_22
REMARK    4  A    between atoms: C_6  and  C_20
REMARK    5  A    between atoms: C_7  and  S_9
REMARK    6  A    between atoms: S_9  and  C_10
REMARK    7  A    between atoms: C_10  and  C_11
REMARK    8  A    between atoms: N_13  and  C_14
REMARK    9  A    between atoms: N_29  and  C_30
REMARK                            x       y       z     vdW  Elec       q    Type
REMARK                         _______ _______ _______ _____ _____    ______ ____
ROOT
ATOM      1  C   UNL     1       2.670   0.942   0.336  0.00  0.00    +0.061 C 
ATOM      2  C   UNL     1       1.414   1.749   0.128  0.00  0.00    +0.014 C 
ATOM      3  C   UNL     1       1.504   3.074  -0.067  0.00  0.00    +0.044 C 
ATOM      4  C   UNL     1       0.287   3.925  -0.288  0.00  0.00    +0.105 C 
ATOM      5  C   UNL     1      -0.959   3.194   0.127  0.00  0.00    +0.069 C 
ATOM      6  C   UNL     1      -0.957   1.848   0.312  0.00  0.00    +0.080 C 
ATOM      7  N   UNL     1       0.199   1.119   0.141  0.00  0.00    -0.312 N 
ATOM      8  H   UNL     1       0.144   0.028   0.015  0.00  0.00    +0.152 HD
ENDROOT
BRANCH   4   9
ATOM      9  C   UNL     1       0.189   4.280  -1.750  0.00  0.00    +0.002 A 
ATOM     10  C   UNL     1       0.191   5.504  -2.332  0.00  0.00    +0.012 A 
ATOM     11  C   UNL     1       0.090   5.591  -3.708  0.00  0.00    +0.008 A 
ATOM     12  C   UNL     1      -0.007   4.450  -4.434  0.00  0.00    +0.045 A 
ATOM     13  S   UNL     1       0.049   3.198  -3.163  0.00  0.00    -0.101 S 
ENDBRANCH   4   9
BRANCH   3  14
ATOM     14  C   UNL     1       2.781   3.685  -0.064  0.00  0.00    +0.247 C 
ATOM     15  O   UNL     1       3.779   3.010   0.114  0.00  0.00    -0.270 OA
ATOM     16  N   UNL     1       2.892   5.014  -0.258  0.00  0.00    -0.282 N 
ATOM     17  H   UNL     1       1.999   5.613  -0.493  0.00  0.00    +0.155 HD
BRANCH  16  18
ATOM     18  C   UNL     1       4.142   5.633  -0.160  0.00  0.00    +0.034 A 
ATOM     19  C   UNL     1       4.245   6.916   0.363  0.00  0.00    +0.023 A 
ATOM     20  C   UNL     1       5.482   7.522   0.462  0.00  0.00    +0.002 A 
ATOM     21  C   UNL     1       6.616   6.858   0.032  0.00  0.00    +0.000 A 
ATOM     22  C   UNL     1       6.516   5.583  -0.494  0.00  0.00    +0.002 A 
ATOM     23  C   UNL     1       5.283   4.969  -0.591  0.00  0.00    +0.023 A 
ENDBRANCH  16  18
ENDBRANCH   3  14
BRANCH   5  24
ATOM     24  C   UNL     1      -2.171   3.929   0.326  0.00  0.00    +0.098 C 
ATOM     25  N   UNL     1      -3.133   4.513   0.484  0.00  0.00    -0.191 NA
ENDBRANCH   5  24
BRANCH   6  26
ATOM     26  S   UNL     1      -2.445   1.031   0.782  0.00  0.00    -0.100 S 
BRANCH  26  27
ATOM     27  C   UNL     1      -1.849  -0.675   0.883  0.00  0.00    +0.171 C 
BRANCH  27  28
ATOM     28  C   UNL     1      -2.984  -1.582   1.282  0.00  0.00    +0.227 C 
ATOM     29  O   UNL     1      -4.088  -1.120   1.479  0.00  0.00    -0.275 OA
ATOM     30  N   UNL     1      -2.773  -2.906   1.420  0.00  0.00    -0.285 N 
ATOM     31  H   UNL     1      -1.756  -3.313   1.324  0.00  0.00    +0.155 HD
BRANCH  30  32
ATOM     32  C   UNL     1      -3.848  -3.761   1.686  0.00  0.00    +0.033 A 
ATOM     33  C   UNL     1      -3.660  -4.891   2.472  0.00  0.00    +0.023 A 
ATOM     34  C   UNL     1      -4.724  -5.730   2.737  0.00  0.00    +0.002 A 
ATOM     35  C   UNL     1      -5.973  -5.454   2.211  0.00  0.00    +0.000 A 
ATOM     36  C   UNL     1      -6.162  -4.333   1.423  0.00  0.00    +0.002 A 
ATOM     37  C   UNL     1      -5.103  -3.487   1.159  0.00  0.00    +0.023 A 
ENDBRANCH  30  32
ENDBRANCH  27  28
ENDBRANCH  26  27
ENDBRANCH   6  26
TORSDOF 8
