REMARK  Name = ZINC36272046
REMARK  10 active torsions:
REMARK  status: ('A' for Active; 'I' for Inactive)
REMARK    1  A    between atoms: C_1  and  C_2
REMARK    2  A    between atoms: C_2  and  N_3
REMARK    3  A    between atoms: N_6  and  C_9
REMARK    4  A    between atoms: C_9  and  C_10
REMARK    5  A    between atoms: C_11  and  C_20
REMARK    6  A    between atoms: C_16  and  N_19
REMARK    7  A    between atoms: C_23  and  O_26
REMARK    8  A    between atoms: O_26  and  C_27
REMARK    9  A    between atoms: C_27  and  C_28
REMARK   10  A    between atoms: C_27  and  C_29
REMARK                            x       y       z     vdW  Elec       q    Type
REMARK                         _______ _______ _______ _____ _____    ______ ____
ROOT
ATOM      1  C   UNL     1       3.630  -4.041  -3.804  0.00  0.00    +0.063 A 
ATOM      2  C   UNL     1       4.512  -4.750  -3.045  0.00  0.00    +0.069 A 
ATOM      3  N   UNL     1       4.120  -6.032  -3.031  0.00  0.00    -0.339 N 
ATOM      4  C   UNL     1       3.017  -6.157  -3.757  0.00  0.00    +0.116 A 
ATOM      5  N   UNL     1       2.685  -4.922  -4.248  0.00  0.00    -0.302 N 
ATOM      6  C   UNL     1       1.575  -4.763  -5.032  0.00  0.00    +0.115 A 
ATOM      7  C   UNL     1       0.787  -5.824  -5.332  0.00  0.00    +0.041 A 
ATOM      8  C   UNL     1       1.104  -7.104  -4.836  0.00  0.00    +0.028 A 
ATOM      9  C   UNL     1       2.210  -7.271  -4.063  0.00  0.00    +0.046 A 
ATOM     10  H   UNL     1       4.570  -6.754  -2.564  0.00  0.00    +0.167 HD
ENDROOT
BRANCH   2  11
ATOM     11  C   UNL     1       5.703  -4.197  -2.353  0.00  0.00    +0.000 A 
ATOM     12  C   UNL     1       6.547  -3.309  -3.017  0.00  0.00    +0.013 A 
ATOM     13  C   UNL     1       7.653  -2.797  -2.370  0.00  0.00    +0.046 A 
ATOM     14  C   UNL     1       7.926  -3.166  -1.061  0.00  0.00    +0.121 A 
ATOM     15  C   UNL     1       7.088  -4.051  -0.397  0.00  0.00    +0.046 A 
ATOM     16  C   UNL     1       5.977  -4.562  -1.036  0.00  0.00    +0.013 A 
BRANCH  14  17
ATOM     17  O   UNL     1       9.017  -2.661  -0.427  0.00  0.00    -0.489 OA
BRANCH  17  18
ATOM     18  C   UNL     1       9.769  -1.666  -1.124  0.00  0.00    +0.167 C 
ATOM     19  C   UNL     1      10.520  -0.794  -0.116  0.00  0.00    +0.051 C 
ATOM     20  C   UNL     1      10.773  -2.346  -2.057  0.00  0.00    +0.051 C 
ENDBRANCH  17  18
ENDBRANCH  14  17
ENDBRANCH   2  11
BRANCH   7  21
ATOM     21  N   UNL     1      -0.347  -5.647  -6.137  0.00  0.00    -0.357 N 
ATOM     22  H   UNL     1      -0.567  -4.766  -6.479  0.00  0.00    +0.142 HD
ATOM     23  H   UNL     1      -0.912  -6.405  -6.352  0.00  0.00    +0.142 HD
ENDBRANCH   7  21
BRANCH   1  24
ATOM     24  C   UNL     1       3.683  -2.562  -4.093  0.00  0.00    +0.140 C 
BRANCH  24  28
ATOM     25  N   UNL     1       0.982   0.031  -2.131  0.00  0.00    +0.381 N 
ATOM     26  C   UNL     1       2.417   0.330  -2.038  0.00  0.00    -0.063 C 
ATOM     27  C   UNL     1       3.161  -0.386  -3.168  0.00  0.00    +0.066 C 
ATOM     28  N   UNL     1       2.937  -1.834  -3.058  0.00  0.00    -0.300 NA
ATOM     29  C   UNL     1       1.502  -2.147  -3.124  0.00  0.00    +0.066 C 
ATOM     30  C   UNL     1       0.771  -1.417  -1.995  0.00  0.00    -0.063 C 
ATOM     31  H   UNL     1       0.631   0.338  -3.026  0.00  0.00    -0.082 HD
BRANCH  25  33
ATOM     32  C   UNL     1       0.380   2.243  -1.271  0.00  0.00    -0.017 C 
ATOM     33  C   UNL     1       0.265   0.732  -1.058  0.00  0.00    -0.082 C 
ENDBRANCH  25  33
ENDBRANCH  24  28
ENDBRANCH   1  24
TORSDOF 7
