REMARK  Name = ZINC08454425
REMARK  9 active torsions:
REMARK  status: ('A' for Active; 'I' for Inactive)
REMARK    1  A    between atoms: C_1  and  C_2
REMARK    2  A    between atoms: C_2  and  O_3
REMARK    3  A    between atoms: O_3  and  C_4
REMARK    4  A    between atoms: C_7  and  C_10
REMARK    5  A    between atoms: C_10  and  C_12
REMARK    6  A    between atoms: C_10  and  N_49
REMARK    7  A    between atoms: C_13  and  C_14
REMARK    8  A    between atoms: C_13  and  N_49
REMARK    9  A    between atoms: C_19  and  C_22
REMARK                            x       y       z     vdW  Elec       q    Type
REMARK                         _______ _______ _______ _____ _____    ______ ____
ROOT
ATOM      1  C   UNL     1      -0.014   1.209   0.009  0.00  0.00    +0.202 C 
ATOM      2  O   UNL     1       0.002  -0.004   0.002  0.00  0.00    -0.278 OA
ATOM      3  N   UNL     1       1.143   1.898   0.001  0.00  0.00    -0.266 N 
ATOM      4  C   UNL     1       2.356   1.220  -0.014  0.00  0.00    +0.165 A 
ATOM      5  N   UNL     1       3.584   1.704  -0.023  0.00  0.00    -0.225 NA
ATOM      6  C   UNL     1       4.639   0.904  -0.037  0.00  0.00    +0.080 A 
ATOM      7  C   UNL     1       4.453  -0.451  -0.043  0.00  0.00    +0.076 A 
ATOM      8  S   UNL     1       2.667  -0.540  -0.018  0.00  0.00    -0.060 S 
ATOM      9  H   UNL     1       1.130   2.868   0.007  0.00  0.00    +0.157 HD
ENDROOT
BRANCH   6  10
ATOM     10  C   UNL     1       6.009   1.471  -0.047  0.00  0.00    +0.001 A 
ATOM     11  C   UNL     1       7.117   0.625  -0.056  0.00  0.00    +0.011 A 
ATOM     12  C   UNL     1       8.389   1.158  -0.070  0.00  0.00    +0.016 A 
ATOM     13  C   UNL     1       8.567   2.531  -0.064  0.00  0.00    +0.018 A 
ATOM     14  C   UNL     1       7.471   3.376  -0.050  0.00  0.00    +0.016 A 
ATOM     15  C   UNL     1       6.194   2.853  -0.041  0.00  0.00    +0.011 A 
ATOM     16 BR   UNL     1      10.315   3.254  -0.076  0.00  0.00    -0.050 Br
ENDBRANCH   6  10
BRANCH   1  17
ATOM     17  C   UNL     1      -1.330   1.944   0.019  0.00  0.00    +0.016 C 
BRANCH  17  18
ATOM     18  N   UNL     1      -2.432   0.964   0.019  0.00  0.00    +0.389 N 
ATOM     19  H   UNL     1      -2.366   0.380  -0.823  0.00  0.00    -0.084 HD
ATOM     20  H   UNL     1      -2.358   0.371   0.854  0.00  0.00    -0.084 HD
BRANCH  18  21
ATOM     21  C   UNL     1      -3.734   1.657   0.029  0.00  0.00    -0.043 C 
ATOM     22  C   UNL     1      -4.134   2.013  -1.404  0.00  0.00    -0.009 C 
BRANCH  21  26
ATOM     23  C   UNL     1      -6.684  -0.923   1.731  0.00  0.00    +0.121 A 
ATOM     24  C   UNL     1      -6.689   0.431   2.032  0.00  0.00    +0.046 A 
ATOM     25  C   UNL     1      -5.734   1.263   1.480  0.00  0.00    +0.005 A 
ATOM     26  C   UNL     1      -4.774   0.747   0.629  0.00  0.00    -0.061 A 
ATOM     27  C   UNL     1      -4.771  -0.601   0.324  0.00  0.00    +0.005 A 
ATOM     28  C   UNL     1      -5.720  -1.438   0.877  0.00  0.00    +0.046 A 
BRANCH  23  29
ATOM     29  O   UNL     1      -7.623  -1.744   2.272  0.00  0.00    -0.492 OA
BRANCH  29  31
ATOM     30  C   UNL     1      -8.686  -3.886   2.618  0.00  0.00    +0.048 C 
ATOM     31  C   UNL     1      -7.557  -3.127   1.918  0.00  0.00    +0.225 C 
ENDBRANCH  29  31
ENDBRANCH  23  29
ENDBRANCH  21  26
ENDBRANCH  18  21
ENDBRANCH  17  18
ENDBRANCH   1  17
TORSDOF 7
