REMARK  Name = ZINC54409653
REMARK  11 active torsions:
REMARK  status: ('A' for Active; 'I' for Inactive)
REMARK    1  A    between atoms: C_1  and  C_2
REMARK    2  A    between atoms: C_5  and  C_29
REMARK    3  A    between atoms: N_8  and  C_10
REMARK    4  A    between atoms: C_10  and  C_11
REMARK    5  A    between atoms: C_10  and  C_12
REMARK    6  A    between atoms: C_10  and  C_13
REMARK    7  A    between atoms: C_13  and  N_14
REMARK    8  A    between atoms: N_17  and  C_18
REMARK    9  A    between atoms: C_23  and  S_24
REMARK   10  A    between atoms: S_24  and  C_25
REMARK   11  A    between atoms: C_25  and  C_26
REMARK                            x       y       z     vdW  Elec       q    Type
REMARK                         _______ _______ _______ _____ _____    ______ ____
ROOT
ATOM      1  N   UNL     1       3.514  -2.507   0.953  0.00  0.00    -0.300 N 
ATOM      2  C   UNL     1       4.803  -2.306   0.615  0.00  0.00    +0.304 C 
ATOM      3  O   UNL     1       5.599  -1.924   1.451  0.00  0.00    -0.253 OA
ATOM      4  N   UNL     1       5.210  -2.529  -0.651  0.00  0.00    -0.268 N 
ATOM      5  H   UNL     1       2.879  -2.811   0.285  0.00  0.00    +0.150 HD
ATOM      6  H   UNL     1       4.592  -2.894  -1.302  0.00  0.00    +0.156 HD
ENDROOT
BRANCH   4   7
ATOM      7  C   UNL     1       6.528  -2.231  -1.025  0.00  0.00    +0.048 A 
ATOM      8  C   UNL     1       7.548  -2.294  -0.089  0.00  0.00    +0.024 A 
ATOM      9  C   UNL     1       8.847  -2.000  -0.460  0.00  0.00    +0.002 A 
ATOM     10  C   UNL     1       9.134  -1.642  -1.765  0.00  0.00    +0.001 A 
ATOM     11  C   UNL     1       8.123  -1.577  -2.706  0.00  0.00    +0.016 A 
ATOM     12  C   UNL     1       6.818  -1.876  -2.343  0.00  0.00    +0.030 A 
BRANCH  12  13
ATOM     13  S   UNL     1       5.529  -1.801  -3.542  0.00  0.00    -0.114 S 
BRANCH  13  14
ATOM     14  C   UNL     1       6.376  -1.309  -5.068  0.00  0.00    +0.169 C 
BRANCH  14  15
ATOM     15  C   UNL     1       5.374  -1.206  -6.189  0.00  0.00    +0.221 C 
ATOM     16  O   UNL     1       4.203  -1.442  -5.979  0.00  0.00    -0.275 OA
ATOM     17  N   UNL     1       5.779  -0.852  -7.425  0.00  0.00    -0.329 N 
ATOM     18  H   UNL     1       6.715  -0.663  -7.593  0.00  0.00    +0.145 HD
ATOM     19  H   UNL     1       5.134  -0.786  -8.146  0.00  0.00    +0.145 HD
ENDBRANCH  14  15
ENDBRANCH  13  14
ENDBRANCH  12  13
ENDBRANCH   4   7
BRANCH   1  20
ATOM     20  C   UNL     1       3.071  -2.265   2.328  0.00  0.00    +0.093 C 
BRANCH  20  21
ATOM     21  C   UNL     1       1.600  -2.662   2.467  0.00  0.00    -0.055 C 
ATOM     22  C   UNL     1       1.116  -2.337   3.882  0.00  0.00    -0.008 C 
ATOM     23  C   UNL     1       1.451  -4.163   2.210  0.00  0.00    -0.008 C 
BRANCH  21  29
ATOM     24  C   UNL     1       0.430   1.806   0.846  0.00  0.00    +0.005 C 
ATOM     25  C   UNL     1       0.223   0.306   0.629  0.00  0.00    -0.031 C 
ATOM     26  C   UNL     1      -1.268  -0.027   0.739  0.00  0.00    +0.003 C 
ATOM     27  C   UNL     1      -1.455  -1.540   0.598  0.00  0.00    -0.031 C 
ATOM     28  C   UNL     1      -0.621  -2.253   1.665  0.00  0.00    -0.075 C 
ATOM     29  N   UNL     1       0.796  -1.915   1.491  0.00  0.00    +0.384 N 
ATOM     30  C   UNL     1       0.995  -0.475   1.694  0.00  0.00    -0.075 C 
ATOM     31  C   UNL     1      -2.932  -1.891   0.783  0.00  0.00    +0.005 C 
ATOM     32  H   UNL     1       1.088  -2.165   0.557  0.00  0.00    -0.081 HD
ENDBRANCH  21  29
ENDBRANCH  20  21
ENDBRANCH   1  20
TORSDOF 7
