REMARK  Name = ZINC39693439
REMARK  10 active torsions:
REMARK  status: ('A' for Active; 'I' for Inactive)
REMARK    1  A    between atoms: C_1  and  C_2
REMARK    2  A    between atoms: C_2  and  C_3
REMARK    3  A    between atoms: C_2  and  C_4
REMARK    4  A    between atoms: C_2  and  O_5
REMARK    5  A    between atoms: O_5  and  C_6
REMARK    6  A    between atoms: N_8  and  C_9
REMARK    7  A    between atoms: C_9  and  C_10
REMARK    8  A    between atoms: C_10  and  N_11
REMARK    9  A    between atoms: C_12  and  C_14
REMARK   10  A    between atoms: C_25  and  C_27
REMARK                            x       y       z     vdW  Elec       q    Type
REMARK                         _______ _______ _______ _____ _____    ______ ____
ROOT
ATOM      1  C   UNL     1       8.690   0.109  -5.215  0.00  0.00    +0.100 C 
ATOM      2  C   UNL     1       9.271  -0.582  -3.961  0.00  0.00    +0.121 C 
ATOM      3  N   UNL     1       9.787  -1.881  -4.454  0.00  0.00    -0.296 N 
ATOM      4  C   UNL     1      10.393  -1.562  -5.769  0.00  0.00    +0.115 C 
ATOM      5  C   UNL     1       9.432  -0.534  -6.399  0.00  0.00    -0.004 C 
ATOM      6  C   UNL     1      10.218   0.524  -7.167  0.00  0.00    -0.010 C 
ATOM      7  C   UNL     1      10.900  -0.129  -8.373  0.00  0.00    -0.082 C 
ATOM      8  N   UNL     1       9.884  -0.738  -9.241  0.00  0.00    +0.379 N 
ATOM      9  C   UNL     1       9.195  -1.818  -8.523  0.00  0.00    -0.082 C 
ATOM     10  C   UNL     1       8.442  -1.236  -7.324  0.00  0.00    -0.010 C 
ATOM     11  C   UNL     1       9.721  -3.081  -3.844  0.00  0.00    +0.247 C 
ATOM     12  O   UNL     1       9.078  -3.208  -2.820  0.00  0.00    -0.270 OA
ATOM     13  H   UNL     1       9.213  -0.036  -9.515  0.00  0.00    -0.086 HD
ATOM     14  H   UNL     1      10.329  -1.114 -10.065  0.00  0.00    -0.086 HD
ENDROOT
BRANCH  11  15
ATOM     15  C   UNL     1      10.429  -4.243  -4.421  0.00  0.00    +0.037 A 
ATOM     16  C   UNL     1      11.491  -4.047  -5.307  0.00  0.00    +0.014 A 
ATOM     17  C   UNL     1      12.148  -5.135  -5.842  0.00  0.00    +0.016 A 
ATOM     18  C   UNL     1      11.757  -6.420  -5.503  0.00  0.00    +0.018 A 
ATOM     19  C   UNL     1      10.705  -6.620  -4.625  0.00  0.00    +0.016 A 
ATOM     20  C   UNL     1      10.044  -5.540  -4.078  0.00  0.00    +0.014 A 
ATOM     21 BR   UNL     1      12.663  -7.906  -6.241  0.00  0.00    -0.050 Br
ENDBRANCH  11  15
BRANCH   1  23
ATOM     22  N   UNL     1       6.423   0.695  -6.012  0.00  0.00    -0.314 N 
ATOM     23  C   UNL     1       7.209  -0.152  -5.319  0.00  0.00    +0.218 C 
ATOM     24  O   UNL     1       6.725  -1.124  -4.779  0.00  0.00    -0.275 OA
ATOM     25  H   UNL     1       6.810   1.473  -6.444  0.00  0.00    +0.149 HD
BRANCH  22  26
ATOM     26  C   UNL     1       4.984   0.442  -6.114  0.00  0.00    +0.123 C 
BRANCH  26  27
ATOM     27  C   UNL     1       4.329   1.545  -6.948  0.00  0.00    +0.126 C 
BRANCH  27  30
ATOM     28  C   UNL     1       2.104   2.139  -7.742  0.00  0.00    +0.401 C 
ATOM     29  O   UNL     1       2.589   3.113  -8.283  0.00  0.00    -0.226 OA
ATOM     30  N   UNL     1       2.890   1.292  -7.049  0.00  0.00    -0.280 N 
ATOM     31  H   UNL     1       2.503   0.514  -6.618  0.00  0.00    +0.152 HD
BRANCH  28  32
ATOM     32  O   UNL     1       0.781   1.906  -7.836  0.00  0.00    -0.445 OA
BRANCH  32  34
ATOM     33  C   UNL     1       0.520   2.892 -10.027  0.00  0.00    +0.055 C 
ATOM     34  C   UNL     1       0.008   2.845  -8.586  0.00  0.00    +0.107 C 
ATOM     35  C   UNL     1       0.138   4.233  -7.954  0.00  0.00    +0.055 C 
ATOM     36  C   UNL     1      -1.461   2.418  -8.580  0.00  0.00    +0.055 C 
ENDBRANCH  32  34
ENDBRANCH  28  32
ENDBRANCH  27  30
ENDBRANCH  26  27
ENDBRANCH  22  26
ENDBRANCH   1  23
TORSDOF 7
