REMARK  Name = ZINC61569240
REMARK  7 active torsions:
REMARK  status: ('A' for Active; 'I' for Inactive)
REMARK    1  A    between atoms: C_1  and  C_2
REMARK    2  A    between atoms: C_4  and  O_19
REMARK    3  A    between atoms: C_7  and  N_8
REMARK    4  A    between atoms: N_8  and  C_9
REMARK    5  A    between atoms: C_12  and  N_18
REMARK    6  A    between atoms: C_14  and  C_15
REMARK    7  A    between atoms: O_19  and  C_20
REMARK                            x       y       z     vdW  Elec       q    Type
REMARK                         _______ _______ _______ _____ _____    ______ ____
ROOT
ATOM      1  C   UNL     1      -0.067  -0.734   3.604  0.00  0.00    +0.044 A 
ATOM      2  C   UNL     1      -1.255  -0.744   4.323  0.00  0.00    +0.026 A 
ATOM      3  C   UNL     1      -1.332  -1.417   5.524  0.00  0.00    +0.024 A 
ATOM      4  C   UNL     1      -0.222  -2.090   6.026  0.00  0.00    +0.025 A 
ATOM      5  C   UNL     1       0.969  -2.089   5.322  0.00  0.00    +0.037 A 
ATOM      6  C   UNL     1       1.055  -1.415   4.101  0.00  0.00    +0.059 A 
ENDROOT
BRANCH   6   7
ATOM      7  C   UNL     1       2.319  -1.415   3.341  0.00  0.00    +0.243 C 
ATOM      8  O   UNL     1       2.427  -0.732   2.341  0.00  0.00    -0.270 OA
ATOM      9  N   UNL     1       3.354  -2.171   3.756  0.00  0.00    -0.325 N 
ATOM     10  H   UNL     1       3.268  -2.716   4.554  0.00  0.00    +0.145 HD
ATOM     11  H   UNL     1       4.186  -2.171   3.257  0.00  0.00    +0.145 HD
ENDBRANCH   6   7
BRANCH   4  12
ATOM     12  N   UNL     1      -0.311  -2.771   7.246  0.00  0.00    -0.358 N 
ATOM     13  H   UNL     1      -1.145  -2.772   7.741  0.00  0.00    +0.142 HD
ATOM     14  H   UNL     1       0.462  -3.240   7.597  0.00  0.00    +0.142 HD
ENDBRANCH   4  12
BRANCH   1  15
ATOM     15  N   UNL     1       0.010  -0.054   2.392  0.00  0.00    -0.314 N 
ATOM     16  H   UNL     1       0.094   0.912   2.382  0.00  0.00    +0.152 HD
BRANCH  15  23
ATOM     17  C   UNL     1      -0.018   1.424  -0.038  0.00  0.00    +0.046 C 
ATOM     18  C   UNL     1      -0.049  -0.083  -0.022  0.00  0.00    -0.026 A 
ATOM     19  C   UNL     1      -0.087  -0.785  -1.211  0.00  0.00    +0.050 A 
ATOM     20  C   UNL     1      -0.116  -2.172  -1.196  0.00  0.00    +0.120 A 
ATOM     21  C   UNL     1      -0.106  -2.854   0.011  0.00  0.00    +0.047 A 
ATOM     22  C   UNL     1      -0.069  -2.154   1.200  0.00  0.00    +0.027 A 
ATOM     23  C   UNL     1      -0.034  -0.765   1.187  0.00  0.00    +0.035 A 
BRANCH  20  24
ATOM     24  O   UNL     1      -0.154  -2.863  -2.367  0.00  0.00    -0.495 OA
ATOM     25  C   UNL     1      -0.182  -4.289  -2.278  0.00  0.00    +0.277 C 
ENDBRANCH  20  24
ENDBRANCH  15  23
ENDBRANCH   1  15
TORSDOF 5
