REMARK  Name = ZINC53941571
REMARK  13 active torsions:
REMARK  status: ('A' for Active; 'I' for Inactive)
REMARK    1  A    between atoms: C_1  and  C_2
REMARK    2  A    between atoms: C_2  and  C_3
REMARK    3  A    between atoms: C_3  and  C_4
REMARK    4  A    between atoms: C_3  and  N_6
REMARK    5  A    between atoms: C_4  and  C_5
REMARK    6  A    between atoms: N_6  and  C_7
REMARK    7  A    between atoms: N_6  and  C_19
REMARK    8  A    between atoms: C_7  and  C_8
REMARK    9  A    between atoms: C_8  and  C_9
REMARK   10  A    between atoms: C_9  and  C_11
REMARK   11  A    between atoms: C_9  and  N_18
REMARK   12  A    between atoms: C_19  and  C_20
REMARK   13  A    between atoms: C_20  and  O_21
REMARK                            x       y       z     vdW  Elec       q    Type
REMARK                         _______ _______ _______ _____ _____    ______ ____
ROOT
ATOM      1  C   UNL     1       0.797  -1.651  -3.732  0.00  0.00    -0.077 C 
ENDROOT
BRANCH   1   2
ATOM      2  N   UNL     1       0.089  -0.841  -2.732  0.00  0.00    +0.383 N 
ATOM      3  H   UNL     1      -0.408  -1.448  -2.098  0.00  0.00    -0.081 HD
BRANCH   2   4
ATOM      4  C   UNL     1       1.058  -0.034  -1.978  0.00  0.00    -0.069 C 
BRANCH   4   6
ATOM      5  C   UNL     1       1.291  -1.796  -0.223  0.00  0.00    +0.002 C 
ATOM      6  C   UNL     1       2.042  -0.960  -1.260  0.00  0.00    -0.019 C 
ENDBRANCH   4   6
BRANCH   4   7
ATOM      7  C   UNL     1       1.824   0.874  -2.942  0.00  0.00    -0.019 C 
ATOM      8  C   UNL     1       1.144   2.244  -3.002  0.00  0.00    +0.002 C 
ENDBRANCH   4   7
ENDBRANCH   2   4
BRANCH   2   9
ATOM      9  C   UNL     1      -0.866   0.047  -3.408  0.00  0.00    -0.050 C 
BRANCH   9  10
ATOM     10  C   UNL     1      -1.740   0.746  -2.365  0.00  0.00    +0.137 C 
BRANCH  10  11
ATOM     11  O   UNL     1      -0.943   1.661  -1.611  0.00  0.00    -0.397 OA
ATOM     12  H   UNL     1      -1.414   2.085  -0.881  0.00  0.00    +0.209 HD
ENDBRANCH  10  11
ENDBRANCH   9  10
ENDBRANCH   2   9
ENDBRANCH   1   2
BRANCH   1  13
ATOM     13  C   UNL     1       0.848  -3.107  -3.266  0.00  0.00    +0.005 C 
BRANCH  13  14
ATOM     14  C   UNL     1       1.582  -3.952  -4.309  0.00  0.00    +0.079 C 
BRANCH  14  15
ATOM     15  C   UNL     1       1.525  -5.404  -3.911  0.00  0.00    -0.031 A 
ATOM     16  C   UNL     1       2.391  -5.891  -2.949  0.00  0.00    +0.006 A 
ATOM     17  C   UNL     1       2.339  -7.223  -2.583  0.00  0.00    +0.015 A 
ATOM     18  C   UNL     1       1.420  -8.068  -3.179  0.00  0.00    +0.018 A 
ATOM     19  C   UNL     1       0.554  -7.580  -4.141  0.00  0.00    +0.015 A 
ATOM     20  C   UNL     1       0.603  -6.247  -4.503  0.00  0.00    +0.006 A 
ATOM     21 BR   UNL     1       1.348  -9.891  -2.679  0.00  0.00    -0.050 Br
ENDBRANCH  14  15
BRANCH  14  22
ATOM     22  N   UNL     1       2.984  -3.521  -4.389  0.00  0.00    -0.324 NA
ATOM     23  H   UNL     1       3.052  -2.569  -4.717  0.00  0.00    +0.119 HD
ATOM     24  H   UNL     1       3.448  -3.630  -3.499  0.00  0.00    +0.119 HD
ENDBRANCH  14  22
ENDBRANCH  13  14
ENDBRANCH   1  13
TORSDOF 11
