REMARK  Name = ZINC62427423
REMARK  5 active torsions:
REMARK  status: ('A' for Active; 'I' for Inactive)
REMARK    1  A    between atoms: C_1  and  C_2
REMARK    2  A    between atoms: C_11  and  N_14
REMARK    3  A    between atoms: C_15  and  C_21
REMARK    4  A    between atoms: C_16  and  C_19
REMARK    5  A    between atoms: C_19  and  N_20
REMARK                            x       y       z     vdW  Elec       q    Type
REMARK                         _______ _______ _______ _____ _____    ______ ____
ROOT
ATOM      1  C   UNL     1       1.532  -2.457  -2.953  0.00  0.00    +0.007 C 
ATOM      2  C   UNL     1       0.630  -2.204  -1.743  0.00  0.00    -0.011 C 
ATOM      3  C   UNL     1       1.393  -2.542  -0.460  0.00  0.00    +0.022 C 
ATOM      4  C   UNL     1       0.500  -2.255   0.751  0.00  0.00    +0.107 C 
ATOM      5  N   UNL     1      -0.765  -2.986   0.590  0.00  0.00    -0.317 N 
ATOM      6  C   UNL     1      -1.534  -2.804  -0.649  0.00  0.00    +0.107 C 
ATOM      7  C   UNL     1      -0.618  -3.084  -1.844  0.00  0.00    +0.022 C 
ATOM      8  C   UNL     1      -1.224  -3.836   1.591  0.00  0.00    +0.099 A 
ATOM      9  C   UNL     1      -2.483  -4.418   1.474  0.00  0.00    +0.044 A 
ATOM     10  C   UNL     1      -2.930  -5.261   2.475  0.00  0.00    +0.032 A 
ATOM     11  C   UNL     1      -2.096  -5.496   3.567  0.00  0.00    +0.083 A 
ATOM     12  C   UNL     1      -0.855  -4.881   3.615  0.00  0.00    +0.112 A 
ATOM     13  N   UNL     1      -0.458  -4.086   2.641  0.00  0.00    -0.348 N 
ATOM     14  H   UNL     1       0.417  -3.670   2.697  0.00  0.00    +0.167 HD
ENDROOT
BRANCH  11  15
ATOM     15  N   UNL     1      -2.510  -6.345   4.606  0.00  0.00    -0.215 N 
ATOM     16  C   UNL     1      -3.748  -6.374   5.169  0.00  0.00    +0.069 A 
ATOM     17  C   UNL     1      -3.704  -7.334   6.123  0.00  0.00    +0.069 A 
ATOM     18  N   UNL     1      -2.464  -7.836   6.099  0.00  0.00    -0.136 NA
ATOM     19  N   UNL     1      -1.784  -7.234   5.189  0.00  0.00    -0.060 NA
BRANCH  16  20
ATOM     20  C   UNL     1      -4.930  -5.513   4.804  0.00  0.00    +0.040 C 
ATOM     21  C   UNL     1      -4.692  -4.008   4.668  0.00  0.00    +0.010 C 
ATOM     22  C   UNL     1      -5.462  -4.555   5.872  0.00  0.00    +0.010 C 
ENDBRANCH  16  20
BRANCH  17  23
ATOM     23  C   UNL     1      -4.829  -7.754   7.032  0.00  0.00    -0.026 C 
BRANCH  23  24
ATOM     24  N   UNL     1      -5.595  -8.835   6.397  0.00  0.00    +0.382 N 
ATOM     25  H   UNL     1      -5.975  -8.508   5.521  0.00  0.00    -0.090 HD
ATOM     26  H   UNL     1      -4.988  -9.622   6.227  0.00  0.00    -0.090 HD
ATOM     27  H   UNL     1      -6.349  -9.116   7.006  0.00  0.00    -0.090 HD
ENDBRANCH  23  24
ENDBRANCH  17  23
ENDBRANCH  11  15
TORSDOF 4
