REMARK  Name = ZINC37062936
REMARK  11 active torsions:
REMARK  status: ('A' for Active; 'I' for Inactive)
REMARK    1  A    between atoms: C_1  and  C_2
REMARK    2  A    between atoms: C_2  and  N_3
REMARK    3  A    between atoms: N_3  and  C_4
REMARK    4  A    between atoms: N_3  and  C_6
REMARK    5  A    between atoms: C_4  and  C_5
REMARK    6  A    between atoms: C_6  and  C_7
REMARK    7  A    between atoms: C_7  and  C_8
REMARK    8  A    between atoms: C_8  and  N_9
REMARK    9  A    between atoms: N_9  and  S_10
REMARK   10  A    between atoms: S_10  and  C_13
REMARK   11  A    between atoms: C_15  and  N_21
REMARK                            x       y       z     vdW  Elec       q    Type
REMARK                         _______ _______ _______ _____ _____    ______ ____
ROOT
ATOM      1  S   UNL     1      -3.375  -5.336  -2.560  0.00  0.00    +0.061 S 
ATOM      2  O   UNL     1      -4.794  -5.291  -2.504  0.00  0.00    -0.153 OA
ATOM      3  O   UNL     1      -2.667  -5.551  -3.773  0.00  0.00    -0.153 OA
ENDROOT
BRANCH   1   4
ATOM      4  C   UNL     1      -2.867  -6.606  -1.449  0.00  0.00    +0.143 A 
ATOM      5  C   UNL     1      -3.814  -7.341  -0.762  0.00  0.00    +0.054 A 
ATOM      6  C   UNL     1      -3.414  -8.342   0.113  0.00  0.00    +0.028 A 
ATOM      7  C   UNL     1      -2.062  -8.602   0.296  0.00  0.00    +0.045 A 
ATOM      8  C   UNL     1      -1.118  -7.865  -0.393  0.00  0.00    +0.080 A 
ATOM      9  C   UNL     1      -1.520  -6.870  -1.270  0.00  0.00    +0.168 A 
ATOM     10  F   UNL     1      -0.596  -6.154  -1.948  0.00  0.00    -0.202 F 
ATOM     11 CL   UNL     1       0.572  -8.190  -0.166  0.00  0.00    -0.080 Cl
BRANCH   6  12
ATOM     12  N   UNL     1      -4.370  -9.086   0.810  0.00  0.00    -0.358 N 
ATOM     13  H   UNL     1      -5.314  -8.903   0.682  0.00  0.00    +0.142 HD
ATOM     14  H   UNL     1      -4.090  -9.785   1.421  0.00  0.00    +0.142 HD
ENDBRANCH   6  12
ENDBRANCH   1   4
BRANCH   1  15
ATOM     15  N   UNL     1      -2.831  -3.899  -1.943  0.00  0.00    -0.190 NA
ATOM     16  H   UNL     1      -3.465  -3.226  -1.649  0.00  0.00    +0.148 HD
BRANCH  15  17
ATOM     17  C   UNL     1      -1.392  -3.644  -1.840  0.00  0.00    +0.104 C 
BRANCH  17  18
ATOM     18  C   UNL     1      -1.155  -2.151  -1.603  0.00  0.00    -0.002 C 
BRANCH  18  19
ATOM     19  C   UNL     1       0.348  -1.884  -1.496  0.00  0.00    -0.078 C 
BRANCH  19  20
ATOM     20  N   UNL     1       0.576  -0.451  -1.269  0.00  0.00    +0.379 N 
ATOM     21  H   UNL     1       0.124   0.081  -1.998  0.00  0.00    -0.082 HD
BRANCH  20  23
ATOM     22  C   UNL     1       0.128   1.449   0.210  0.00  0.00    -0.017 C 
ATOM     23  C   UNL     1       0.019  -0.067   0.035  0.00  0.00    -0.082 C 
ENDBRANCH  20  23
BRANCH  20  24
ATOM     24  C   UNL     1       2.019  -0.176  -1.285  0.00  0.00    -0.082 C 
ATOM     25  C   UNL     1       2.573  -0.440  -2.687  0.00  0.00    -0.017 C 
ENDBRANCH  20  24
ENDBRANCH  19  20
ENDBRANCH  18  19
ENDBRANCH  17  18
ENDBRANCH  15  17
ENDBRANCH   1  15
TORSDOF 9
