REMARK  Name = ZINC40804445
REMARK  5 active torsions:
REMARK  status: ('A' for Active; 'I' for Inactive)
REMARK    1  A    between atoms: C_1  and  C_2
REMARK    2  A    between atoms: C_2  and  C_4
REMARK    3  A    between atoms: C_2  and  N_11
REMARK    4  A    between atoms: C_12  and  C_14
REMARK    5  A    between atoms: C_17  and  O_21
REMARK                            x       y       z     vdW  Elec       q    Type
REMARK                         _______ _______ _______ _____ _____    ______ ____
ROOT
ATOM      1  N   UNL     1      -1.372  -0.511   0.012  0.00  0.00    -0.310 N 
ATOM      2  C   UNL     1      -2.051  -0.643  -1.145  0.00  0.00    +0.200 C 
ATOM      3  O   UNL     1      -1.524  -0.341  -2.194  0.00  0.00    -0.278 OA
ATOM      4  H   UNL     1      -1.794  -0.752   0.852  0.00  0.00    +0.149 HD
ENDROOT
BRANCH   2   5
ATOM      5  C   UNL     1      -3.465  -1.164  -1.134  0.00  0.00    +0.018 C 
ATOM      6  C   UNL     1      -3.455  -2.704  -1.024  0.00  0.00    +0.023 C 
ATOM      7  C   UNL     1      -4.622  -3.127  -1.955  0.00  0.00    +0.097 C 
ATOM      8  C   UNL     1      -4.518  -2.074  -3.086  0.00  0.00    -0.050 C 
ATOM      9  N   UNL     1      -4.137  -0.817  -2.400  0.00  0.00    +0.388 N 
ATOM     10  H   UNL     1      -4.962  -0.270  -2.207  0.00  0.00    -0.085 HD
ATOM     11  H   UNL     1      -3.508  -0.287  -2.984  0.00  0.00    -0.085 HD
BRANCH   7  12
ATOM     12  O   UNL     1      -4.417  -4.447  -2.464  0.00  0.00    -0.394 OA
ATOM     13  H   UNL     1      -5.121  -4.756  -3.051  0.00  0.00    +0.210 HD
ENDBRANCH   7  12
ENDBRANCH   2   5
BRANCH   1  15
ATOM     14  C   UNL     1      -0.019   1.526   0.010  0.00  0.00    +0.033 C 
ATOM     15  C   UNL     1       0.002  -0.004   0.002  0.00  0.00    +0.100 C 
BRANCH  15  16
ATOM     16  C   UNL     1       0.731  -0.503   1.223  0.00  0.00    -0.027 A 
ATOM     17  C   UNL     1       0.080  -0.558   2.441  0.00  0.00    +0.008 A 
ATOM     18  C   UNL     1       0.748  -1.016   3.562  0.00  0.00    +0.038 A 
ATOM     19  C   UNL     1       2.068  -1.420   3.463  0.00  0.00    +0.123 A 
ATOM     20  C   UNL     1       2.719  -1.365   2.242  0.00  0.00    +0.038 A 
ATOM     21  C   UNL     1       2.048  -0.911   1.122  0.00  0.00    +0.008 A 
ATOM     22  F   UNL     1       2.722  -1.868   4.558  0.00  0.00    -0.205 F 
ENDBRANCH  15  16
ENDBRANCH   1  15
TORSDOF 4
