REMARK  Name = ZINC39324850
REMARK  8 active torsions:
REMARK  status: ('A' for Active; 'I' for Inactive)
REMARK    1  A    between atoms: C_1  and  O_2
REMARK    2  A    between atoms: O_2  and  C_3
REMARK    3  A    between atoms: C_10  and  C_15
REMARK    4  A    between atoms: C_15  and  N_16
REMARK    5  A    between atoms: N_16  and  C_17
REMARK    6  A    between atoms: N_16  and  S_24
REMARK    7  A    between atoms: C_17  and  C_18
REMARK    8  A    between atoms: S_24  and  C_27
REMARK                            x       y       z     vdW  Elec       q    Type
REMARK                         _______ _______ _______ _____ _____    ______ ____
ROOT
ATOM      1  N   UNL     1      -5.261  -6.500   1.143  0.00  0.00    -0.171 NA
ENDROOT
BRANCH   1   2
ATOM      2  S   UNL     1      -6.726  -6.060   1.776  0.00  0.00    +0.062 S 
ATOM      3  O   UNL     1      -7.321  -7.246   2.285  0.00  0.00    -0.153 OA
ATOM      4  O   UNL     1      -6.492  -4.917   2.587  0.00  0.00    -0.153 OA
BRANCH   2   5
ATOM      5  C   UNL     1      -7.736  -5.528   0.434  0.00  0.00    +0.119 A 
ATOM      6  C   UNL     1      -8.799  -6.306   0.017  0.00  0.00    +0.029 A 
ATOM      7  C   UNL     1      -9.591  -5.888  -1.036  0.00  0.00    +0.002 A 
ATOM      8  C   UNL     1      -9.320  -4.692  -1.673  0.00  0.00    +0.001 A 
ATOM      9  C   UNL     1      -8.257  -3.913  -1.257  0.00  0.00    +0.017 A 
ATOM     10  C   UNL     1      -7.467  -4.328  -0.200  0.00  0.00    +0.044 A 
ATOM     11 BR   UNL     1      -6.017  -3.259   0.374  0.00  0.00    -0.048 Br
ENDBRANCH   2   5
ENDBRANCH   1   2
BRANCH   1  12
ATOM     12  C   UNL     1      -4.108  -5.606   1.276  0.00  0.00    +0.126 C 
BRANCH  12  20
ATOM     13  C   UNL     1       0.684  -4.284   4.338  0.00  0.00    +0.121 A 
ATOM     14  C   UNL     1       0.738  -5.566   4.896  0.00  0.00    +0.047 A 
ATOM     15  C   UNL     1      -0.289  -6.449   4.800  0.00  0.00    +0.027 A 
ATOM     16  C   UNL     1      -1.472  -6.100   4.121  0.00  0.00    +0.041 A 
ATOM     17  N   UNL     1      -2.472  -6.977   4.035  0.00  0.00    -0.284 N 
ATOM     18  C   UNL     1      -3.610  -6.716   3.413  0.00  0.00    +0.225 C 
ATOM     19  O   UNL     1      -4.488  -7.557   3.368  0.00  0.00    -0.275 OA
ATOM     20  C   UNL     1      -3.815  -5.368   2.759  0.00  0.00    +0.114 C 
ATOM     21  C   UNL     1      -2.680  -4.367   2.854  0.00  0.00    -0.003 C 
ATOM     22  C   UNL     1      -1.558  -4.757   3.523  0.00  0.00    -0.004 A 
ATOM     23  C   UNL     1      -0.419  -3.850   3.667  0.00  0.00    +0.055 A 
ATOM     24  H   UNL     1      -2.361  -7.848   4.448  0.00  0.00    +0.155 HD
BRANCH  13  26
ATOM     25  C   UNL     1       2.882  -3.959   5.186  0.00  0.00    +0.277 C 
ATOM     26  O   UNL     1       1.752  -3.453   4.473  0.00  0.00    -0.495 OA
ENDBRANCH  13  26
ENDBRANCH  12  20
ENDBRANCH   1  12
BRANCH   1  27
ATOM     27  C   UNL     1      -5.117  -7.782   0.449  0.00  0.00    +0.146 C 
BRANCH  27  28
ATOM     28  C   UNL     1      -4.607  -8.821   1.414  0.00  0.00    -0.014 A 
ATOM     29  C   UNL     1      -3.244  -9.018   1.577  0.00  0.00    +0.008 A 
ATOM     30  C   UNL     1      -2.820  -9.984   2.476  0.00  0.00    +0.020 A 
ATOM     31  C   UNL     1      -3.763 -10.714   3.175  0.00  0.00    +0.111 A 
ATOM     32  N   UNL     1      -5.051 -10.500   2.994  0.00  0.00    -0.263 NA
ATOM     33  C   UNL     1      -5.490  -9.585   2.152  0.00  0.00    +0.115 A 
ENDBRANCH  27  28
ENDBRANCH   1  27
TORSDOF 7
