REMARK  Name = ZINC12877561
REMARK  4 active torsions:
REMARK  status: ('A' for Active; 'I' for Inactive)
REMARK    1  A    between atoms: C_1  and  C_2
REMARK    2  A    between atoms: C_2  and  C_4
REMARK    3  A    between atoms: C_2  and  O_35
REMARK    4  A    between atoms: N_12  and  C_15
REMARK                            x       y       z     vdW  Elec       q    Type
REMARK                         _______ _______ _______ _____ _____    ______ ____
ROOT
ATOM      1  C   UNL     1       0.862   8.368   1.505  0.00  0.00    -0.028 C 
ATOM      2  C   UNL     1       0.632   7.807   0.086  0.00  0.00    +0.076 C 
ATOM      3  C   UNL     1      -0.913   7.732  -0.068  0.00  0.00    +0.088 C 
ATOM      4  C   UNL     1      -1.177   6.248  -0.197  0.00  0.00    +0.229 C 
ATOM      5  O   UNL     1      -2.268   5.742  -0.351  0.00  0.00    -0.275 OA
ATOM      6  N   UNL     1      -0.020   5.581  -0.113  0.00  0.00    -0.210 N 
ATOM      7  C   UNL     1       1.058   6.358   0.046  0.00  0.00    +0.228 C 
ATOM      8  O   UNL     1       2.199   5.960   0.142  0.00  0.00    -0.275 OA
ATOM      9  C   UNL     1      -1.459   8.257   1.266  0.00  0.00    +0.050 C 
ATOM     10  C   UNL     1      -1.859   9.701   1.167  0.00  0.00    -0.028 A 
ATOM     11  C   UNL     1      -1.177  10.854   0.847  0.00  0.00    +0.004 A 
ATOM     12  C   UNL     1      -1.838  12.070   0.839  0.00  0.00    +0.000 A 
ATOM     13  C   UNL     1      -3.183  12.124   1.154  0.00  0.00    +0.002 A 
ATOM     14  C   UNL     1      -3.870  10.972   1.477  0.00  0.00    +0.023 A 
ATOM     15  C   UNL     1      -3.213   9.744   1.486  0.00  0.00    +0.036 A 
ATOM     16  N   UNL     1      -3.682   8.461   1.775  0.00  0.00    -0.286 N 
ATOM     17  C   UNL     1      -2.713   7.531   1.670  0.00  0.00    +0.211 C 
ATOM     18  O   UNL     1      -2.829   6.339   1.863  0.00  0.00    -0.277 OA
ATOM     19  H   UNL     1      -4.598   8.262   2.023  0.00  0.00    +0.155 HD
ATOM     20  N   UNL     1      -0.377   8.069   2.218  0.00  0.00    +0.396 N 
ATOM     21  H   UNL     1      -0.490   8.708   3.014  0.00  0.00    -0.083 HD
ATOM     22  H   UNL     1      -0.366   7.100   2.555  0.00  0.00    -0.083 HD
ENDROOT
BRANCH   6  23
ATOM     23  C   UNL     1       0.057   4.182  -0.191  0.00  0.00    +0.048 A 
ATOM     24  C   UNL     1       0.669   3.580  -1.282  0.00  0.00    +0.028 A 
ATOM     25  C   UNL     1       0.740   2.203  -1.362  0.00  0.00    +0.051 A 
ATOM     26  C   UNL     1       0.208   1.418  -0.350  0.00  0.00    +0.162 A 
ATOM     27  C   UNL     1      -0.404   2.018   0.745  0.00  0.00    +0.164 A 
ATOM     28  C   UNL     1      -0.479   3.400   0.822  0.00  0.00    +0.073 A 
ATOM     29  O   UNL     1      -0.931   1.264   1.748  0.00  0.00    -0.485 OA
ATOM     30  C   UNL     1      -1.169  -0.117   1.458  0.00  0.00    +0.270 C 
ATOM     31  C   UNL     1       0.074  -0.682   0.758  0.00  0.00    +0.270 C 
ATOM     32  O   UNL     1       0.288   0.062  -0.446  0.00  0.00    -0.485 OA
ENDBRANCH   6  23
BRANCH   1  34
ATOM     33  C   UNL     1       3.343   8.090   1.399  0.00  0.00    +0.036 C 
ATOM     34  C   UNL     1       2.072   7.694   2.154  0.00  0.00    +0.098 C 
BRANCH  34  35
ATOM     35  O   UNL     1       2.177   8.112   3.517  0.00  0.00    -0.394 OA
ATOM     36  H   UNL     1       2.289   9.066   3.627  0.00  0.00    +0.210 HD
ENDBRANCH  34  35
ENDBRANCH   1  34
TORSDOF 3
