REMARK  Name = ZINC38669789
REMARK  10 active torsions:
REMARK  status: ('A' for Active; 'I' for Inactive)
REMARK    1  A    between atoms: C_1  and  O_2
REMARK    2  A    between atoms: O_2  and  C_3
REMARK    3  A    between atoms: C_9  and  C_32
REMARK    4  A    between atoms: C_11  and  N_13
REMARK    5  A    between atoms: C_14  and  C_16
REMARK    6  A    between atoms: C_16  and  N_17
REMARK    7  A    between atoms: C_20  and  C_23
REMARK    8  A    between atoms: C_20  and  N_26
REMARK    9  A    between atoms: C_32  and  O_34
REMARK   10  A    between atoms: O_34  and  C_35
REMARK                            x       y       z     vdW  Elec       q    Type
REMARK                         _______ _______ _______ _____ _____    ______ ____
ROOT
ATOM      1  N   UNL     1      -0.902  -2.301  -1.292  0.00  0.00    -0.285 N 
ATOM      2  C   UNL     1      -1.056  -1.054  -1.781  0.00  0.00    +0.231 C 
ATOM      3  O   UNL     1      -0.370  -0.149  -1.359  0.00  0.00    -0.274 OA
ATOM      4  H   UNL     1      -1.393  -3.040  -1.685  0.00  0.00    +0.155 HD
ENDROOT
BRANCH   1  12
ATOM      5  C   UNL     1       0.011  -5.124  -0.104  0.00  0.00    +0.131 A 
ATOM      6  C   UNL     1       0.570  -6.145   0.609  0.00  0.00    +0.046 A 
ATOM      7  C   UNL     1       1.435  -5.901   1.673  0.00  0.00    +0.006 A 
ATOM      8  C   UNL     1       1.775  -4.649   2.066  0.00  0.00    +0.026 A 
ATOM      9  C   UNL     1       1.252  -3.517   1.395  0.00  0.00    +0.048 A 
ATOM     10  N   UNL     1       1.430  -2.225   1.588  0.00  0.00    -0.367 N 
ATOM     11  C   UNL     1       0.643  -1.481   0.599  0.00  0.00    +0.234 C 
ATOM     12  C   UNL     1      -0.058  -2.523  -0.245  0.00  0.00    +0.056 C 
ATOM     13  C   UNL     1       0.337  -3.744   0.261  0.00  0.00    +0.059 A 
ATOM     14  H   UNL     1       1.991  -1.830   2.273  0.00  0.00    +0.161 HD
BRANCH   5  16
ATOM     15  C   UNL     1      -1.096  -6.756  -1.426  0.00  0.00    +0.277 C 
ATOM     16  O   UNL     1      -0.829  -5.383  -1.136  0.00  0.00    -0.494 OA
ENDBRANCH   5  16
BRANCH  11  17
ATOM     17  C   UNL     1      -0.370  -0.607   1.293  0.00  0.00    +0.335 C 
ATOM     18  O   UNL     1      -0.762  -0.897   2.399  0.00  0.00    -0.248 OA
BRANCH  17  19
ATOM     19  O   UNL     1      -0.836   0.495   0.683  0.00  0.00    -0.466 OA
ATOM     20  C   UNL     1      -1.793   1.277   1.400  0.00  0.00    +0.280 C 
ENDBRANCH  17  19
ENDBRANCH  11  17
ENDBRANCH   1  12
BRANCH   2  21
ATOM     21  C   UNL     1      -2.080  -0.787  -2.854  0.00  0.00    +0.180 C 
BRANCH  21  22
ATOM     22  N   UNL     1      -2.051   0.637  -3.214  0.00  0.00    -0.294 NA
ATOM     23  C   UNL     1      -0.775   0.994  -3.845  0.00  0.00    +0.084 C 
ATOM     24  C   UNL     1      -0.723   2.507  -4.074  0.00  0.00    +0.013 C 
ATOM     25  C   UNL     1      -1.892   2.923  -4.971  0.00  0.00    +0.015 C 
ATOM     26  C   UNL     1      -3.207   2.496  -4.313  0.00  0.00    +0.013 C 
ATOM     27  C   UNL     1      -3.187   0.984  -4.078  0.00  0.00    +0.084 C 
BRANCH  25  28
ATOM     28  N   UNL     1      -1.881   4.382  -5.146  0.00  0.00    +0.389 N 
ATOM     29  C   UNL     1      -1.894   5.031  -3.829  0.00  0.00    -0.077 C 
ATOM     30  C   UNL     1      -1.801   6.548  -4.004  0.00  0.00    -0.019 C 
ATOM     31  C   UNL     1      -2.997   7.036  -4.827  0.00  0.00    -0.004 C 
ATOM     32  C   UNL     1      -3.016   6.298  -6.168  0.00  0.00    -0.019 C 
ATOM     33  C   UNL     1      -3.064   4.789  -5.913  0.00  0.00    -0.077 C 
ATOM     34  H   UNL     1      -1.048   4.653  -5.645  0.00  0.00    -0.080 HD
ENDBRANCH  25  28
BRANCH  25  35
ATOM     35  C   UNL     1      -1.760   2.252  -6.314  0.00  0.00    +0.200 C 
ATOM     36  O   UNL     1      -2.286   1.177  -6.509  0.00  0.00    -0.278 OA
ATOM     37  N   UNL     1      -1.057   2.848  -7.298  0.00  0.00    -0.330 N 
ATOM     38  H   UNL     1      -0.575   3.671  -7.120  0.00  0.00    +0.145 HD
ATOM     39  H   UNL     1      -1.032   2.453  -8.183  0.00  0.00    +0.145 HD
ENDBRANCH  25  35
ENDBRANCH  21  22
ENDBRANCH   2  21
TORSDOF 8
