REMARK  Name = ZINC43526565
REMARK  10 active torsions:
REMARK  status: ('A' for Active; 'I' for Inactive)
REMARK    1  A    between atoms: C_1  and  N_2
REMARK    2  A    between atoms: N_2  and  C_3
REMARK    3  A    between atoms: N_2  and  C_6
REMARK    4  A    between atoms: C_3  and  C_4
REMARK    5  A    between atoms: C_6  and  C_7
REMARK    6  A    between atoms: C_16  and  C_18
REMARK    7  A    between atoms: C_18  and  N_19
REMARK    8  A    between atoms: N_22  and  C_23
REMARK    9  A    between atoms: C_26  and  O_29
REMARK   10  A    between atoms: O_29  and  C_30
REMARK                            x       y       z     vdW  Elec       q    Type
REMARK                         _______ _______ _______ _____ _____    ______ ____
ROOT
ATOM      1  C   UNL     1      -4.448  -1.758  -4.460  0.00  0.00    +0.090 C 
ENDROOT
BRANCH   1   9
ATOM      2  C   UNL     1      -2.073  -0.086  -1.304  0.00  0.00    -0.041 C 
ATOM      3  C   UNL     1      -1.402  -0.783  -2.489  0.00  0.00    -0.076 C 
ATOM      4  N   UNL     1      -2.369  -1.640  -3.180  0.00  0.00    +0.383 N 
ATOM      5  C   UNL     1      -2.867  -2.684  -2.281  0.00  0.00    -0.078 C 
ATOM      6  C   UNL     1      -3.587  -2.050  -1.089  0.00  0.00    -0.015 C 
ATOM      7  C   UNL     1      -3.543  -0.520  -1.238  0.00  0.00    -0.015 C 
ATOM      8  C   UNL     1      -4.219  -0.145  -2.563  0.00  0.00    -0.010 C 
ATOM      9  C   UNL     1      -3.478  -0.843  -3.710  0.00  0.00    -0.051 C 
ATOM     10  H   UNL     1      -1.901  -2.090  -3.953  0.00  0.00    -0.081 HD
BRANCH   2  11
ATOM     11  C   UNL     1      -1.363  -0.481  -0.007  0.00  0.00    -0.077 C 
BRANCH  11  13
ATOM     12  C   UNL     1      -0.016   1.504  -0.021  0.00  0.00    -0.096 C 
ATOM     13  N   UNL     1       0.012   0.035  -0.025  0.00  0.00    +0.380 N 
ATOM     14  H   UNL     1       0.482  -0.290  -0.856  0.00  0.00    -0.082 HD
BRANCH  13  15
ATOM     15  C   UNL     1       0.730  -0.445   1.163  0.00  0.00    -0.052 C 
BRANCH  15  16
ATOM     16  C   UNL     1       2.174  -0.018   1.084  0.00  0.00    -0.053 C 
ATOM     17  C   UNL     1       2.709   0.665   2.064  0.00  0.00    +0.002 C 
ENDBRANCH  15  16
ENDBRANCH  13  15
ENDBRANCH  11  13
ENDBRANCH   2  11
ENDBRANCH   1   9
BRANCH   1  18
ATOM     18  N   UNL     1      -3.719  -2.503  -5.489  0.00  0.00    -0.301 N 
ATOM     19  C   UNL     1      -4.374  -3.377  -6.279  0.00  0.00    +0.304 C 
ATOM     20  O   UNL     1      -5.569  -3.546  -6.138  0.00  0.00    -0.253 OA
ATOM     21  N   UNL     1      -3.703  -4.063  -7.226  0.00  0.00    -0.269 N 
ATOM     22  H   UNL     1      -2.765  -2.369  -5.601  0.00  0.00    +0.150 HD
ATOM     23  H   UNL     1      -2.764  -3.880  -7.384  0.00  0.00    +0.156 HD
BRANCH  21  24
ATOM     24  C   UNL     1      -4.363  -5.041  -7.983  0.00  0.00    +0.035 A 
ATOM     25  C   UNL     1      -3.687  -6.188  -8.376  0.00  0.00    +0.027 A 
ATOM     26  C   UNL     1      -4.338  -7.152  -9.120  0.00  0.00    +0.048 A 
ATOM     27  C   UNL     1      -5.667  -6.973  -9.476  0.00  0.00    +0.130 A 
ATOM     28  C   UNL     1      -6.343  -5.827  -9.085  0.00  0.00    +0.048 A 
ATOM     29  C   UNL     1      -5.694  -4.865  -8.335  0.00  0.00    +0.027 A 
BRANCH  27  30
ATOM     30  O   UNL     1      -6.308  -7.922 -10.210  0.00  0.00    -0.406 OA
BRANCH  30  31
ATOM     31  C   UNL     1      -7.675  -7.673 -10.541  0.00  0.00    +0.575 C 
ATOM     32  F   UNL     1      -7.767  -6.494 -11.289  0.00  0.00    -0.133 F 
ATOM     33  F   UNL     1      -8.176  -8.742 -11.292  0.00  0.00    -0.133 F 
ATOM     34  F   UNL     1      -8.422  -7.539  -9.366  0.00  0.00    -0.133 F 
ENDBRANCH  30  31
ENDBRANCH  27  30
ENDBRANCH  21  24
ENDBRANCH   1  18
TORSDOF 9
