REMARK  Name = ZINC64623173
REMARK  7 active torsions:
REMARK  status: ('A' for Active; 'I' for Inactive)
REMARK    1  A    between atoms: C_1  and  C_2
REMARK    2  A    between atoms: C_2  and  O_3
REMARK    3  A    between atoms: O_3  and  C_4
REMARK    4  A    between atoms: C_9  and  N_10
REMARK    5  A    between atoms: C_19  and  O_35
REMARK    6  A    between atoms: C_26  and  C_28
REMARK    7  A    between atoms: O_35  and  C_36
REMARK                            x       y       z     vdW  Elec       q    Type
REMARK                         _______ _______ _______ _____ _____    ______ ____
ROOT
ATOM      1  N   UNL     1      -4.257  -1.750  -1.742  0.00  0.00    -0.266 N 
ATOM      2  C   UNL     1      -5.413  -2.220  -1.231  0.00  0.00    +0.307 C 
ATOM      3  O   UNL     1      -5.594  -3.419  -1.139  0.00  0.00    -0.252 OA
ATOM      4  N   UNL     1      -6.367  -1.361  -0.822  0.00  0.00    -0.276 N 
ATOM      5  C   UNL     1      -6.204   0.076  -1.068  0.00  0.00    +0.114 C 
ATOM      6  C   UNL     1      -6.258   0.835   0.270  0.00  0.00    +0.052 C 
ATOM      7  C   UNL     1      -7.429   0.272   1.039  0.00  0.00    -0.035 C 
ATOM      8  C   UNL     1      -8.460   0.866   1.625  0.00  0.00    +0.003 A 
ATOM      9  C   UNL     1      -8.788   2.284   1.837  0.00  0.00    +0.055 A 
ATOM     10  C   UNL     1      -9.962   2.552   2.472  0.00  0.00    +0.121 A 
ATOM     11  C   UNL     1     -10.852   1.566   2.923  0.00  0.00    +0.047 A 
ATOM     12  C   UNL     1     -10.645   0.231   2.788  0.00  0.00    +0.029 A 
ATOM     13  C   UNL     1      -9.403  -0.184   2.122  0.00  0.00    +0.043 A 
ATOM     14  N   UNL     1      -8.934  -1.370   1.877  0.00  0.00    -0.375 N 
ATOM     15  C   UNL     1      -7.617  -1.225   1.254  0.00  0.00    +0.131 C 
ATOM     16  C   UNL     1      -7.564  -1.874  -0.138  0.00  0.00    +0.134 C 
ATOM     17  H   UNL     1      -4.079  -0.797  -1.742  0.00  0.00    +0.156 HD
ATOM     18  H   UNL     1      -9.380  -2.209   2.072  0.00  0.00    +0.160 HD
ENDROOT
BRANCH  16  19
ATOM     19  C   UNL     1      -7.471  -3.372  -0.003  0.00  0.00    -0.025 A 
ATOM     20  C   UNL     1      -6.475  -3.935   0.773  0.00  0.00    +0.008 A 
ATOM     21  C   UNL     1      -6.389  -5.309   0.898  0.00  0.00    +0.038 A 
ATOM     22  C   UNL     1      -7.301  -6.121   0.247  0.00  0.00    +0.123 A 
ATOM     23  C   UNL     1      -8.299  -5.557  -0.529  0.00  0.00    +0.038 A 
ATOM     24  C   UNL     1      -8.386  -4.183  -0.649  0.00  0.00    +0.008 A 
ATOM     25  F   UNL     1      -7.218  -7.464   0.369  0.00  0.00    -0.205 F 
ENDBRANCH  16  19
BRANCH   1  31
ATOM     26  C   UNL     1      -2.432  -2.214  -3.264  0.00  0.00    +0.142 A 
ATOM     27  C   UNL     1      -1.497  -3.096  -3.781  0.00  0.00    +0.047 A 
ATOM     28  C   UNL     1      -1.444  -4.397  -3.318  0.00  0.00    +0.004 A 
ATOM     29  C   UNL     1      -2.322  -4.823  -2.338  0.00  0.00    +0.002 A 
ATOM     30  C   UNL     1      -3.257  -3.949  -1.817  0.00  0.00    +0.027 A 
ATOM     31  C   UNL     1      -3.313  -2.640  -2.273  0.00  0.00    +0.077 A 
BRANCH  26  32
ATOM     32  O   UNL     1      -2.486  -0.933  -3.719  0.00  0.00    -0.490 OA
BRANCH  32  34
ATOM     33  C   UNL     1      -1.763   0.900  -5.118  0.00  0.00    +0.048 C 
ATOM     34  C   UNL     1      -1.552  -0.567  -4.736  0.00  0.00    +0.226 C 
ENDBRANCH  32  34
ENDBRANCH  26  32
ENDBRANCH   1  31
BRANCH  10  35
ATOM     35  O   UNL     1     -10.292   3.853   2.682  0.00  0.00    -0.495 OA
ATOM     36  C   UNL     1     -11.529   4.109   3.351  0.00  0.00    +0.277 C 
ENDBRANCH  10  35
TORSDOF 5
