REMARK  Name = ZINC63490401
REMARK  7 active torsions:
REMARK  status: ('A' for Active; 'I' for Inactive)
REMARK    1  A    between atoms: C_1  and  C_2
REMARK    2  A    between atoms: C_4  and  C_13
REMARK    3  A    between atoms: C_13  and  C_14
REMARK    4  A    between atoms: C_14  and  N_15
REMARK    5  A    between atoms: N_15  and  C_16
REMARK    6  A    between atoms: C_16  and  N_18
REMARK    7  A    between atoms: N_18  and  C_19
REMARK                            x       y       z     vdW  Elec       q    Type
REMARK                         _______ _______ _______ _____ _____    ______ ____
ROOT
ATOM      1  C   UNL     1      -2.785   0.303  -0.615  0.00  0.00    +0.052 C 
ENDROOT
BRANCH   1   4
ATOM      2  C   UNL     1      -0.538   2.504   0.167  0.00  0.00    +0.035 C 
ATOM      3  C   UNL     1      -0.491   1.040   0.608  0.00  0.00    +0.103 C 
ATOM      4  C   UNL     1      -1.881   0.443   0.583  0.00  0.00    -0.037 C 
ATOM      5  C   UNL     1      -2.148   0.061   1.852  0.00  0.00    +0.001 A 
ATOM      6  C   UNL     1      -3.315  -0.575   2.474  0.00  0.00    +0.030 A 
ATOM      7  C   UNL     1      -3.288  -0.841   3.801  0.00  0.00    +0.042 A 
ATOM      8  C   UNL     1      -2.175  -0.525   4.594  0.00  0.00    +0.022 A 
ATOM      9  C   UNL     1      -1.066   0.060   4.094  0.00  0.00    +0.027 A 
ATOM     10  C   UNL     1      -0.986   0.385   2.711  0.00  0.00    +0.043 A 
ATOM     11  N   UNL     1      -0.036   0.944   1.999  0.00  0.00    -0.378 N 
ATOM     12 CL   UNL     1      -4.667  -1.592   4.541  0.00  0.00    -0.084 Cl
ATOM     13  H   UNL     1       0.823   1.245   2.336  0.00  0.00    +0.160 HD
ENDBRANCH   1   4
BRANCH   1  14
ATOM     14  C   UNL     1      -4.098  -0.356  -0.188  0.00  0.00    +0.107 C 
BRANCH  14  15
ATOM     15  N   UNL     1      -4.977  -0.492  -1.352  0.00  0.00    -0.326 N 
ATOM     16  H   UNL     1      -4.682  -0.181  -2.222  0.00  0.00    +0.148 HD
BRANCH  15  17
ATOM     17  C   UNL     1      -6.197  -1.049  -1.214  0.00  0.00    +0.135 C 
ATOM     18  S   UNL     1      -6.719  -1.597   0.322  0.00  0.00    -0.019 S 
BRANCH  17  19
ATOM     19  N   UNL     1      -7.005  -1.174  -2.285  0.00  0.00    -0.297 N 
ATOM     20  H   UNL     1      -6.736  -0.809  -3.142  0.00  0.00    +0.154 HD
BRANCH  19  21
ATOM     21  C   UNL     1      -8.234  -1.832  -2.160  0.00  0.00    +0.033 A 
ATOM     22  C   UNL     1      -9.067  -1.553  -1.085  0.00  0.00    +0.023 A 
ATOM     23  C   UNL     1     -10.279  -2.203  -0.965  0.00  0.00    +0.002 A 
ATOM     24  C   UNL     1     -10.664  -3.132  -1.915  0.00  0.00    +0.000 A 
ATOM     25  C   UNL     1      -9.837  -3.413  -2.987  0.00  0.00    +0.002 A 
ATOM     26  C   UNL     1      -8.626  -2.761  -3.115  0.00  0.00    +0.023 A 
ENDBRANCH  19  21
ENDBRANCH  17  19
ENDBRANCH  15  17
ENDBRANCH  14  15
ENDBRANCH   1  14
TORSDOF 6
