REMARK  Name = ZINC39394117
REMARK  10 active torsions:
REMARK  status: ('A' for Active; 'I' for Inactive)
REMARK    1  A    between atoms: C_1  and  N_2
REMARK    2  A    between atoms: N_2  and  C_3
REMARK    3  A    between atoms: N_2  and  C_4
REMARK    4  A    between atoms: C_4  and  C_5
REMARK    5  A    between atoms: C_7  and  C_26
REMARK    6  A    between atoms: C_10  and  O_11
REMARK    7  A    between atoms: O_11  and  C_12
REMARK    8  A    between atoms: C_12  and  C_13
REMARK    9  A    between atoms: N_15  and  C_16
REMARK   10  A    between atoms: C_16  and  C_17
REMARK                            x       y       z     vdW  Elec       q    Type
REMARK                         _______ _______ _______ _____ _____    ______ ____
ROOT
ATOM      1  C   UNL     1      -1.359  -2.014  -0.120  0.00  0.00    -0.022 A 
ATOM      2  C   UNL     1      -1.599  -2.603  -1.346  0.00  0.00    +0.011 A 
ATOM      3  C   UNL     1      -1.584  -3.980  -1.468  0.00  0.00    -0.017 A 
ATOM      4  C   UNL     1      -1.327  -4.771  -0.363  0.00  0.00    +0.010 A 
ATOM      5  C   UNL     1      -1.086  -4.187   0.865  0.00  0.00    +0.046 A 
ATOM      6  C   UNL     1      -1.095  -2.805   0.989  0.00  0.00    +0.123 A 
ENDROOT
BRANCH   3   7
ATOM      7  C   UNL     1      -1.848  -4.620  -2.806  0.00  0.00    +0.164 C 
ATOM      8  N   UNL     1      -1.201  -5.935  -2.900  0.00  0.00    -0.327 N 
ATOM      9  C   UNL     1      -2.023  -7.047  -3.077  0.00  0.00    +0.042 A 
ATOM     10  C   UNL     1      -1.586  -8.379  -3.188  0.00  0.00    +0.024 A 
ATOM     11  C   UNL     1      -2.480  -9.410  -3.361  0.00  0.00    +0.002 A 
ATOM     12  C   UNL     1      -3.840  -9.171  -3.433  0.00  0.00    +0.001 A 
ATOM     13  C   UNL     1      -4.300  -7.869  -3.327  0.00  0.00    +0.016 A 
ATOM     14  C   UNL     1      -3.404  -6.838  -3.153  0.00  0.00    +0.031 A 
ATOM     15  S   UNL     1      -3.618  -5.080  -2.982  0.00  0.00    -0.096 S 
ATOM     16  H   UNL     1      -0.237  -6.027  -2.842  0.00  0.00    +0.147 HD
ENDBRANCH   3   7
BRANCH   1  17
ATOM     17  C   UNL     1      -1.376  -0.512   0.012  0.00  0.00    -0.040 C 
BRANCH  17  19
ATOM     18  C   UNL     1      -0.018   1.465   0.010  0.00  0.00    -0.096 C 
ATOM     19  N   UNL     1       0.002  -0.004   0.002  0.00  0.00    +0.379 N 
ATOM     20  C   UNL     1       0.713  -0.491   1.192  0.00  0.00    -0.096 C 
ATOM     21  H   UNL     1       0.474  -0.330  -0.828  0.00  0.00    -0.082 HD
ENDBRANCH  17  19
ENDBRANCH   1  17
BRANCH   6  22
ATOM     22  O   UNL     1      -0.852  -2.228   2.195  0.00  0.00    -0.483 OA
BRANCH  22  23
ATOM     23  C   UNL     1      -0.589  -3.104   3.292  0.00  0.00    +0.324 C 
BRANCH  23  24
ATOM     24  C   UNL     1      -0.344  -2.291   4.537  0.00  0.00    +0.251 C 
ATOM     25  O   UNL     1      -0.391  -1.080   4.490  0.00  0.00    -0.272 OA
ATOM     26  N   UNL     1      -0.074  -2.910   5.704  0.00  0.00    -0.305 N 
ATOM     27  H   UNL     1      -0.036  -3.878   5.742  0.00  0.00    +0.149 HD
BRANCH  26  28
ATOM     28  C   UNL     1       0.164  -2.119   6.914  0.00  0.00    +0.178 C 
BRANCH  28  29
ATOM     29  C   UNL     1       0.442  -3.044   8.071  0.00  0.00    +0.125 A 
ATOM     30  N   UNL     1      -0.469  -3.606   8.811  0.00  0.00    -0.231 NA
ATOM     31  C   UNL     1       0.124  -4.374   9.761  0.00  0.00    +0.089 A 
ATOM     32  C   UNL     1      -0.364  -5.179  10.793  0.00  0.00    +0.030 A 
ATOM     33  C   UNL     1       0.508  -5.847  11.606  0.00  0.00    +0.002 A 
ATOM     34  C   UNL     1       1.878  -5.735  11.418  0.00  0.00    +0.002 A 
ATOM     35  C   UNL     1       2.382  -4.946  10.407  0.00  0.00    +0.028 A 
ATOM     36  C   UNL     1       1.512  -4.260   9.571  0.00  0.00    +0.066 A 
ATOM     37  N   UNL     1       1.681  -3.417   8.491  0.00  0.00    -0.341 N 
ATOM     38  H   UNL     1       2.526  -3.139   8.104  0.00  0.00    +0.167 HD
ENDBRANCH  28  29
ENDBRANCH  26  28
ENDBRANCH  23  24
ENDBRANCH  22  23
ENDBRANCH   6  22
TORSDOF 8
