REMARK  Name = ZINC53304229
REMARK  12 active torsions:
REMARK  status: ('A' for Active; 'I' for Inactive)
REMARK    1  A    between atoms: C_1  and  C_2
REMARK    2  A    between atoms: C_5  and  C_33
REMARK    3  A    between atoms: N_8  and  C_10
REMARK    4  A    between atoms: C_10  and  C_11
REMARK    5  A    between atoms: C_10  and  C_12
REMARK    6  A    between atoms: C_10  and  C_13
REMARK    7  A    between atoms: C_13  and  N_14
REMARK    8  A    between atoms: C_15  and  C_17
REMARK    9  A    between atoms: C_17  and  C_18
REMARK   10  A    between atoms: C_18  and  C_19
REMARK   11  A    between atoms: C_19  and  C_20
REMARK   12  A    between atoms: C_20  and  C_21
REMARK                            x       y       z     vdW  Elec       q    Type
REMARK                         _______ _______ _______ _____ _____    ______ ____
ROOT
ATOM      1  N   UNL     1       2.801  -0.371   2.305  0.00  0.00    -0.317 N 
ATOM      2  C   UNL     1       3.883   0.403   2.090  0.00  0.00    +0.213 C 
ATOM      3  O   UNL     1       4.953  -0.107   1.837  0.00  0.00    -0.276 OA
ATOM      4  H   UNL     1       1.945   0.037   2.508  0.00  0.00    +0.149 HD
ENDROOT
BRANCH   1   5
ATOM      5  C   UNL     1       2.918  -1.830   2.232  0.00  0.00    +0.092 C 
BRANCH   5   6
ATOM      6  C   UNL     1       1.589  -2.469   2.639  0.00  0.00    -0.055 C 
ATOM      7  C   UNL     1       1.737  -3.992   2.646  0.00  0.00    -0.008 C 
ATOM      8  C   UNL     1       0.503  -2.067   1.640  0.00  0.00    -0.008 C 
BRANCH   6  14
ATOM      9  C   UNL     1       3.028  -2.192   7.310  0.00  0.00    +0.005 C 
ATOM     10  C   UNL     1       1.925  -1.815   6.319  0.00  0.00    -0.031 C 
ATOM     11  C   UNL     1       0.595  -2.417   6.782  0.00  0.00    +0.003 C 
ATOM     12  C   UNL     1      -0.486  -2.101   5.745  0.00  0.00    -0.031 C 
ATOM     13  C   UNL     1      -0.049  -2.640   4.381  0.00  0.00    -0.075 C 
ATOM     14  N   UNL     1       1.214  -2.007   3.982  0.00  0.00    +0.384 N 
ATOM     15  C   UNL     1       2.273  -2.364   4.934  0.00  0.00    -0.075 C 
ATOM     16  C   UNL     1      -0.682  -0.586   5.657  0.00  0.00    +0.005 C 
ATOM     17  H   UNL     1       1.098  -1.005   3.971  0.00  0.00    -0.081 HD
ENDBRANCH   6  14
ENDBRANCH   5   6
ENDBRANCH   1   5
BRANCH   2  18
ATOM     18  C   UNL     1       3.762   1.904   2.165  0.00  0.00    +0.096 C 
BRANCH  18  19
ATOM     19  C   UNL     1       5.125   2.540   1.883  0.00  0.00    +0.009 C 
BRANCH  19  20
ATOM     20  C   UNL     1       5.003   4.063   1.959  0.00  0.00    +0.002 C 
BRANCH  20  21
ATOM     21  C   UNL     1       6.365   4.699   1.678  0.00  0.00    +0.016 C 
BRANCH  21  22
ATOM     22  C   UNL     1       6.243   6.222   1.754  0.00  0.00    +0.069 C 
ATOM     23  C   UNL     1       7.609   6.900   1.517  0.00  0.00    +0.108 C 
ATOM     24  C   UNL     1       7.528   8.165   0.657  0.00  0.00    +0.105 C 
ATOM     25  C   UNL     1       6.097   8.505   0.189  0.00  0.00    +0.093 C 
ATOM     26  S   UNL     1       5.259   6.879   0.337  0.00  0.00    -0.154 S 
ATOM     27  N   UNL     1       8.349   7.848  -0.523  0.00  0.00    -0.294 N 
ATOM     28  C   UNL     1       8.838   6.607  -0.393  0.00  0.00    +0.300 C 
ATOM     29  O   UNL     1       9.554   6.087  -1.227  0.00  0.00    -0.253 OA
ATOM     30  N   UNL     1       8.465   5.998   0.730  0.00  0.00    -0.294 N 
ATOM     31  H   UNL     1       8.509   8.441  -1.273  0.00  0.00    +0.151 HD
ATOM     32  H   UNL     1       8.721   5.098   0.987  0.00  0.00    +0.151 HD
ENDBRANCH  21  22
ENDBRANCH  20  21
ENDBRANCH  19  20
ENDBRANCH  18  19
ENDBRANCH   2  18
TORSDOF 8
