REMARK  Name = ZINC23053636
REMARK  15 active torsions:
REMARK  status: ('A' for Active; 'I' for Inactive)
REMARK    1  A    between atoms: C_1  and  C_2
REMARK    2  A    between atoms: C_6  and  N_9
REMARK    3  A    between atoms: C_7  and  C_8
REMARK    4  A    between atoms: C_10  and  C_12
REMARK    5  A    between atoms: C_12  and  N_13
REMARK    6  A    between atoms: N_13  and  C_14
REMARK    7  A    between atoms: N_13  and  C_18
REMARK    8  A    between atoms: C_14  and  C_15
REMARK    9  A    between atoms: C_15  and  O_16
REMARK   10  A    between atoms: O_16  and  C_17
REMARK   11  A    between atoms: C_18  and  C_19
REMARK   12  A    between atoms: N_21  and  C_22
REMARK   13  A    between atoms: N_21  and  C_27
REMARK   14  A    between atoms: C_22  and  C_23
REMARK   15  A    between atoms: C_23  and  C_24
REMARK                            x       y       z     vdW  Elec       q    Type
REMARK                         _______ _______ _______ _____ _____    ______ ____
ROOT
ATOM      1  N   UNL     1       2.480  -2.435   0.039  0.00  0.00    +0.393 N 
ATOM      2  H   UNL     1       3.048  -1.895   0.811  0.00  0.00    -0.080 HD
ENDROOT
BRANCH   1   3
ATOM      3  C   UNL     1       2.713  -3.873   0.231  0.00  0.00    +0.020 C 
BRANCH   3   5
ATOM      4  N   UNL     1       4.648  -5.395   0.467  0.00  0.00    -0.287 N 
ATOM      5  C   UNL     1       4.195  -4.138   0.294  0.00  0.00    +0.201 C 
ATOM      6  O   UNL     1       4.980  -3.219   0.189  0.00  0.00    -0.278 OA
ATOM      7  H   UNL     1       3.940  -6.237   0.488  0.00  0.00    +0.155 HD
BRANCH   4  13
ATOM      8  C   UNL     1       8.294  -8.187   2.222  0.00  0.00    +0.044 C 
ATOM      9  C   UNL     1       7.814  -6.976   1.465  0.00  0.00    -0.046 A 
ATOM     10  C   UNL     1       8.730  -6.095   0.918  0.00  0.00    +0.004 A 
ATOM     11  C   UNL     1       8.294  -4.983   0.223  0.00  0.00    +0.002 A 
ATOM     12  C   UNL     1       6.941  -4.748   0.071  0.00  0.00    +0.023 A 
ATOM     13  C   UNL     1       6.019  -5.630   0.619  0.00  0.00    +0.036 A 
ATOM     14  C   UNL     1       6.460  -6.744   1.322  0.00  0.00    -0.026 A 
ATOM     15  C   UNL     1       5.463  -7.700   1.923  0.00  0.00    +0.046 C 
ENDBRANCH   4  13
ENDBRANCH   3   5
ENDBRANCH   1   3
BRANCH   1  16
ATOM     16  C   UNL     1       2.970  -1.993  -1.274  0.00  0.00    -0.049 C 
BRANCH  16  17
ATOM     17  C   UNL     1       3.176  -0.477  -1.257  0.00  0.00    +0.141 C 
BRANCH  17  18
ATOM     18  O   UNL     1       4.210  -0.147  -0.328  0.00  0.00    -0.385 OA
ATOM     19  C   UNL     1       4.407   1.257  -0.152  0.00  0.00    +0.193 C 
ENDBRANCH  17  18
ENDBRANCH  16  17
ENDBRANCH   1  16
BRANCH   1  20
ATOM     20  C   UNL     1       1.059  -2.104   0.210  0.00  0.00    +0.020 C 
BRANCH  20  21
ATOM     21  C   UNL     1       0.670  -2.286   1.654  0.00  0.00    +0.203 C 
ATOM     22  O   UNL     1       1.518  -2.550   2.481  0.00  0.00    -0.277 OA
ATOM     23  N   UNL     1      -0.618  -2.156   2.027  0.00  0.00    -0.272 N 
BRANCH  23  24
ATOM     24  C   UNL     1      -0.967  -2.241   3.380  0.00  0.00    +0.036 A 
ATOM     25  C   UNL     1      -2.266  -1.960   3.782  0.00  0.00    +0.023 A 
ATOM     26  C   UNL     1      -2.609  -2.050   5.117  0.00  0.00    +0.002 A 
ATOM     27  C   UNL     1      -1.657  -2.410   6.054  0.00  0.00    +0.000 A 
ATOM     28  C   UNL     1      -0.362  -2.686   5.657  0.00  0.00    +0.002 A 
ATOM     29  C   UNL     1      -0.014  -2.603   4.323  0.00  0.00    +0.023 A 
ENDBRANCH  23  24
BRANCH  23  30
ATOM     30  C   UNL     1      -1.653  -1.925   1.017  0.00  0.00    +0.123 C 
BRANCH  30  31
ATOM     31  C   UNL     1      -1.830  -0.420   0.802  0.00  0.00    +0.115 C 
BRANCH  31  32
ATOM     32  C   UNL     1      -2.895  -0.182  -0.237  0.00  0.00    +0.212 C 
ATOM     33  O   UNL     1      -3.457  -1.123  -0.755  0.00  0.00    -0.276 OA
ATOM     34  N   UNL     1      -3.222   1.077  -0.590  0.00  0.00    -0.329 N 
ATOM     35  H   UNL     1      -3.999   1.250  -1.349  0.00  0.00    +0.145 HD
ATOM     36  H   UNL     1      -2.712   1.931  -0.120  0.00  0.00    +0.145 HD
ENDBRANCH  31  32
ENDBRANCH  30  31
ENDBRANCH  23  30
ENDBRANCH  20  21
ENDBRANCH   1  20
TORSDOF 12
