REMARK  Name = ZINC41584722
REMARK  9 active torsions:
REMARK  status: ('A' for Active; 'I' for Inactive)
REMARK    1  A    between atoms: C_1  and  C_2
REMARK    2  A    between atoms: C_4  and  O_40
REMARK    3  A    between atoms: C_5  and  C_23
REMARK    4  A    between atoms: C_11  and  C_12
REMARK    5  A    between atoms: C_15  and  O_20
REMARK    6  A    between atoms: C_16  and  O_18
REMARK    7  A    between atoms: O_18  and  C_19
REMARK    8  A    between atoms: O_20  and  C_21
REMARK    9  A    between atoms: C_23  and  N_24
REMARK                            x       y       z     vdW  Elec       q    Type
REMARK                         _______ _______ _______ _____ _____    ______ ____
ROOT
ATOM      1  C   UNL     1       0.369   1.463  -0.008  0.00  0.00    +0.045 C 
ATOM      2  C   UNL     1       0.059  -0.012  -0.001  0.00  0.00    -0.033 A 
ATOM      3  C   UNL     1      -0.163  -0.670  -1.178  0.00  0.00    +0.050 A 
ATOM      4  C   UNL     1      -0.450  -2.032  -1.175  0.00  0.00    +0.122 A 
ATOM      5  C   UNL     1      -0.513  -2.736   0.017  0.00  0.00    +0.020 A 
ATOM      6  C   UNL     1      -0.290  -2.082   1.223  0.00  0.00    +0.145 A 
ATOM      7  C   UNL     1       0.004  -0.709   1.206  0.00  0.00    +0.071 A 
ATOM      8  C   UNL     1       0.196  -0.308   2.612  0.00  0.00    +0.232 C 
ATOM      9  O   UNL     1       0.462   0.801   3.041  0.00  0.00    -0.283 OA
ATOM     10  C   UNL     1      -0.006  -1.546   3.379  0.00  0.00    +0.176 C 
ATOM     11  C   UNL     1       0.069  -1.674   4.728  0.00  0.00    +0.058 C 
ATOM     12  O   UNL     1      -0.295  -2.531   2.497  0.00  0.00    -0.451 OA
ENDROOT
BRANCH  11  13
ATOM     13  C   UNL     1      -0.018  -3.003   5.345  0.00  0.00    -0.018 A 
ATOM     14  C   UNL     1      -0.004  -4.152   4.544  0.00  0.00    +0.012 A 
ATOM     15  C   UNL     1      -0.085  -5.397   5.126  0.00  0.00    +0.050 A 
ATOM     16  C   UNL     1      -0.182  -5.518   6.506  0.00  0.00    +0.162 A 
ATOM     17  C   UNL     1      -0.197  -4.380   7.311  0.00  0.00    +0.162 A 
ATOM     18  C   UNL     1      -0.109  -3.127   6.737  0.00  0.00    +0.057 A 
BRANCH  17  19
ATOM     19  O   UNL     1      -0.292  -4.504   8.662  0.00  0.00    -0.491 OA
ATOM     20  C   UNL     1      -0.302  -3.296   9.425  0.00  0.00    +0.277 C 
ENDBRANCH  17  19
BRANCH  16  21
ATOM     21  O   UNL     1      -0.262  -6.750   7.074  0.00  0.00    -0.491 OA
ATOM     22  C   UNL     1      -0.241  -7.873   6.191  0.00  0.00    +0.277 C 
ENDBRANCH  16  21
ENDBRANCH  11  13
BRANCH   4  23
ATOM     23  O   UNL     1      -0.669  -2.676  -2.349  0.00  0.00    -0.506 OA
ATOM     24  H   UNL     1       0.130  -3.045  -2.751  0.00  0.00    +0.292 HD
ENDBRANCH   4  23
BRANCH   5  25
ATOM     25  C   UNL     1      -0.825  -4.210   0.006  0.00  0.00    -0.036 C 
BRANCH  25  26
ATOM     26  N   UNL     1       0.425  -4.975  -0.094  0.00  0.00    +0.383 N 
ATOM     27  C   UNL     1       0.132  -6.406   0.024  0.00  0.00    -0.073 C 
ATOM     28  C   UNL     1       1.402  -7.237  -0.077  0.00  0.00    -0.007 C 
ATOM     29  C   UNL     1       2.143  -6.938  -1.383  0.00  0.00    +0.011 C 
ATOM     30  C   UNL     1       2.417  -5.429  -1.420  0.00  0.00    +0.020 C 
ATOM     31  C   UNL     1       1.062  -4.701  -1.390  0.00  0.00    -0.069 C 
ATOM     32  C   UNL     1       3.185  -5.036  -0.178  0.00  0.00    +0.023 A 
ATOM     33  C   UNL     1       4.016  -3.965  -0.266  0.00  0.00    +0.022 A 
ATOM     34  C   UNL     1       4.708  -3.507   0.861  0.00  0.00    +0.007 A 
ATOM     35  C   UNL     1       4.515  -4.139   2.054  0.00  0.00    +0.070 A 
ATOM     36  C   UNL     1       3.647  -5.239   2.111  0.00  0.00    +0.251 A 
ATOM     37  O   UNL     1       3.418  -5.772   3.185  0.00  0.00    -0.268 OA
ATOM     38  N   UNL     1       3.059  -5.715   0.987  0.00  0.00    -0.312 N 
ATOM     39  C   UNL     1       2.338  -6.981   1.092  0.00  0.00    +0.126 C 
ATOM     40  H   UNL     1       1.047  -4.698   0.651  0.00  0.00    -0.081 HD
ENDBRANCH  25  26
ENDBRANCH   5  25
TORSDOF 6
