REMARK  Name = ZINC43415928
REMARK  13 active torsions:
REMARK  status: ('A' for Active; 'I' for Inactive)
REMARK    1  A    between atoms: C_1  and  C_2
REMARK    2  A    between atoms: C_2  and  C_3
REMARK    3  A    between atoms: C_3  and  C_5
REMARK    4  A    between atoms: C_3  and  N_23
REMARK    5  A    between atoms: C_5  and  C_7
REMARK    6  A    between atoms: C_5  and  N_14
REMARK    7  A    between atoms: N_14  and  C_15
REMARK    8  A    between atoms: N_14  and  C_19
REMARK    9  A    between atoms: C_15  and  C_16
REMARK   10  A    between atoms: C_16  and  C_17
REMARK   11  A    between atoms: C_19  and  C_20
REMARK   12  A    between atoms: C_20  and  C_21
REMARK   13  A    between atoms: C_20  and  C_22
REMARK                            x       y       z     vdW  Elec       q    Type
REMARK                         _______ _______ _______ _____ _____    ______ ____
ROOT
ATOM      1  C   UNL     1       0.473  -2.189   1.417  0.00  0.00    +0.072 C 
ENDROOT
BRANCH   1   2
ATOM      2  C   UNL     1       0.824  -2.661   2.804  0.00  0.00    -0.031 A 
ATOM      3  C   UNL     1      -0.059  -2.454   3.849  0.00  0.00    +0.005 A 
ATOM      4  C   UNL     1       0.263  -2.886   5.121  0.00  0.00    +0.001 A 
ATOM      5  C   UNL     1       1.466  -3.527   5.351  0.00  0.00    +0.015 A 
ATOM      6  C   UNL     1       2.348  -3.736   4.306  0.00  0.00    +0.018 A 
ATOM      7  C   UNL     1       2.024  -3.307   3.031  0.00  0.00    +0.020 A 
ATOM      8 BR   UNL     1       3.994  -4.612   4.620  0.00  0.00    -0.050 Br
ENDBRANCH   1   2
BRANCH   1   9
ATOM      9  C   UNL     1       0.547  -0.662   1.364  0.00  0.00    -0.053 C 
BRANCH   9  10
ATOM     10  N   UNL     1       1.873  -0.219   1.817  0.00  0.00    +0.381 N 
ATOM     11  H   UNL     1       1.921   0.788   1.782  0.00  0.00    -0.090 HD
ATOM     12  H   UNL     1       2.026  -0.531   2.764  0.00  0.00    -0.090 HD
ATOM     13  H   UNL     1       2.581  -0.611   1.215  0.00  0.00    -0.090 HD
ENDBRANCH   9  10
BRANCH   9  15
ATOM     14  C   UNL     1       0.377   1.339  -0.123  0.00  0.00    +0.002 C 
ATOM     15  C   UNL     1       0.314  -0.189  -0.072  0.00  0.00    -0.018 C 
ENDBRANCH   9  15
ENDBRANCH   1   9
BRANCH   1  16
ATOM     16  N   UNL     1      -0.889  -2.625   1.080  0.00  0.00    -0.296 NA
BRANCH  16  17
ATOM     17  C   UNL     1      -1.203  -3.910   1.720  0.00  0.00    +0.099 C 
BRANCH  17  18
ATOM     18  C   UNL     1      -0.290  -4.999   1.152  0.00  0.00    +0.134 C 
BRANCH  18  19
ATOM     19  C   UNL     1      -0.686  -6.306   1.701  0.00  0.00    +0.064 C 
ATOM     20  N   UNL     1      -0.991  -7.315   2.124  0.00  0.00    -0.197 NA
ENDBRANCH  18  19
ENDBRANCH  17  18
ENDBRANCH  16  17
BRANCH  16  21
ATOM     21  C   UNL     1      -1.875  -1.600   1.446  0.00  0.00    +0.088 C 
BRANCH  21  22
ATOM     22  C   UNL     1      -3.256  -2.017   0.936  0.00  0.00    -0.003 C 
ATOM     23  C   UNL     1      -4.297  -0.988   1.383  0.00  0.00    +0.008 C 
ATOM     24  C   UNL     1      -3.235  -2.090  -0.592  0.00  0.00    +0.008 C 
ENDBRANCH  21  22
ENDBRANCH  16  21
ENDBRANCH   1  16
TORSDOF 10
