REMARK  Name = ZINC01276363
REMARK  11 active torsions:
REMARK  status: ('A' for Active; 'I' for Inactive)
REMARK    1  A    between atoms: C_1  and  C_2
REMARK    2  A    between atoms: C_5  and  C_8
REMARK    3  A    between atoms: C_11  and  S_21
REMARK    4  A    between atoms: N_12  and  C_13
REMARK    5  A    between atoms: C_16  and  O_19
REMARK    6  A    between atoms: O_19  and  C_20
REMARK    7  A    between atoms: S_21  and  C_22
REMARK    8  A    between atoms: C_22  and  C_23
REMARK    9  A    between atoms: C_23  and  C_25
REMARK   10  A    between atoms: C_28  and  O_32
REMARK   11  A    between atoms: C_29  and  O_31
REMARK                            x       y       z     vdW  Elec       q    Type
REMARK                         _______ _______ _______ _____ _____    ______ ____
ROOT
ATOM      1  C   UNL     1       1.212   1.747  -0.000  0.00  0.00    +0.169 A 
ATOM      2  N   UNL     1      -0.015   1.281   0.009  0.00  0.00    -0.128 NA
ATOM      3  N   UNL     1       0.002  -0.004   0.002  0.00  0.00    -0.122 NA
ATOM      4  C   UNL     1       1.242  -0.440  -0.012  0.00  0.00    +0.197 A 
ATOM      5  N   UNL     1       2.057   0.659  -0.014  0.00  0.00    -0.270 N 
ENDROOT
BRANCH   1  10
ATOM      6  C   UNL     1       2.768   7.287   0.016  0.00  0.00    +0.044 C 
ATOM      7  C   UNL     1       2.361   5.836   0.012  0.00  0.00    -0.050 A 
ATOM      8  C   UNL     1       1.062   5.484   0.333  0.00  0.00    +0.004 A 
ATOM      9  C   UNL     1       0.682   4.158   0.331  0.00  0.00    +0.012 A 
ATOM     10  C   UNL     1       1.612   3.170   0.004  0.00  0.00    +0.020 A 
ATOM     11  C   UNL     1       2.922   3.531  -0.314  0.00  0.00    +0.012 A 
ATOM     12  C   UNL     1       3.288   4.861  -0.313  0.00  0.00    +0.004 A 
ENDBRANCH   1  10
BRANCH   5  13
ATOM     13  C   UNL     1       3.460   0.674  -0.027  0.00  0.00    +0.051 A 
ATOM     14  C   UNL     1       4.159   1.190   1.056  0.00  0.00    +0.030 A 
ATOM     15  C   UNL     1       5.540   1.200   1.045  0.00  0.00    +0.047 A 
ATOM     16  C   UNL     1       6.228   0.705  -0.053  0.00  0.00    +0.120 A 
ATOM     17  C   UNL     1       5.530   0.195  -1.139  0.00  0.00    +0.047 A 
ATOM     18  C   UNL     1       4.150   0.180  -1.126  0.00  0.00    +0.030 A 
BRANCH  16  19
ATOM     19  O   UNL     1       7.588   0.720  -0.066  0.00  0.00    -0.495 OA
ATOM     20  C   UNL     1       8.242   1.259   1.084  0.00  0.00    +0.277 C 
ENDBRANCH  16  19
ENDBRANCH   5  13
BRANCH   4  21
ATOM     21  S   UNL     1       1.759  -2.124  -0.027  0.00  0.00    -0.078 S 
BRANCH  21  22
ATOM     22  C   UNL     1       0.147  -2.947  -0.016  0.00  0.00    +0.157 C 
BRANCH  22  23
ATOM     23  C   UNL     1       0.345  -4.441  -0.027  0.00  0.00    +0.173 C 
ATOM     24  O   UNL     1       1.466  -4.904  -0.040  0.00  0.00    -0.291 OA
BRANCH  23  25
ATOM     25  C   UNL     1      -0.819  -5.337  -0.021  0.00  0.00    +0.022 A 
ATOM     26  C   UNL     1      -2.114  -4.805   0.001  0.00  0.00    +0.015 A 
ATOM     27  C   UNL     1      -3.203  -5.646  -0.000  0.00  0.00    +0.050 A 
ATOM     28  C   UNL     1      -3.022  -7.024  -0.009  0.00  0.00    +0.158 A 
ATOM     29  C   UNL     1      -1.735  -7.561  -0.025  0.00  0.00    +0.159 A 
ATOM     30  C   UNL     1      -0.637  -6.725  -0.030  0.00  0.00    +0.060 A 
BRANCH  29  31
ATOM     31  O   UNL     1      -1.562  -8.910  -0.034  0.00  0.00    -0.503 OA
ATOM     32  H   UNL     1      -1.503  -9.306   0.846  0.00  0.00    +0.292 HD
ENDBRANCH  29  31
BRANCH  28  33
ATOM     33  O   UNL     1      -4.100  -7.848  -0.004  0.00  0.00    -0.503 OA
ATOM     34  H   UNL     1      -4.404  -8.093   0.881  0.00  0.00    +0.292 HD
ENDBRANCH  28  33
ENDBRANCH  23  25
ENDBRANCH  22  23
ENDBRANCH  21  22
ENDBRANCH   4  21
TORSDOF 9
