REMARK  Name = ZINC44164124
REMARK  8 active torsions:
REMARK  status: ('A' for Active; 'I' for Inactive)
REMARK    1  A    between atoms: C_1  and  C_2
REMARK    2  A    between atoms: C_3  and  C_13
REMARK    3  A    between atoms: C_5  and  C_7
REMARK    4  A    between atoms: C_18  and  C_21
REMARK    5  A    between atoms: N_23  and  C_24
REMARK    6  A    between atoms: C_24  and  C_25
REMARK    7  A    between atoms: C_25  and  C_26
REMARK    8  A    between atoms: C_29  and  O_32
REMARK                            x       y       z     vdW  Elec       q    Type
REMARK                         _______ _______ _______ _____ _____    ______ ____
ROOT
ATOM      1  C   UNL     1       0.024  -0.159  -2.570  0.00  0.00    -0.021 C 
ATOM      2  C   UNL     1      -1.383  -0.349  -3.147  0.00  0.00    +0.058 C 
ATOM      3  S   UNL     1      -1.415   0.364  -4.822  0.00  0.00    -0.163 S 
ATOM      4  C   UNL     1       0.054  -0.379  -5.598  0.00  0.00    +0.062 C 
ATOM      5  C   UNL     1       1.247  -0.184  -4.654  0.00  0.00    +0.027 C 
ATOM      6  N   UNL     1       0.998  -0.881  -3.390  0.00  0.00    +0.393 N 
ATOM      7  H   UNL     1       1.866  -0.960  -2.881  0.00  0.00    -0.084 HD
ATOM      8  H   UNL     1       0.645  -1.806  -3.585  0.00  0.00    -0.084 HD
ENDROOT
BRANCH   1  11
ATOM      9  C   UNL     1       0.053   1.489   0.034  0.00  0.00    +0.066 C 
ATOM     10  C   UNL     1       0.078  -0.018   0.022  0.00  0.00    +0.048 A 
ATOM     11  C   UNL     1       0.064  -0.691  -1.161  0.00  0.00    -0.000 A 
ATOM     12  S   UNL     1       0.105  -2.381  -0.579  0.00  0.00    -0.072 S 
ATOM     13  C   UNL     1       0.136  -2.008   1.170  0.00  0.00    +0.128 A 
ATOM     14  N   UNL     1       0.119  -0.683   1.151  0.00  0.00    -0.242 NA
BRANCH  13  15
ATOM     15  C   UNL     1       0.175  -2.930   2.325  0.00  0.00    +0.114 A 
ATOM     16  C   UNL     1       0.189  -2.422   3.626  0.00  0.00    +0.141 A 
ATOM     17  N   UNL     1       0.224  -3.250   4.653  0.00  0.00    -0.260 NA
ATOM     18  C   UNL     1       0.246  -4.557   4.452  0.00  0.00    +0.130 A 
ATOM     19  C   UNL     1       0.233  -5.064   3.164  0.00  0.00    +0.131 A 
ATOM     20  N   UNL     1       0.192  -4.246   2.129  0.00  0.00    -0.250 NA
ENDBRANCH  13  15
ENDBRANCH   1  11
BRANCH   5  21
ATOM     21  C   UNL     1       1.438   1.286  -4.386  0.00  0.00    +0.200 C 
ATOM     22  O   UNL     1       1.800   1.661  -3.291  0.00  0.00    -0.278 OA
ATOM     23  N   UNL     1       1.207   2.185  -5.363  0.00  0.00    -0.316 N 
ATOM     24  H   UNL     1       0.917   1.886  -6.239  0.00  0.00    +0.149 HD
BRANCH  23  25
ATOM     25  C   UNL     1       1.393   3.615  -5.102  0.00  0.00    +0.109 C 
BRANCH  25  26
ATOM     26  C   UNL     1       1.066   4.411  -6.367  0.00  0.00    +0.054 C 
BRANCH  26  27
ATOM     27  C   UNL     1       1.257   5.882  -6.099  0.00  0.00    -0.046 A 
ATOM     28  C   UNL     1       0.203   6.639  -5.622  0.00  0.00    +0.007 A 
ATOM     29  C   UNL     1       0.375   7.987  -5.375  0.00  0.00    +0.045 A 
ATOM     30  C   UNL     1       1.607   8.581  -5.606  0.00  0.00    +0.117 A 
ATOM     31  C   UNL     1       2.663   7.819  -6.084  0.00  0.00    +0.045 A 
ATOM     32  C   UNL     1       2.487   6.470  -6.324  0.00  0.00    +0.007 A 
BRANCH  30  33
ATOM     33  O   UNL     1       1.779   9.907  -5.365  0.00  0.00    -0.507 OA
ATOM     34  H   UNL     1       2.073  10.109  -4.466  0.00  0.00    +0.292 HD
ENDBRANCH  30  33
ENDBRANCH  26  27
ENDBRANCH  25  26
ENDBRANCH  23  25
ENDBRANCH   5  21
TORSDOF 7
