REMARK  Name = ZINC48416896
REMARK  9 active torsions:
REMARK  status: ('A' for Active; 'I' for Inactive)
REMARK    1  A    between atoms: C_1  and  C_2
REMARK    2  A    between atoms: C_2  and  C_3
REMARK    3  A    between atoms: C_3  and  C_5
REMARK    4  A    between atoms: C_3  and  N_10
REMARK    5  A    between atoms: N_10  and  C_11
REMARK    6  A    between atoms: C_11  and  C_12
REMARK    7  A    between atoms: C_14  and  O_20
REMARK    8  A    between atoms: C_15  and  O_19
REMARK    9  A    between atoms: O_20  and  C_21
REMARK                            x       y       z     vdW  Elec       q    Type
REMARK                         _______ _______ _______ _____ _____    ______ ____
ROOT
ATOM      1  C   UNL     1      -0.099   1.210  -2.842  0.00  0.00    -0.046 C 
ENDROOT
BRANCH   1   2
ATOM      2  C   UNL     1      -0.871   1.488  -4.106  0.00  0.00    -0.060 A 
ATOM      3  C   UNL     1      -0.232   1.436  -5.331  0.00  0.00    +0.051 A 
ATOM      4  C   UNL     1      -0.941   1.692  -6.494  0.00  0.00    +0.163 A 
ATOM      5  C   UNL     1      -2.296   2.000  -6.425  0.00  0.00    +0.173 A 
ATOM      6  C   UNL     1      -2.931   2.050  -5.194  0.00  0.00    +0.063 A 
ATOM      7  C   UNL     1      -2.219   1.789  -4.038  0.00  0.00    +0.021 A 
ATOM      8 BR   UNL     1      -4.773   2.468  -5.096  0.00  0.00    -0.046 Br
BRANCH   5   9
ATOM      9  O   UNL     1      -2.996   2.252  -7.564  0.00  0.00    -0.503 OA
ATOM     10  H   UNL     1      -3.397   1.467  -7.961  0.00  0.00    +0.292 HD
ENDBRANCH   5   9
BRANCH   4  11
ATOM     11  O   UNL     1      -0.313   1.643  -7.699  0.00  0.00    -0.491 OA
ATOM     12  C   UNL     1       1.079   1.321  -7.693  0.00  0.00    +0.277 C 
ENDBRANCH   4  11
ENDBRANCH   1   2
BRANCH   1  13
ATOM     13  N   UNL     1      -0.153  -0.227  -2.541  0.00  0.00    +0.387 N 
ATOM     14  H   UNL     1       0.327  -0.741  -3.265  0.00  0.00    -0.085 HD
ATOM     15  H   UNL     1      -1.116  -0.526  -2.500  0.00  0.00    -0.085 HD
BRANCH  13  16
ATOM     16  C   UNL     1       0.494  -0.482  -1.248  0.00  0.00    -0.034 C 
BRANCH  16  17
ATOM     17  C   UNL     1       1.963  -0.162  -1.350  0.00  0.00    -0.024 A 
ATOM     18  C   UNL     1       2.770   0.444  -0.444  0.00  0.00    +0.009 A 
ATOM     19  C   UNL     1       4.103   0.635  -0.757  0.00  0.00    +0.008 A 
ATOM     20  C   UNL     1       4.564   0.212  -1.959  0.00  0.00    +0.045 A 
ATOM     21  S   UNL     1       3.095  -0.488  -2.692  0.00  0.00    -0.103 S 
ENDBRANCH  16  17
BRANCH  16  23
ATOM     22  C   UNL     1      -1.165  -2.247  -0.638  0.00  0.00    +0.002 C 
ATOM     23  C   UNL     1       0.318  -1.954  -0.870  0.00  0.00    -0.014 C 
ENDBRANCH  16  23
ENDBRANCH  13  16
ENDBRANCH   1  13
TORSDOF 7
