REMARK  Name = ZINC03431321
REMARK  9 active torsions:
REMARK  status: ('A' for Active; 'I' for Inactive)
REMARK    1  A    between atoms: C_4  and  C_7
REMARK    2  A    between atoms: C_7  and  C_9
REMARK    3  A    between atoms: C_7  and  N_51
REMARK    4  A    between atoms: N_11  and  C_12
REMARK    5  A    between atoms: C_17  and  C_18
REMARK    6  A    between atoms: C_23  and  C_24
REMARK    7  A    between atoms: C_23  and  N_51
REMARK    8  A    between atoms: C_27  and  S_30
REMARK    9  A    between atoms: S_30  and  N_33
REMARK                            x       y       z     vdW  Elec       q    Type
REMARK                         _______ _______ _______ _____ _____    ______ ____
ROOT
ATOM      1  C   UNL     1       1.256  -4.136  -1.463  0.00  0.00    +0.048 C 
ENDROOT
BRANCH   1   5
ATOM      2  C   UNL     1       5.289  -5.524  -1.223  0.00  0.00    +0.000 A 
ATOM      3  C   UNL     1       4.287  -6.190  -0.542  0.00  0.00    +0.000 A 
ATOM      4  C   UNL     1       2.982  -5.740  -0.620  0.00  0.00    +0.002 A 
ATOM      5  C   UNL     1       2.679  -4.625  -1.378  0.00  0.00    -0.053 A 
ATOM      6  C   UNL     1       3.680  -3.962  -2.063  0.00  0.00    +0.002 A 
ATOM      7  C   UNL     1       4.986  -4.409  -1.982  0.00  0.00    +0.000 A 
ENDBRANCH   1   5
BRANCH   1   8
ATOM      8  C   UNL     1       0.639  -4.606  -2.755  0.00  0.00    +0.207 C 
ATOM      9  O   UNL     1       0.227  -3.797  -3.560  0.00  0.00    -0.277 OA
ATOM     10  N   UNL     1       0.546  -5.925  -3.017  0.00  0.00    -0.286 N 
ATOM     11  H   UNL     1       0.934  -6.569  -2.404  0.00  0.00    +0.155 HD
BRANCH  10  12
ATOM     12  C   UNL     1      -0.111  -6.364  -4.172  0.00  0.00    +0.045 A 
ATOM     13  C   UNL     1      -0.035  -5.619  -5.341  0.00  0.00    +0.025 A 
ATOM     14  C   UNL     1      -0.684  -6.055  -6.479  0.00  0.00    +0.022 A 
ATOM     15  C   UNL     1      -1.409  -7.233  -6.456  0.00  0.00    +0.042 A 
ATOM     16  C   UNL     1      -1.486  -7.978  -5.292  0.00  0.00    +0.034 A 
ATOM     17  C   UNL     1      -0.834  -7.549  -4.152  0.00  0.00    +0.077 A 
ATOM     18 CL   UNL     1      -2.225  -7.778  -7.888  0.00  0.00    -0.084 Cl
BRANCH  17  19
ATOM     19  C   UNL     1      -0.913  -8.364  -2.887  0.00  0.00    +0.419 C 
ATOM     20  F   UNL     1      -1.691  -9.504  -3.114  0.00  0.00    -0.166 F 
ATOM     21  F   UNL     1       0.375  -8.748  -2.498  0.00  0.00    -0.166 F 
ATOM     22  F   UNL     1      -1.496  -7.595  -1.873  0.00  0.00    -0.166 F 
ENDBRANCH  17  19
ENDBRANCH  10  12
ENDBRANCH   1   8
BRANCH   1  23
ATOM     23  N   UNL     1       1.240  -2.661  -1.427  0.00  0.00    +0.392 N 
ATOM     24  H   UNL     1       0.390  -2.320  -1.891  0.00  0.00    -0.084 HD
ATOM     25  H   UNL     1       2.066  -2.301  -1.919  0.00  0.00    -0.084 HD
BRANCH  23  26
ATOM     26  C   UNL     1       1.258  -2.182  -0.032  0.00  0.00    -0.045 C 
BRANCH  26  27
ATOM     27  C   UNL     1       1.241  -0.675  -0.027  0.00  0.00    -0.064 A 
ATOM     28  C   UNL     1       0.036   0.002  -0.004  0.00  0.00    +0.003 A 
ATOM     29  C   UNL     1       0.021   1.384   0.002  0.00  0.00    +0.029 A 
ATOM     30  C   UNL     1       1.210   2.089  -0.016  0.00  0.00    +0.105 A 
ATOM     31  C   UNL     1       2.415   1.411  -0.040  0.00  0.00    +0.029 A 
ATOM     32  C   UNL     1       2.430   0.029  -0.045  0.00  0.00    +0.003 A 
BRANCH  30  33
ATOM     33  S   UNL     1       1.190   3.851  -0.009  0.00  0.00    +0.056 S 
ATOM     34  O   UNL     1       2.421   4.273  -0.579  0.00  0.00    -0.153 OA
ATOM     35  O   UNL     1      -0.069   4.245  -0.538  0.00  0.00    -0.153 OA
BRANCH  33  36
ATOM     36  N   UNL     1       1.210   4.335   1.574  0.00  0.00    -0.204 NA
ATOM     37  H   UNL     1       1.230   3.674   2.284  0.00  0.00    +0.144 HD
ATOM     38  H   UNL     1       1.203   5.280   1.793  0.00  0.00    +0.144 HD
ENDBRANCH  33  36
ENDBRANCH  30  33
ENDBRANCH  26  27
ENDBRANCH  23  26
ENDBRANCH   1  23
TORSDOF 9
