REMARK  Name = ZINC44891405
REMARK  2 active torsions:
REMARK  status: ('A' for Active; 'I' for Inactive)
REMARK    1  A    between atoms: C_1  and  O_2
REMARK    2  A    between atoms: O_2  and  N_3
REMARK                            x       y       z     vdW  Elec       q    Type
REMARK                         _______ _______ _______ _____ _____    ______ ____
ROOT
ATOM      1  N   UNL     1       0.646  -0.565  -1.127  0.00  0.00    -0.089 NA
ATOM      2  C   UNL     1       0.730  -1.850  -1.252  0.00  0.00    +0.091 C 
ATOM      3  C   UNL     1       1.321  -2.426  -2.510  0.00  0.00    +0.082 C 
ATOM      4  C   UNL     1       0.341  -3.459  -3.083  0.00  0.00    +0.178 C 
ATOM      5  S   UNL     1       0.226  -4.838  -1.906  0.00  0.00    -0.002 S 
ATOM      6  O   UNL     1      -0.963  -5.581  -2.136  0.00  0.00    -0.169 OA
ATOM      7  O   UNL     1       1.482  -5.494  -1.796  0.00  0.00    -0.169 OA
ATOM      8  C   UNL     1      -0.021  -4.065  -0.340  0.00  0.00    +0.097 A 
ATOM      9  C   UNL     1       0.249  -2.709  -0.156  0.00  0.00    +0.027 A 
ATOM     10  C   UNL     1       0.051  -2.134   1.105  0.00  0.00    +0.050 A 
ATOM     11  C   UNL     1      -0.403  -2.904   2.156  0.00  0.00    +0.124 A 
ATOM     12  C   UNL     1      -0.666  -4.251   1.966  0.00  0.00    +0.040 A 
ATOM     13  C   UNL     1      -0.483  -4.826   0.717  0.00  0.00    +0.030 A 
ATOM     14  F   UNL     1      -0.591  -2.345   3.372  0.00  0.00    -0.205 F 
ENDROOT
BRANCH   1  16
ATOM     15  C   UNL     1      -0.099   1.424  -0.041  0.00  0.00    +0.313 C 
ATOM     16  O   UNL     1      -0.091  -0.004  -0.056  0.00  0.00    -0.397 OA
ENDBRANCH   1  16
TORSDOF 1
