REMARK  Name = ZINC43286412
REMARK  10 active torsions:
REMARK  status: ('A' for Active; 'I' for Inactive)
REMARK    1  A    between atoms: C_1  and  C_2
REMARK    2  A    between atoms: C_2  and  C_3
REMARK    3  A    between atoms: C_3  and  C_5
REMARK    4  A    between atoms: C_3  and  N_23
REMARK    5  A    between atoms: C_5  and  C_7
REMARK    6  A    between atoms: C_5  and  N_13
REMARK    7  A    between atoms: N_13  and  C_14
REMARK    8  A    between atoms: N_13  and  C_15
REMARK    9  A    between atoms: C_15  and  C_16
REMARK   10  A    between atoms: C_20  and  C_22
REMARK                            x       y       z     vdW  Elec       q    Type
REMARK                         _______ _______ _______ _____ _____    ______ ____
ROOT
ATOM      1  C   UNL     1       0.655  -2.037   1.299  0.00  0.00    -0.014 C 
ENDROOT
BRANCH   1   2
ATOM      2  C   UNL     1       1.394  -2.627   0.125  0.00  0.00    -0.021 A 
ATOM      3  C   UNL     1       2.639  -3.162   0.081  0.00  0.00    +0.025 A 
ATOM      4  C   UNL     1       3.117  -3.648  -1.122  0.00  0.00    +0.025 A 
ATOM      5  C   UNL     1       2.327  -3.575  -2.221  0.00  0.00    +0.060 A 
ATOM      6  S   UNL     1       0.854  -2.808  -1.567  0.00  0.00    -0.102 S 
ATOM      7 BR   UNL     1       4.847  -4.404  -1.232  0.00  0.00    -0.050 Br
ENDBRANCH   1   2
BRANCH   1   8
ATOM      8  N   UNL     1      -0.753  -2.450   1.248  0.00  0.00    +0.386 N 
ATOM      9  C   UNL     1      -1.474  -1.876   2.392  0.00  0.00    -0.095 C 
ATOM     10  H   UNL     1      -1.170  -2.122   0.390  0.00  0.00    -0.081 HD
BRANCH   8  11
ATOM     11  C   UNL     1      -0.837  -3.916   1.303  0.00  0.00    -0.042 C 
BRANCH  11  12
ATOM     12  C   UNL     1      -2.271  -4.344   1.127  0.00  0.00    -0.064 A 
ATOM     13  C   UNL     1      -3.091  -4.482   2.232  0.00  0.00    +0.002 A 
ATOM     14  C   UNL     1      -4.406  -4.875   2.071  0.00  0.00    +0.000 A 
ATOM     15  C   UNL     1      -4.902  -5.130   0.806  0.00  0.00    +0.003 A 
ATOM     16  C   UNL     1      -4.082  -4.992  -0.298  0.00  0.00    -0.050 A 
ATOM     17  C   UNL     1      -2.768  -4.594  -0.138  0.00  0.00    +0.005 A 
ATOM     18  C   UNL     1      -4.622  -5.270  -1.677  0.00  0.00    +0.044 C 
ENDBRANCH  11  12
ENDBRANCH   8  11
ENDBRANCH   1   8
BRANCH   1  19
ATOM     19  C   UNL     1       0.742  -0.511   1.242  0.00  0.00    +0.042 C 
BRANCH  19  20
ATOM     20  N   UNL     1       2.151  -0.103   1.171  0.00  0.00    -0.328 NA
ATOM     21  H   UNL     1       2.598  -0.483   0.350  0.00  0.00    +0.118 HD
ATOM     22  H   UNL     1       2.239   0.902   1.198  0.00  0.00    +0.118 HD
ENDBRANCH  19  20
BRANCH  19  24
ATOM     23  C   UNL     1      -0.019   1.526   0.010  0.00  0.00    +0.005 C 
ATOM     24  C   UNL     1       0.002  -0.004   0.002  0.00  0.00    +0.014 C 
ENDBRANCH  19  24
ENDBRANCH   1  19
TORSDOF 7
