REMARK  Name = ZINC15067957
REMARK  8 active torsions:
REMARK  status: ('A' for Active; 'I' for Inactive)
REMARK    1  A    between atoms: C_1  and  N_2
REMARK    2  A    between atoms: N_2  and  C_3
REMARK    3  A    between atoms: C_3  and  C_4
REMARK    4  A    between atoms: C_14  and  C_16
REMARK    5  A    between atoms: C_20  and  C_25
REMARK    6  A    between atoms: C_25  and  O_36
REMARK    7  A    between atoms: C_30  and  C_31
REMARK    8  A    between atoms: C_30  and  N_66
REMARK                            x       y       z     vdW  Elec       q    Type
REMARK                         _______ _______ _______ _____ _____    ______ ____
ROOT
ATOM      1  C   UNL     1      -1.603  -3.538   3.575  0.00  0.00    +0.191 A 
ATOM      2  C   UNL     1      -2.501  -3.899   4.529  0.00  0.00    +0.063 A 
ATOM      3  C   UNL     1      -1.717  -4.431   5.643  0.00  0.00    +0.021 A 
ATOM      4  C   UNL     1      -2.038  -4.957   6.896  0.00  0.00    +0.018 A 
ATOM      5  C   UNL     1      -1.041  -5.380   7.729  0.00  0.00    -0.015 A 
ATOM      6  C   UNL     1       0.288  -5.290   7.338  0.00  0.00    +0.010 A 
ATOM      7  C   UNL     1       0.626  -4.774   6.106  0.00  0.00    +0.047 A 
ATOM      8  C   UNL     1      -0.371  -4.337   5.241  0.00  0.00    +0.136 A 
ATOM      9  O   UNL     1      -0.352  -3.806   4.003  0.00  0.00    -0.450 OA
ENDROOT
BRANCH   5  10
ATOM     10  C   UNL     1      -1.387  -5.949   9.081  0.00  0.00    +0.088 C 
ATOM     11  C   UNL     1      -1.421  -4.821  10.116  0.00  0.00    +0.021 C 
ATOM     12  C   UNL     1      -1.710  -5.412  11.498  0.00  0.00    -0.075 C 
ATOM     13  C   UNL     1      -0.650  -7.505  10.890  0.00  0.00    -0.075 C 
ATOM     14  C   UNL     1      -0.328  -6.976   9.490  0.00  0.00    +0.021 C 
ATOM     15  N   UNL     1      -0.642  -6.375  11.843  0.00  0.00    +0.385 N 
ATOM     16  H   UNL     1       0.266  -5.898  11.787  0.00  0.00    -0.081 HD
BRANCH  10  17
ATOM     17  O   UNL     1      -2.667  -6.581   9.021  0.00  0.00    -0.384 OA
ATOM     18  H   UNL     1      -3.387  -5.987   8.769  0.00  0.00    +0.211 HD
ENDBRANCH  10  17
BRANCH  15  19
ATOM     19  C   UNL     1      -0.839  -6.874  13.219  0.00  0.00    -0.003 C 
BRANCH  19  20
ATOM     20  C   UNL     1      -1.099  -5.707  14.136  0.00  0.00    +0.089 A 
ATOM     21  C   UNL     1      -2.307  -5.203  14.445  0.00  0.00    +0.042 A 
ATOM     22  C   UNL     1      -2.087  -4.122  15.330  0.00  0.00    +0.041 A 
ATOM     23  C   UNL     1      -0.757  -4.030  15.508  0.00  0.00    +0.195 A 
ATOM     24  O   UNL     1      -0.164  -4.996  14.788  0.00  0.00    -0.470 OA
ENDBRANCH  19  20
ENDBRANCH  15  19
ENDBRANCH   5  10
BRANCH   1  27
ATOM     25  C   UNL     1       0.419  -3.028   1.683  0.00  0.00    +0.133 C 
ATOM     26  N   UNL     1      -0.980  -2.744   1.353  0.00  0.00    -0.294 N 
ATOM     27  C   UNL     1      -1.944  -2.951   2.272  0.00  0.00    +0.282 C 
ATOM     28  O   UNL     1      -3.096  -2.651   2.022  0.00  0.00    -0.267 OA
BRANCH  26  29
ATOM     29  C   UNL     1      -1.331  -2.236   0.025  0.00  0.00    +0.145 C 
BRANCH  29  30
ATOM     30  C   UNL     1      -1.291  -0.729   0.037  0.00  0.00    -0.004 A 
ATOM     31  C   UNL     1      -2.445  -0.016   0.150  0.00  0.00    +0.007 A 
ATOM     32  C   UNL     1      -2.430   1.377   0.164  0.00  0.00    +0.001 A 
ATOM     33  C   UNL     1      -1.259   2.065   0.069  0.00  0.00    +0.010 A 
ATOM     34  C   UNL     1      -0.050   1.362  -0.056  0.00  0.00    +0.001 A 
ATOM     35  C   UNL     1      -0.062  -0.055  -0.069  0.00  0.00    +0.076 A 
ATOM     36  N   UNL     1       1.087  -0.729  -0.181  0.00  0.00    -0.255 NA
ATOM     37  C   UNL     1       2.236  -0.105  -0.280  0.00  0.00    +0.111 A 
ATOM     38  C   UNL     1       2.318   1.286  -0.273  0.00  0.00    +0.020 A 
ATOM     39  C   UNL     1       1.182   2.035  -0.162  0.00  0.00    +0.011 A 
ENDBRANCH  29  30
ENDBRANCH  26  29
ENDBRANCH   1  27
TORSDOF 7
