REMARK  Name = ZINC04299479
REMARK  11 active torsions:
REMARK  status: ('A' for Active; 'I' for Inactive)
REMARK    1  A    between atoms: C_3  and  S_8
REMARK    2  A    between atoms: S_8  and  C_9
REMARK    3  A    between atoms: C_9  and  C_10
REMARK    4  A    between atoms: C_10  and  C_12
REMARK    5  A    between atoms: C_10  and  O_25
REMARK    6  A    between atoms: C_12  and  N_43
REMARK    7  A    between atoms: C_13  and  C_14
REMARK    8  A    between atoms: C_13  and  N_43
REMARK    9  A    between atoms: C_14  and  N_15
REMARK   10  A    between atoms: N_15  and  C_16
REMARK   11  A    between atoms: C_19  and  C_21
REMARK                            x       y       z     vdW  Elec       q    Type
REMARK                         _______ _______ _______ _____ _____    ______ ____
ROOT
ATOM      1  N   UNL     1      -2.336   4.211   8.133  0.00  0.00    +0.382 N 
ATOM      2  H   UNL     1      -1.879   3.348   8.450  0.00  0.00    -0.086 HD
ATOM      3  H   UNL     1      -1.626   4.935   7.972  0.00  0.00    -0.086 HD
ENDROOT
BRANCH   1   4
ATOM      4  C   UNL     1      -3.274   4.674   9.173  0.00  0.00    -0.050 C 
BRANCH   4   5
ATOM      5  C   UNL     1      -2.499   4.940  10.466  0.00  0.00    +0.108 C 
BRANCH   5   6
ATOM      6  O   UNL     1      -1.590   6.023  10.262  0.00  0.00    -0.393 OA
ATOM      7  H   UNL     1      -2.017   6.853  10.010  0.00  0.00    +0.210 HD
ENDBRANCH   5   6
BRANCH   5   8
ATOM      8  C   UNL     1      -3.479   5.300  11.584  0.00  0.00    +0.103 C 
BRANCH   8   9
ATOM      9  S   UNL     1      -2.561   5.615  13.116  0.00  0.00    -0.123 S 
BRANCH   9  12
ATOM     10  C   UNL     1      -4.450   6.625  16.519  0.00  0.00    +0.039 A 
ATOM     11  C   UNL     1      -3.466   6.315  15.601  0.00  0.00    +0.017 A 
ATOM     12  C   UNL     1      -3.813   6.011  14.290  0.00  0.00    +0.008 A 
ATOM     13  C   UNL     1      -5.148   6.025  13.905  0.00  0.00    +0.017 A 
ATOM     14  C   UNL     1      -6.128   6.331  14.829  0.00  0.00    +0.039 A 
ATOM     15  C   UNL     1      -5.780   6.633  16.135  0.00  0.00    +0.123 A 
ATOM     16  F   UNL     1      -6.740   6.937  17.036  0.00  0.00    -0.205 F 
ENDBRANCH   9  12
ENDBRANCH   8   9
ENDBRANCH   5   8
ENDBRANCH   4   5
ENDBRANCH   1   4
BRANCH   1  17
ATOM     17  C   UNL     1      -3.057   3.947   6.874  0.00  0.00    -0.064 C 
BRANCH  17  18
ATOM     18  C   UNL     1      -2.060   3.470   5.816  0.00  0.00    +0.084 C 
BRANCH  18  19
ATOM     19  N   UNL     1      -2.769   3.205   4.561  0.00  0.00    -0.332 N 
ATOM     20  H   UNL     1      -3.728   3.342   4.508  0.00  0.00    +0.147 HD
BRANCH  19  21
ATOM     21  C   UNL     1      -2.068   2.757   3.448  0.00  0.00    +0.096 A 
ATOM     22  C   UNL     1      -0.692   2.563   3.532  0.00  0.00    +0.042 A 
ATOM     23  C   UNL     1      -0.007   2.118   2.416  0.00  0.00    +0.017 A 
ATOM     24  C   UNL     1      -0.722   1.881   1.250  0.00  0.00    +0.071 A 
ATOM     25  C   UNL     1      -2.085   2.100   1.236  0.00  0.00    +0.096 A 
ATOM     26  N   UNL     1      -2.792   2.532   2.314  0.00  0.00    -0.349 N 
ATOM     27  H   UNL     1      -3.808   2.679   2.277  0.00  0.00    +0.167 HD
BRANCH  24  28
ATOM     28  C   UNL     1      -0.017   1.395   0.010  0.00  0.00    +0.419 C 
ATOM     29  F   UNL     1       0.002  -0.004   0.002  0.00  0.00    -0.166 F 
ATOM     30  F   UNL     1       1.296   1.879  -0.000  0.00  0.00    -0.166 F 
ATOM     31  F   UNL     1      -0.694   1.858  -1.124  0.00  0.00    -0.166 F 
ENDBRANCH  24  28
ENDBRANCH  19  21
ENDBRANCH  18  19
ENDBRANCH  17  18
ENDBRANCH   1  17
TORSDOF 11
