REMARK  Name = ZINC05054597
REMARK  7 active torsions:
REMARK  status: ('A' for Active; 'I' for Inactive)
REMARK    1  A    between atoms: C_6  and  N_7
REMARK    2  A    between atoms: C_9  and  N_24
REMARK    3  A    between atoms: C_10  and  N_23
REMARK    4  A    between atoms: N_14  and  C_15
REMARK    5  A    between atoms: C_15  and  C_16
REMARK    6  A    between atoms: C_16  and  C_17
REMARK    7  A    between atoms: C_17  and  N_50
REMARK                            x       y       z     vdW  Elec       q    Type
REMARK                         _______ _______ _______ _____ _____    ______ ____
ROOT
ATOM      1  N   UNL     1      -0.017   1.394   0.010  0.00  0.00    -0.297 N 
ATOM      2  C   UNL     1      -1.316   1.878   0.046  0.00  0.00    +0.160 A 
ATOM      3  C   UNL     1      -1.563   3.245  -0.049  0.00  0.00    +0.205 A 
ATOM      4  C   UNL     1      -2.882   3.684  -0.009  0.00  0.00    +0.154 A 
ATOM      5  N   UNL     1      -3.860   2.789   0.118  0.00  0.00    -0.197 NA
ATOM      6  C   UNL     1      -3.588   1.496   0.205  0.00  0.00    +0.219 A 
ATOM      7  N   UNL     1      -2.345   1.042   0.166  0.00  0.00    -0.197 NA
ATOM      8  N   UNL     1      -4.631   0.596   0.336  0.00  0.00    -0.313 N 
ATOM      9  H   UNL     1       0.721   1.998  -0.170  0.00  0.00    +0.154 HD
ATOM     10  H   UNL     1      -4.446  -0.354   0.401  0.00  0.00    +0.149 HD
ENDROOT
BRANCH   1  16
ATOM     11  C   UNL     1      -0.548  -0.678   1.130  0.00  0.00    +0.025 A 
ATOM     12  C   UNL     1      -0.307  -2.022   1.337  0.00  0.00    +0.022 A 
ATOM     13  C   UNL     1       0.715  -2.656   0.654  0.00  0.00    +0.041 A 
ATOM     14  C   UNL     1       1.496  -1.947  -0.243  0.00  0.00    +0.022 A 
ATOM     15  C   UNL     1       1.255  -0.604  -0.458  0.00  0.00    +0.025 A 
ATOM     16  C   UNL     1       0.229   0.035   0.226  0.00  0.00    +0.033 A 
ATOM     17 CL   UNL     1       1.020  -4.344   0.922  0.00  0.00    -0.084 Cl
ENDBRANCH   1  16
BRANCH   4  18
ATOM     18  N   UNL     1      -3.175   5.036  -0.100  0.00  0.00    -0.341 N 
ATOM     19  H   UNL     1      -2.458   5.683  -0.192  0.00  0.00    +0.144 HD
ATOM     20  H   UNL     1      -4.098   5.336  -0.071  0.00  0.00    +0.144 HD
ENDBRANCH   4  18
BRANCH   3  21
ATOM     21  N   UNL     1      -0.447   4.208  -0.188  0.00  0.00    +0.063 N 
ATOM     22  O   UNL     1      -0.048   4.521  -1.296  0.00  0.00    -0.126 OA
ATOM     23  O   UNL     1       0.071   4.688   0.804  0.00  0.00    -0.126 OA
ENDBRANCH   3  21
BRANCH   8  24
ATOM     24  C   UNL     1      -6.014   1.078   0.377  0.00  0.00    +0.102 C 
BRANCH  24  25
ATOM     25  C   UNL     1      -6.964  -0.112   0.525  0.00  0.00    +0.000 C 
BRANCH  25  26
ATOM     26  C   UNL     1      -8.408   0.391   0.568  0.00  0.00    -0.077 C 
BRANCH  26  32
ATOM     27  C   UNL     1      -9.289  -1.603  -0.487  0.00  0.00    -0.050 C 
ATOM     28  C   UNL     1     -10.207  -2.810  -0.273  0.00  0.00    +0.141 C 
ATOM     29  O   UNL     1     -11.527  -2.351   0.031  0.00  0.00    -0.383 OA
ATOM     30  C   UNL     1     -11.594  -1.519   1.192  0.00  0.00    +0.141 C 
ATOM     31  C   UNL     1     -10.691  -0.299   0.992  0.00  0.00    -0.050 C 
ATOM     32  N   UNL     1      -9.314  -0.767   0.731  0.00  0.00    +0.383 N 
ATOM     33  H   UNL     1      -8.995  -1.329   1.529  0.00  0.00    -0.082 HD
ENDBRANCH  26  32
ENDBRANCH  25  26
ENDBRANCH  24  25
ENDBRANCH   8  24
TORSDOF 7
