REMARK  Name = ZINC09008648
REMARK  11 active torsions:
REMARK  status: ('A' for Active; 'I' for Inactive)
REMARK    1  A    between atoms: C_1  and  C_2
REMARK    2  A    between atoms: C_2  and  O_3
REMARK    3  A    between atoms: O_3  and  C_4
REMARK    4  A    between atoms: C_4  and  C_6
REMARK    5  A    between atoms: C_6  and  N_60
REMARK    6  A    between atoms: C_7  and  C_29
REMARK    7  A    between atoms: C_16  and  C_18
REMARK    8  A    between atoms: C_21  and  O_26
REMARK    9  A    between atoms: C_23  and  O_24
REMARK   10  A    between atoms: O_24  and  C_25
REMARK   11  A    between atoms: O_26  and  C_27
REMARK                            x       y       z     vdW  Elec       q    Type
REMARK                         _______ _______ _______ _____ _____    ______ ____
ROOT
ATOM      1  C   UNL     1      -4.126  -4.706   0.033  0.00  0.00    -0.001 C 
ATOM      2  C   UNL     1      -3.898  -6.194   0.030  0.00  0.00    -0.035 A 
ATOM      3  C   UNL     1      -4.950  -7.045  -0.258  0.00  0.00    +0.019 A 
ATOM      4  C   UNL     1      -4.755  -8.414  -0.263  0.00  0.00    +0.018 A 
ATOM      5  C   UNL     1      -3.508  -8.941   0.022  0.00  0.00    +0.017 A 
ATOM      6  C   UNL     1      -2.453  -8.098   0.310  0.00  0.00    +0.024 A 
ATOM      7  C   UNL     1      -2.647  -6.723   0.314  0.00  0.00    +0.028 A 
ATOM      8  N   UNL     1      -1.576  -5.867   0.601  0.00  0.00    -0.353 N 
ATOM      9  C   UNL     1      -1.871  -4.453   0.876  0.00  0.00    +0.053 C 
ATOM     10 BR   UNL     1      -6.199  -9.570  -0.658  0.00  0.00    -0.050 Br
ATOM     11  H   UNL     1      -0.664  -6.198   0.617  0.00  0.00    +0.145 HD
ATOM     12  N   UNL     1      -2.842  -4.001  -0.145  0.00  0.00    +0.409 N 
ATOM     13  H   UNL     1      -2.469  -4.215  -1.078  0.00  0.00    -0.076 HD
ENDROOT
BRANCH   9  14
ATOM     14  C   UNL     1      -2.449  -4.314   2.261  0.00  0.00    -0.002 A 
ATOM     15  C   UNL     1      -3.058  -5.396   2.867  0.00  0.00    +0.010 A 
ATOM     16  C   UNL     1      -3.588  -5.272   4.137  0.00  0.00    +0.046 A 
ATOM     17  C   UNL     1      -3.510  -4.059   4.807  0.00  0.00    +0.124 A 
ATOM     18  C   UNL     1      -2.899  -2.972   4.201  0.00  0.00    +0.091 A 
ATOM     19  C   UNL     1      -2.363  -3.101   2.929  0.00  0.00    +0.127 A 
BRANCH  19  20
ATOM     20  O   UNL     1      -1.758  -2.039   2.335  0.00  0.00    -0.495 OA
ATOM     21  C   UNL     1      -1.706  -0.821   3.081  0.00  0.00    +0.277 C 
ENDBRANCH  19  20
BRANCH  17  22
ATOM     22  O   UNL     1      -4.032  -3.937   6.056  0.00  0.00    -0.495 OA
ATOM     23  C   UNL     1      -4.646  -5.098   6.618  0.00  0.00    +0.277 C 
ENDBRANCH  17  22
ENDBRANCH   9  14
BRANCH   1  24
ATOM     24  C   UNL     1      -5.043  -4.340  -1.106  0.00  0.00    -0.057 A 
ATOM     25  C   UNL     1      -4.536  -4.203  -2.385  0.00  0.00    +0.002 A 
ATOM     26  C   UNL     1      -5.378  -3.871  -3.430  0.00  0.00    +0.000 A 
ATOM     27  C   UNL     1      -6.725  -3.668  -3.194  0.00  0.00    +0.000 A 
ATOM     28  C   UNL     1      -7.231  -3.800  -1.915  0.00  0.00    +0.000 A 
ATOM     29  C   UNL     1      -6.389  -4.136  -0.870  0.00  0.00    +0.002 A 
ENDBRANCH   1  24
BRANCH  12  30
ATOM     30  C   UNL     1      -3.049  -2.540  -0.034  0.00  0.00    +0.048 C 
BRANCH  30  31
ATOM     31  C   UNL     1      -1.747  -1.838  -0.321  0.00  0.00    +0.290 C 
ATOM     32  O   UNL     1      -0.787  -2.473  -0.690  0.00  0.00    -0.253 OA
BRANCH  31  33
ATOM     33  O   UNL     1      -1.653  -0.508  -0.168  0.00  0.00    -0.466 OA
BRANCH  33  35
ATOM     34  C   UNL     1      -0.453   1.610  -0.233  0.00  0.00    +0.048 C 
ATOM     35  C   UNL     1      -0.368   0.100  -0.463  0.00  0.00    +0.228 C 
ENDBRANCH  33  35
ENDBRANCH  31  33
ENDBRANCH  30  31
ENDBRANCH  12  30
TORSDOF 8
