REMARK  Name = ZINC02927154
REMARK  9 active torsions:
REMARK  status: ('A' for Active; 'I' for Inactive)
REMARK    1  A    between atoms: C_1  and  C_2
REMARK    2  A    between atoms: C_2  and  C_3
REMARK    3  A    between atoms: C_6  and  N_9
REMARK    4  A    between atoms: C_13  and  C_32
REMARK    5  A    between atoms: C_19  and  S_20
REMARK    6  A    between atoms: S_20  and  C_21
REMARK    7  A    between atoms: C_21  and  C_22
REMARK    8  A    between atoms: N_24  and  C_25
REMARK    9  A    between atoms: C_25  and  C_26
REMARK                            x       y       z     vdW  Elec       q    Type
REMARK                         _______ _______ _______ _____ _____    ______ ____
ROOT
ATOM      1  N   UNL     1      -3.463   5.355   9.098  0.00  0.00    -0.275 N 
ATOM      2  C   UNL     1      -2.773   5.726  10.242  0.00  0.00    +0.124 A 
ATOM      3  N   UNL     1      -3.403   6.069  11.338  0.00  0.00    -0.384 N 
ATOM      4  C   UNL     1      -1.305   5.718  10.175  0.00  0.00    +0.082 A 
ATOM      5  C   UNL     1      -0.279   6.018  11.087  0.00  0.00    +0.046 A 
ATOM      6  N   UNL     1       0.868   5.831  10.492  0.00  0.00    -0.279 N 
ATOM      7  N   UNL     1       0.646   5.416   9.173  0.00  0.00    -0.153 NA
ATOM      8  H   UNL     1       1.806   6.004  11.039  0.00  0.00    +0.189 HD
ATOM      9  C   UNL     1      -0.697   5.339   8.970  0.00  0.00    +0.187 A 
ATOM     10  N   UNL     1      -1.460   4.998   7.921  0.00  0.00    -0.201 NA
ATOM     11  C   UNL     1      -2.769   5.003   7.973  0.00  0.00    +0.177 A 
ATOM     12  C   UNL     1      -0.469   6.470  12.512  0.00  0.00    +0.066 C 
ATOM     13  H   UNL     1      -2.833   6.359  12.233  0.00  0.00    +0.157 HD
ATOM     14  H   UNL     1      -4.503   6.067  11.364  0.00  0.00    +0.157 HD
ENDROOT
BRANCH   1  18
ATOM     15  C   UNL     1      -7.631   5.316   9.089  0.00  0.00    -0.047 A 
ATOM     16  C   UNL     1      -6.929   4.134   8.938  0.00  0.00    +0.005 A 
ATOM     17  C   UNL     1      -5.548   4.144   8.940  0.00  0.00    +0.026 A 
ATOM     18  C   UNL     1      -4.864   5.342   9.095  0.00  0.00    +0.050 A 
ATOM     19  C   UNL     1      -5.571   6.527   9.252  0.00  0.00    +0.026 A 
ATOM     20  C   UNL     1      -6.952   6.511   9.243  0.00  0.00    +0.005 A 
BRANCH  15  22
ATOM     21  C   UNL     1      -9.649   5.112  10.516  0.00  0.00    +0.009 C 
ATOM     22  C   UNL     1      -9.137   5.301   9.086  0.00  0.00    +0.032 C 
ENDBRANCH  15  22
ENDBRANCH   1  18
BRANCH  11  23
ATOM     23  S   UNL     1      -3.674   4.535   6.535  0.00  0.00    -0.078 S 
BRANCH  23  24
ATOM     24  C   UNL     1      -2.305   4.187   5.402  0.00  0.00    +0.173 C 
BRANCH  24  25
ATOM     25  C   UNL     1      -2.856   3.756   4.067  0.00  0.00    +0.223 C 
ATOM     26  O   UNL     1      -4.055   3.691   3.898  0.00  0.00    -0.275 OA
ATOM     27  N   UNL     1      -2.015   3.443   3.061  0.00  0.00    -0.312 N 
ATOM     28  H   UNL     1      -0.927   3.502   3.215  0.00  0.00    +0.149 HD
BRANCH  27  29
ATOM     29  C   UNL     1      -2.550   3.024   1.764  0.00  0.00    +0.135 C 
BRANCH  29  30
ATOM     30  C   UNL     1      -1.393   2.729   0.806  0.00  0.00    +0.135 C 
ATOM     31  C   UNL     1      -1.927   2.405  -0.612  0.00  0.00    +0.035 C 
ATOM     32  C   UNL     1      -0.778   1.554  -1.205  0.00  0.00    +0.031 C 
ATOM     33  C   UNL     1      -0.013   1.039   0.030  0.00  0.00    +0.160 C 
ATOM     34  O   UNL     1      -0.705   1.518   1.196  0.00  0.00    -0.375 OA
ENDBRANCH  29  30
ENDBRANCH  27  29
ENDBRANCH  24  25
ENDBRANCH  23  24
ENDBRANCH  11  23
TORSDOF 7
