REMARK  Name = ZINC66940625
REMARK  9 active torsions:
REMARK  status: ('A' for Active; 'I' for Inactive)
REMARK    1  A    between atoms: C_1  and  C_2
REMARK    2  A    between atoms: C_2  and  C_3
REMARK    3  A    between atoms: C_3  and  C_4
REMARK    4  A    between atoms: C_6  and  C_9
REMARK    5  A    between atoms: C_13  and  C_15
REMARK    6  A    between atoms: C_15  and  N_16
REMARK    7  A    between atoms: N_16  and  C_17
REMARK    8  A    between atoms: C_17  and  C_19
REMARK    9  A    between atoms: C_17  and  C_26
REMARK                            x       y       z     vdW  Elec       q    Type
REMARK                         _______ _______ _______ _____ _____    ______ ____
ROOT
ATOM      1  N   UNL     1      -0.940  -9.476   0.657  0.00  0.00    +0.392 N 
ATOM      2  H   UNL     1      -1.949  -9.476   0.692  0.00  0.00    -0.084 HD
ATOM      3  H   UNL     1      -0.629  -8.857  -0.076  0.00  0.00    -0.084 HD
ENDROOT
BRANCH   1   4
ATOM      4  C   UNL     1      -0.407  -9.015   1.946  0.00  0.00    -0.045 C 
BRANCH   4   9
ATOM      5  C   UNL     1      -0.626  -5.238   2.051  0.00  0.00    +0.040 A 
ATOM      6  C   UNL     1      -1.824  -5.054   2.744  0.00  0.00    +0.013 A 
ATOM      7  C   UNL     1      -2.547  -6.150   3.169  0.00  0.00    +0.001 A 
ATOM      8  C   UNL     1      -2.087  -7.429   2.909  0.00  0.00    +0.002 A 
ATOM      9  C   UNL     1      -0.900  -7.618   2.224  0.00  0.00    -0.064 A 
ATOM     10  C   UNL     1      -0.171  -6.531   1.788  0.00  0.00    +0.015 A 
BRANCH   5  13
ATOM     11  C   UNL     1       0.762  -2.018   1.233  0.00  0.00    +0.172 A 
ATOM     12  N   UNL     1      -0.166  -2.808   1.777  0.00  0.00    -0.192 NA
ATOM     13  C   UNL     1       0.153  -4.069   1.593  0.00  0.00    +0.258 A 
ATOM     14  O   UNL     1       1.314  -4.109   0.916  0.00  0.00    -0.333 OA
ATOM     15  N   UNL     1       1.687  -2.758   0.689  0.00  0.00    -0.061 NA
BRANCH  11  16
ATOM     16  C   UNL     1       0.742  -0.511   1.242  0.00  0.00    +0.079 C 
BRANCH  16  18
ATOM     17  C   UNL     1      -0.019   1.526   0.010  0.00  0.00    +0.004 C 
ATOM     18  C   UNL     1       0.002  -0.004   0.002  0.00  0.00    +0.004 C 
ENDBRANCH  16  18
ENDBRANCH  11  16
ENDBRANCH   5  13
ENDBRANCH   4   9
ENDBRANCH   1   4
BRANCH   1  19
ATOM     19  C   UNL     1      -0.459 -10.837   0.387  0.00  0.00    +0.047 C 
BRANCH  19  20
ATOM     20  C   UNL     1      -0.905 -11.263  -0.988  0.00  0.00    -0.053 A 
ATOM     21  C   UNL     1      -2.169 -10.932  -1.438  0.00  0.00    +0.005 A 
ATOM     22  C   UNL     1      -2.579 -11.322  -2.699  0.00  0.00    +0.038 A 
ATOM     23  C   UNL     1      -1.722 -12.044  -3.512  0.00  0.00    +0.123 A 
ATOM     24  C   UNL     1      -0.456 -12.376  -3.060  0.00  0.00    +0.038 A 
ATOM     25  C   UNL     1      -0.046 -11.980  -1.801  0.00  0.00    +0.005 A 
ATOM     26  F   UNL     1      -2.121 -12.427  -4.745  0.00  0.00    -0.205 F 
ENDBRANCH  19  20
BRANCH  19  27
ATOM     27  C   UNL     1      -1.025 -11.783   1.414  0.00  0.00    +0.201 C 
ATOM     28  O   UNL     1      -1.757 -11.365   2.286  0.00  0.00    -0.277 OA
ATOM     29  N   UNL     1      -0.718 -13.094   1.364  0.00  0.00    -0.330 N 
ATOM     30  H   UNL     1      -0.132 -13.429   0.667  0.00  0.00    +0.145 HD
ATOM     31  H   UNL     1      -1.082 -13.703   2.025  0.00  0.00    +0.145 HD
ENDBRANCH  19  27
ENDBRANCH   1  19
TORSDOF 8
