REMARK  Name = ZINC66402473
REMARK  9 active torsions:
REMARK  status: ('A' for Active; 'I' for Inactive)
REMARK    1  A    between atoms: C_1  and  C_2
REMARK    2  A    between atoms: C_5  and  C_30
REMARK    3  A    between atoms: N_8  and  C_10
REMARK    4  A    between atoms: C_10  and  C_11
REMARK    5  A    between atoms: C_11  and  C_12
REMARK    6  A    between atoms: C_12  and  C_13
REMARK    7  A    between atoms: C_13  and  N_14
REMARK    8  A    between atoms: N_17  and  C_18
REMARK    9  A    between atoms: C_20  and  C_26
REMARK                            x       y       z     vdW  Elec       q    Type
REMARK                         _______ _______ _______ _____ _____    ______ ____
ROOT
ATOM      1  N   UNL     1       6.011  -2.425   4.511  0.00  0.00    -0.299 N 
ATOM      2  C   UNL     1       7.330  -2.167   4.607  0.00  0.00    +0.304 C 
ATOM      3  O   UNL     1       7.860  -1.405   3.821  0.00  0.00    -0.253 OA
ATOM      4  N   UNL     1       8.063  -2.753   5.575  0.00  0.00    -0.265 N 
ATOM      5  H   UNL     1       5.589  -3.033   5.138  0.00  0.00    +0.150 HD
ATOM      6  H   UNL     1       7.629  -3.302   6.246  0.00  0.00    +0.157 HD
ENDROOT
BRANCH   4   7
ATOM      7  C   UNL     1       9.453  -2.569   5.611  0.00  0.00    +0.100 A 
ATOM      8  C   UNL     1      10.051  -2.026   6.715  0.00  0.00    +0.042 A 
ATOM      9  C   UNL     1      11.442  -1.854   6.724  0.00  0.00    +0.073 A 
ATOM     10  C   UNL     1      12.178  -2.223   5.651  0.00  0.00    +0.098 A 
ATOM     11  N   UNL     1      11.585  -2.762   4.553  0.00  0.00    -0.327 N 
ATOM     12  H   UNL     1      12.130  -3.020   3.792  0.00  0.00    +0.168 HD
ATOM     13  C   UNL     1      10.252  -2.948   4.510  0.00  0.00    +0.270 A 
ATOM     14  O   UNL     1       9.735  -3.438   3.519  0.00  0.00    -0.266 OA
BRANCH   9  15
ATOM     15  C   UNL     1      12.118  -1.257   7.932  0.00  0.00    +0.419 C 
ATOM     16  F   UNL     1      13.497  -1.187   7.707  0.00  0.00    -0.166 F 
ATOM     17  F   UNL     1      11.617   0.029   8.159  0.00  0.00    -0.166 F 
ATOM     18  F   UNL     1      11.869  -2.060   9.050  0.00  0.00    -0.166 F 
ENDBRANCH   9  15
ENDBRANCH   4   7
BRANCH   1  19
ATOM     19  C   UNL     1       5.215  -1.788   3.459  0.00  0.00    +0.105 C 
BRANCH  19  20
ATOM     20  C   UNL     1       3.760  -2.248   3.571  0.00  0.00    +0.017 C 
BRANCH  20  21
ATOM     21  C   UNL     1       2.928  -1.582   2.473  0.00  0.00    -0.017 C 
BRANCH  21  22
ATOM     22  C   UNL     1       1.474  -2.042   2.586  0.00  0.00    -0.079 C 
BRANCH  22  28
ATOM     23  C   UNL     1      -0.138   2.239   0.841  0.00  0.00    +0.005 C 
ATOM     24  C   UNL     1      -0.112   0.727   0.609  0.00  0.00    -0.031 C 
ATOM     25  C   UNL     1      -1.546   0.190   0.571  0.00  0.00    +0.003 C 
ATOM     26  C   UNL     1      -1.506  -1.333   0.417  0.00  0.00    -0.031 C 
ATOM     27  C   UNL     1      -0.693  -1.935   1.565  0.00  0.00    -0.076 C 
ATOM     28  N   UNL     1       0.675  -1.403   1.531  0.00  0.00    +0.380 N 
ATOM     29  C   UNL     1       0.652   0.048   1.749  0.00  0.00    -0.076 C 
ATOM     30  C   UNL     1      -2.932  -1.887   0.455  0.00  0.00    +0.005 C 
ATOM     31  H   UNL     1       1.089  -1.600   0.632  0.00  0.00    -0.082 HD
ENDBRANCH  22  28
ENDBRANCH  21  22
ENDBRANCH  20  21
ENDBRANCH  19  20
ENDBRANCH   1  19
TORSDOF 7
