REMARK  Name = ZINC12535709
REMARK  3 active torsions:
REMARK  status: ('A' for Active; 'I' for Inactive)
REMARK    1  A    between atoms: C_1  and  O_2
REMARK    2  A    between atoms: O_2  and  C_3
REMARK    3  A    between atoms: C_4  and  C_11
REMARK                            x       y       z     vdW  Elec       q    Type
REMARK                         _______ _______ _______ _____ _____    ______ ____
ROOT
ATOM      1  C   UNL     1       2.761  -0.546  -0.272  0.00  0.00    +0.212 C 
ATOM      2  N   UNL     1       4.189  -0.402   0.064  0.00  0.00    -0.294 N 
ATOM      3  C   UNL     1       4.951  -1.556   0.166  0.00  0.00    +0.159 C 
ATOM      4  N   UNL     1       4.888  -2.439  -0.913  0.00  0.00    -0.259 N 
ATOM      5  C   UNL     1       3.653  -2.506  -1.551  0.00  0.00    +0.205 A 
ATOM      6  N   UNL     1       2.639  -1.616  -1.269  0.00  0.00    -0.288 N 
ATOM      7  C   UNL     1       1.579  -1.943  -2.066  0.00  0.00    +0.072 A 
ATOM      8  C   UNL     1       0.308  -1.401  -2.218  0.00  0.00    +0.028 A 
ATOM      9  C   UNL     1      -0.528  -2.005  -3.143  0.00  0.00    +0.002 A 
ATOM     10  C   UNL     1      -0.129  -3.101  -3.889  0.00  0.00    +0.002 A 
ATOM     11  C   UNL     1       1.130  -3.658  -3.756  0.00  0.00    +0.030 A 
ATOM     12  C   UNL     1       1.993  -3.064  -2.828  0.00  0.00    +0.091 A 
ATOM     13  N   UNL     1       3.261  -3.354  -2.463  0.00  0.00    -0.214 NA
ATOM     14  N   UNL     1       5.687  -1.803   1.213  0.00  0.00    -0.375 N 
ATOM     15  H   UNL     1       4.583   0.473   0.210  0.00  0.00    +0.151 HD
ATOM     16  H   UNL     1       5.712  -1.171   1.948  0.00  0.00    +0.158 HD
ATOM     17  H   UNL     1       5.650  -2.967  -1.198  0.00  0.00    +0.158 HD
ATOM     18  H   UNL     1       6.210  -2.619   1.256  0.00  0.00    +0.158 HD
ENDROOT
BRANCH   1  20
ATOM     19  C   UNL     1       1.639   0.072   1.884  0.00  0.00    +0.141 A 
ATOM     20  C   UNL     1       1.980  -0.910   0.965  0.00  0.00    +0.037 A 
ATOM     21  C   UNL     1       1.603  -2.221   1.184  0.00  0.00    +0.026 A 
ATOM     22  C   UNL     1       0.886  -2.555   2.319  0.00  0.00    +0.020 A 
ATOM     23  C   UNL     1       0.544  -1.579   3.237  0.00  0.00    +0.034 A 
ATOM     24  C   UNL     1       0.924  -0.267   3.025  0.00  0.00    +0.061 A 
ATOM     25 BR   UNL     1       0.464   1.067   4.284  0.00  0.00    -0.046 Br
ATOM     26 BR   UNL     1       0.372  -4.351   2.615  0.00  0.00    -0.050 Br
BRANCH  19  28
ATOM     27  C   UNL     1       3.277   1.768   2.190  0.00  0.00    +0.277 C 
ATOM     28  O   UNL     1       2.009   1.362   1.671  0.00  0.00    -0.494 OA
ENDBRANCH  19  28
ENDBRANCH   1  20
TORSDOF 2
