REMARK  Name = ZINC40981450
REMARK  15 active torsions:
REMARK  status: ('A' for Active; 'I' for Inactive)
REMARK    1  A    between atoms: C_1  and  C_2
REMARK    2  A    between atoms: C_2  and  C_3
REMARK    3  A    between atoms: C_3  and  S_4
REMARK    4  A    between atoms: S_4  and  C_5
REMARK    5  A    between atoms: C_10  and  C_26
REMARK    6  A    between atoms: C_12  and  C_16
REMARK    7  A    between atoms: C_13  and  C_15
REMARK    8  A    between atoms: N_18  and  C_19
REMARK    9  A    between atoms: C_24  and  C_25
REMARK   10  A    between atoms: C_29  and  O_34
REMARK   11  A    between atoms: C_30  and  O_32
REMARK   12  A    between atoms: O_32  and  C_33
REMARK   13  A    between atoms: O_34  and  C_35
REMARK   14  A    between atoms: C_35  and  C_36
REMARK   15  A    between atoms: C_35  and  C_37
REMARK                            x       y       z     vdW  Elec       q    Type
REMARK                         _______ _______ _______ _____ _____    ______ ____
ROOT
ATOM      1  C   UNL     1       3.048  -0.748   4.758  0.00  0.00    +0.210 A 
ATOM      2  N   UNL     1       4.085  -0.527   5.579  0.00  0.00    -0.187 NA
ATOM      3  C   UNL     1       4.339  -1.610   6.263  0.00  0.00    +0.219 A 
ATOM      4  N   UNL     1       3.455  -2.565   5.882  0.00  0.00    -0.220 N 
ATOM      5  N   UNL     1       2.630  -1.985   4.920  0.00  0.00    -0.141 NA
ATOM      6  C   UNL     1       3.442  -3.919   6.430  0.00  0.00    +0.177 C 
ATOM      7  C   UNL     1       4.327  -3.975   7.646  0.00  0.00    +0.060 C 
ATOM      8  C   UNL     1       5.182  -2.996   7.976  0.00  0.00    +0.018 C 
ATOM      9  N   UNL     1       5.307  -1.851   7.228  0.00  0.00    -0.287 N 
ATOM     10  C   UNL     1       6.033  -3.157   9.209  0.00  0.00    +0.061 C 
ATOM     11  H   UNL     1       6.043  -1.235   7.368  0.00  0.00    +0.155 HD
ENDROOT
BRANCH   6  12
ATOM     12  C   UNL     1       3.951  -4.886   5.392  0.00  0.00    -0.015 A 
ATOM     13  C   UNL     1       5.187  -4.682   4.808  0.00  0.00    +0.010 A 
ATOM     14  C   UNL     1       5.658  -5.567   3.855  0.00  0.00    +0.050 A 
ATOM     15  C   UNL     1       4.891  -6.660   3.485  0.00  0.00    +0.162 A 
ATOM     16  C   UNL     1       3.647  -6.864   4.074  0.00  0.00    +0.162 A 
ATOM     17  C   UNL     1       3.183  -5.977   5.031  0.00  0.00    +0.055 A 
BRANCH  16  18
ATOM     18  O   UNL     1       2.891  -7.936   3.714  0.00  0.00    -0.491 OA
ATOM     19  C   UNL     1       1.588  -8.034   4.292  0.00  0.00    +0.277 C 
ENDBRANCH  16  18
BRANCH  15  20
ATOM     20  O   UNL     1       5.354  -7.530   2.548  0.00  0.00    -0.486 OA
BRANCH  20  21
ATOM     21  C   UNL     1       6.580  -7.192   1.896  0.00  0.00    +0.167 C 
ATOM     22  C   UNL     1       7.758  -7.645   2.760  0.00  0.00    +0.051 C 
ATOM     23  C   UNL     1       6.645  -7.891   0.537  0.00  0.00    +0.051 C 
ENDBRANCH  20  21
ENDBRANCH  15  20
ENDBRANCH   6  12
BRANCH   7  24
ATOM     24  C   UNL     1       4.254  -5.116   8.481  0.00  0.00    +0.248 C 
ATOM     25  O   UNL     1       3.359  -5.214   9.300  0.00  0.00    -0.270 OA
ATOM     26  N   UNL     1       5.176  -6.093   8.369  0.00  0.00    -0.281 N 
ATOM     27  H   UNL     1       5.842  -6.053   7.665  0.00  0.00    +0.155 HD
BRANCH  26  28
ATOM     28  C   UNL     1       5.171  -7.164   9.268  0.00  0.00    +0.037 A 
ATOM     29  C   UNL     1       3.969  -7.648   9.768  0.00  0.00    +0.023 A 
ATOM     30  C   UNL     1       3.968  -8.706  10.656  0.00  0.00    +0.002 A 
ATOM     31  C   UNL     1       5.162  -9.284  11.046  0.00  0.00    +0.000 A 
ATOM     32  C   UNL     1       6.361  -8.805  10.549  0.00  0.00    +0.005 A 
ATOM     33  C   UNL     1       6.368  -7.751   9.657  0.00  0.00    -0.029 A 
ATOM     34  C   UNL     1       7.674  -7.234   9.111  0.00  0.00    +0.045 C 
ENDBRANCH  26  28
ENDBRANCH   7  24
BRANCH   1  35
ATOM     35  S   UNL     1       2.353   0.431   3.648  0.00  0.00    -0.084 S 
BRANCH  35  36
ATOM     36  C   UNL     1       3.363   1.917   3.897  0.00  0.00    +0.077 C 
BRANCH  36  38
ATOM     37  C   UNL     1       3.711   4.288   3.191  0.00  0.00    +0.004 C 
ATOM     38  C   UNL     1       2.860   3.034   2.981  0.00  0.00    +0.008 C 
ENDBRANCH  36  38
ENDBRANCH  35  36
ENDBRANCH   1  35
TORSDOF 9
