REMARK  Name = ZINC59094939
REMARK  12 active torsions:
REMARK  status: ('A' for Active; 'I' for Inactive)
REMARK    1  A    between atoms: C_1  and  C_2
REMARK    2  A    between atoms: C_7  and  C_8
REMARK    3  A    between atoms: C_8  and  N_9
REMARK    4  A    between atoms: N_9  and  C_10
REMARK    5  A    between atoms: N_9  and  C_20
REMARK    6  A    between atoms: C_12  and  C_18
REMARK    7  A    between atoms: C_12  and  C_19
REMARK    8  A    between atoms: C_14  and  C_16
REMARK    9  A    between atoms: C_14  and  C_17
REMARK   10  A    between atoms: C_20  and  N_22
REMARK   11  A    between atoms: N_22  and  C_23
REMARK   12  A    between atoms: C_28  and  C_29
REMARK                            x       y       z     vdW  Elec       q    Type
REMARK                         _______ _______ _______ _____ _____    ______ ____
ROOT
ATOM      1  N   UNL     1      -1.650   0.033   2.773  0.00  0.00    -0.305 N 
ENDROOT
BRANCH   1   2
ATOM      2  C   UNL     1      -2.435  -0.988   3.478  0.00  0.00    +0.073 C 
ATOM      3  C   UNL     1      -3.753  -1.211   2.734  0.00  0.00    +0.009 C 
ATOM      4  C   UNL     1      -4.588  -2.263   3.463  0.00  0.00    -0.072 C 
ATOM      5  N   UNL     1      -4.789  -1.928   4.865  0.00  0.00    +0.386 N 
ATOM      6  C   UNL     1      -3.629  -1.498   5.630  0.00  0.00    -0.072 C 
ATOM      7  C   UNL     1      -2.758  -0.491   4.887  0.00  0.00    +0.009 C 
ATOM      8  C   UNL     1      -2.778  -2.687   6.085  0.00  0.00    -0.010 C 
ATOM      9  C   UNL     1      -4.149  -0.800   6.909  0.00  0.00    -0.010 C 
ATOM     10  C   UNL     1      -3.966  -3.648   3.285  0.00  0.00    -0.010 C 
ATOM     11  C   UNL     1      -5.978  -2.294   2.787  0.00  0.00    -0.010 C 
ATOM     12  H   UNL     1      -5.500  -1.195   4.921  0.00  0.00    -0.084 HD
ATOM     13  H   UNL     1      -5.201  -2.739   5.333  0.00  0.00    -0.084 HD
ENDBRANCH   1   2
BRANCH   1  14
ATOM     14  C   UNL     1      -2.179   1.252   2.545  0.00  0.00    +0.138 C 
ATOM     15  S   UNL     1      -3.712   1.654   3.192  0.00  0.00    -0.018 S 
BRANCH  14  16
ATOM     16  N   UNL     1      -1.500   2.154   1.809  0.00  0.00    -0.296 N 
ATOM     17  H   UNL     1      -1.794   2.366   0.909  0.00  0.00    +0.154 HD
BRANCH  16  18
ATOM     18  C   UNL     1      -0.371   2.785   2.342  0.00  0.00    +0.037 A 
ATOM     19  C   UNL     1       0.094   2.431   3.602  0.00  0.00    +0.043 A 
ATOM     20  C   UNL     1       1.210   3.056   4.126  0.00  0.00    +0.043 A 
ATOM     21  C   UNL     1       1.862   4.035   3.396  0.00  0.00    +0.020 A 
ATOM     22  C   UNL     1       1.400   4.390   2.143  0.00  0.00    +0.006 A 
ATOM     23  C   UNL     1       0.289   3.764   1.611  0.00  0.00    -0.029 A 
ATOM     24  C   UNL     1      -0.209   4.146   0.241  0.00  0.00    +0.045 C 
ATOM     25 CL   UNL     1       1.793   2.614   5.700  0.00  0.00    -0.083 Cl
ENDBRANCH  16  18
ENDBRANCH  14  16
ENDBRANCH   1  14
BRANCH   1  26
ATOM     26  C   UNL     1      -0.292  -0.273   2.316  0.00  0.00    +0.142 C 
BRANCH  26  33
ATOM     27  C   UNL     1       2.118  -1.200   1.020  0.00  0.00    +0.044 C 
ATOM     28  C   UNL     1       0.818  -1.167   0.259  0.00  0.00    -0.046 A 
ATOM     29  C   UNL     1       0.777  -1.586  -1.058  0.00  0.00    +0.003 A 
ATOM     30  C   UNL     1      -0.415  -1.556  -1.756  0.00  0.00    +0.000 A 
ATOM     31  C   UNL     1      -1.567  -1.108  -1.138  0.00  0.00    +0.000 A 
ATOM     32  C   UNL     1      -1.527  -0.690   0.179  0.00  0.00    +0.005 A 
ATOM     33  C   UNL     1      -0.335  -0.724   0.879  0.00  0.00    -0.027 A 
ENDBRANCH  26  33
ENDBRANCH   1  26
TORSDOF 6
