REMARK  Name = ZINC32542140
REMARK  12 active torsions:
REMARK  status: ('A' for Active; 'I' for Inactive)
REMARK    1  A    between atoms: C_1  and  C_2
REMARK    2  A    between atoms: C_2  and  C_4
REMARK    3  A    between atoms: C_2  and  N_14
REMARK    4  A    between atoms: C_7  and  S_10
REMARK    5  A    between atoms: S_10  and  N_13
REMARK    6  A    between atoms: N_14  and  C_15
REMARK    7  A    between atoms: N_14  and  C_16
REMARK    8  A    between atoms: C_16  and  C_17
REMARK    9  A    between atoms: N_19  and  C_20
REMARK   10  A    between atoms: C_20  and  C_21
REMARK   11  A    between atoms: C_21  and  C_22
REMARK   12  A    between atoms: C_22  and  C_23
REMARK                            x       y       z     vdW  Elec       q    Type
REMARK                         _______ _______ _______ _____ _____    ______ ____
ROOT
ATOM      1  N   UNL     1      -0.753   1.949  -1.191  0.00  0.00    +0.388 N 
ATOM      2  C   UNL     1      -2.193   1.691  -1.064  0.00  0.00    -0.095 C 
ATOM      3  H   UNL     1      -0.385   1.389  -2.063  0.00  0.00    -0.081 HD
ENDROOT
BRANCH   1   5
ATOM      4  C   UNL     1      -0.677   2.038   1.256  0.00  0.00    -0.008 C 
ATOM      5  C   UNL     1      -0.026   1.469  -0.007  0.00  0.00    -0.041 C 
BRANCH   5   6
ATOM      6  C   UNL     1      -0.075  -0.036   0.036  0.00  0.00    -0.061 A 
ATOM      7  C   UNL     1      -0.055  -0.694   1.252  0.00  0.00    +0.004 A 
ATOM      8  C   UNL     1      -0.105  -2.074   1.292  0.00  0.00    +0.029 A 
ATOM      9  C   UNL     1      -0.164  -2.798   0.116  0.00  0.00    +0.105 A 
ATOM     10  C   UNL     1      -0.178  -2.141  -1.100  0.00  0.00    +0.029 A 
ATOM     11  C   UNL     1      -0.134  -0.760  -1.140  0.00  0.00    +0.004 A 
BRANCH   9  12
ATOM     12  S   UNL     1      -0.220  -4.559   0.167  0.00  0.00    +0.056 S 
ATOM     13  O   UNL     1      -0.745  -4.912   1.440  0.00  0.00    -0.153 OA
ATOM     14  O   UNL     1      -0.821  -4.981  -1.049  0.00  0.00    -0.153 OA
BRANCH  12  15
ATOM     15  N   UNL     1       1.345  -5.100   0.135  0.00  0.00    -0.204 NA
ATOM     16  H   UNL     1       1.353  -6.199   0.165  0.00  0.00    +0.144 HD
ATOM     17  H   UNL     1       1.887  -4.704   1.006  0.00  0.00    +0.144 HD
ENDBRANCH  12  15
ENDBRANCH   9  12
ENDBRANCH   5   6
ENDBRANCH   1   5
BRANCH   1  18
ATOM     18  C   UNL     1      -0.492   3.375  -1.427  0.00  0.00    +0.019 C 
BRANCH  18  19
ATOM     19  C   UNL     1      -1.046   3.772  -2.771  0.00  0.00    +0.196 C 
ATOM     20  O   UNL     1      -1.604   2.947  -3.464  0.00  0.00    -0.278 OA
ATOM     21  N   UNL     1      -0.922   5.042  -3.202  0.00  0.00    -0.317 N 
ATOM     22  H   UNL     1      -0.416   5.790  -2.574  0.00  0.00    +0.149 HD
BRANCH  21  23
ATOM     23  C   UNL     1      -1.462   5.428  -4.509  0.00  0.00    +0.104 C 
BRANCH  23  24
ATOM     24  C   UNL     1      -1.190   6.913  -4.754  0.00  0.00    +0.023 C 
BRANCH  24  25
ATOM     25  C   UNL     1      -1.753   7.316  -6.119  0.00  0.00    +0.036 C 
BRANCH  25  26
ATOM     26  C   UNL     1      -1.485   8.779  -6.361  0.00  0.00    -0.047 A 
ATOM     27  C   UNL     1      -2.411   9.726  -5.964  0.00  0.00    +0.003 A 
ATOM     28  C   UNL     1      -2.163  11.069  -6.181  0.00  0.00    +0.000 A 
ATOM     29  C   UNL     1      -0.994  11.463  -6.805  0.00  0.00    +0.000 A 
ATOM     30  C   UNL     1      -0.071  10.516  -7.207  0.00  0.00    +0.000 A 
ATOM     31  C   UNL     1      -0.317   9.174  -6.985  0.00  0.00    +0.003 A 
ENDBRANCH  25  26
ENDBRANCH  24  25
ENDBRANCH  23  24
ENDBRANCH  21  23
ENDBRANCH  18  19
ENDBRANCH   1  18
TORSDOF 10
