REMARK  Name = ZINC64354254
REMARK  8 active torsions:
REMARK  status: ('A' for Active; 'I' for Inactive)
REMARK    1  A    between atoms: C_1  and  C_2
REMARK    2  A    between atoms: C_4  and  C_9
REMARK    3  A    between atoms: C_5  and  C_8
REMARK    4  A    between atoms: C_9  and  O_10
REMARK    5  A    between atoms: O_10  and  C_11
REMARK    6  A    between atoms: C_16  and  C_17
REMARK    7  A    between atoms: N_19  and  N_20
REMARK    8  A    between atoms: C_21  and  C_23
REMARK                            x       y       z     vdW  Elec       q    Type
REMARK                         _______ _______ _______ _____ _____    ______ ____
ROOT
ATOM      1  C   UNL     1      -5.843  -3.066  -0.063  0.00  0.00    +0.264 C 
ATOM      2  O   UNL     1      -4.974  -2.935   0.776  0.00  0.00    -0.269 OA
ATOM      3  N   UNL     1      -6.837  -3.957   0.129  0.00  0.00    -0.230 N 
ATOM      4  H   UNL     1      -7.530  -4.062  -0.541  0.00  0.00    +0.173 HD
ENDROOT
BRANCH   1  10
ATOM      5  C   UNL     1      -4.723  -1.406  -1.549  0.00  0.00    +0.133 A 
ATOM      6  C   UNL     1      -4.700  -0.649  -2.711  0.00  0.00    +0.046 A 
ATOM      7  C   UNL     1      -5.747  -0.725  -3.607  0.00  0.00    +0.004 A 
ATOM      8  C   UNL     1      -6.827  -1.556  -3.355  0.00  0.00    +0.001 A 
ATOM      9  C   UNL     1      -6.866  -2.315  -2.206  0.00  0.00    +0.017 A 
ATOM     10  C   UNL     1      -5.811  -2.252  -1.293  0.00  0.00    +0.080 A 
BRANCH   5  11
ATOM     11  O   UNL     1      -3.695  -1.332  -0.667  0.00  0.00    -0.487 OA
BRANCH  11  12
ATOM     12  C   UNL     1      -2.567  -0.543  -1.051  0.00  0.00    +0.264 C 
BRANCH  12  15
ATOM     13  C   UNL     1      -0.199  -2.709  -0.669  0.00  0.00    +0.045 C 
ATOM     14  C   UNL     1      -0.875  -1.966   0.485  0.00  0.00    +0.176 C 
ATOM     15  C   UNL     1      -1.485  -0.674  -0.010  0.00  0.00    +0.019 C 
ATOM     16  C   UNL     1      -0.901   0.316   0.632  0.00  0.00    +0.041 C 
ATOM     17  N   UNL     1       0.048  -0.156   1.520  0.00  0.00    -0.269 N 
ATOM     18  O   UNL     1       0.099  -1.573   1.463  0.00  0.00    -0.267 OA
ATOM     19  C   UNL     1      -1.225   1.773   0.427  0.00  0.00    +0.065 C 
ATOM     20  H   UNL     1       0.598   0.398   2.096  0.00  0.00    +0.194 HD
ENDBRANCH  12  15
ENDBRANCH  11  12
ENDBRANCH   5  11
ENDBRANCH   1  10
BRANCH   3  21
ATOM     21  N   UNL     1      -6.868  -4.730   1.296  0.00  0.00    -0.230 N 
ATOM     22  C   UNL     1      -7.861  -5.620   1.489  0.00  0.00    +0.258 C 
ATOM     23  O   UNL     1      -8.731  -5.752   0.648  0.00  0.00    -0.269 OA
ATOM     24  H   UNL     1      -6.174  -4.625   1.967  0.00  0.00    +0.173 HD
BRANCH  22  25
ATOM     25  C   UNL     1      -7.894  -6.430   2.711  0.00  0.00    +0.044 C 
ATOM     26  C   UNL     1      -8.830  -7.381   3.055  0.00  0.00    +0.008 A 
ATOM     27  C   UNL     1      -9.991  -7.869   2.404  0.00  0.00    +0.010 A 
ATOM     28  C   UNL     1     -10.744  -8.829   2.985  0.00  0.00    +0.001 A 
ATOM     29  C   UNL     1     -10.425  -9.383   4.236  0.00  0.00    +0.002 A 
ATOM     30  C   UNL     1      -9.341  -8.988   4.938  0.00  0.00    +0.026 A 
ATOM     31  C   UNL     1      -8.466  -7.947   4.377  0.00  0.00    +0.043 A 
ATOM     32  N   UNL     1      -7.378  -7.388   4.828  0.00  0.00    -0.380 N 
ATOM     33  C   UNL     1      -6.903  -6.400   3.854  0.00  0.00    +0.154 C 
ATOM     34  H   UNL     1      -6.949  -7.595   5.673  0.00  0.00    +0.160 HD
ENDBRANCH  22  25
ENDBRANCH   3  21
TORSDOF 6
