REMARK  Name = ZINC57663609
REMARK  11 active torsions:
REMARK  status: ('A' for Active; 'I' for Inactive)
REMARK    1  A    between atoms: C_1  and  C_2
REMARK    2  A    between atoms: C_2  and  N_3
REMARK    3  A    between atoms: N_3  and  C_4
REMARK    4  A    between atoms: N_3  and  C_12
REMARK    5  A    between atoms: C_4  and  C_5
REMARK    6  A    between atoms: C_5  and  C_6
REMARK    7  A    between atoms: C_12  and  C_13
REMARK    8  A    between atoms: C_13  and  C_14
REMARK    9  A    between atoms: C_14  and  C_16
REMARK   10  A    between atoms: C_14  and  O_24
REMARK   11  A    between atoms: C_20  and  N_22
REMARK                            x       y       z     vdW  Elec       q    Type
REMARK                         _______ _______ _______ _____ _____    ______ ____
ROOT
ATOM      1  C   UNL     1       2.573  -0.440  -2.687  0.00  0.00    +0.017 C 
ENDROOT
BRANCH   1   2
ATOM      2  C   UNL     1       2.019  -0.176  -1.285  0.00  0.00    -0.076 C 
BRANCH   2   3
ATOM      3  N   UNL     1       0.580  -0.468  -1.264  0.00  0.00    +0.380 N 
ATOM      4  H   UNL     1       0.120   0.055  -1.995  0.00  0.00    -0.082 HD
BRANCH   3   6
ATOM      5  C   UNL     1       0.112   1.434   0.206  0.00  0.00    -0.017 C 
ATOM      6  C   UNL     1       0.021  -0.084   0.039  0.00  0.00    -0.082 C 
ENDBRANCH   3   6
BRANCH   3   7
ATOM      7  C   UNL     1       0.368  -1.905  -1.484  0.00  0.00    -0.074 C 
BRANCH   7   8
ATOM      8  C   UNL     1      -1.131  -2.191  -1.587  0.00  0.00    +0.017 C 
BRANCH   8   9
ATOM      9  C   UNL     1      -1.348  -3.665  -1.812  0.00  0.00    -0.046 A 
ATOM     10  C   UNL     1      -1.396  -4.187  -3.095  0.00  0.00    +0.023 A 
ATOM     11  C   UNL     1      -1.597  -5.544  -3.263  0.00  0.00    +0.111 A 
ATOM     12  N   UNL     1      -1.741  -6.339  -2.220  0.00  0.00    -0.263 NA
ATOM     13  C   UNL     1      -1.701  -5.877  -0.986  0.00  0.00    +0.111 A 
ATOM     14  C   UNL     1      -1.498  -4.532  -0.740  0.00  0.00    +0.023 A 
ENDBRANCH   8   9
ENDBRANCH   7   8
ENDBRANCH   3   7
ENDBRANCH   2   3
ENDBRANCH   1   2
BRANCH   1  15
ATOM     15  C   UNL     1       4.039  -0.007  -2.745  0.00  0.00    +0.143 C 
BRANCH  15  16
ATOM     16  C   UNL     1       4.620  -0.378  -4.085  0.00  0.00    -0.017 A 
ATOM     17  C   UNL     1       4.468   0.474  -5.164  0.00  0.00    +0.009 A 
ATOM     18  C   UNL     1       4.998   0.137  -6.396  0.00  0.00    +0.040 A 
ATOM     19  C   UNL     1       5.683  -1.054  -6.553  0.00  0.00    +0.144 A 
ATOM     20  C   UNL     1       5.837  -1.913  -5.470  0.00  0.00    +0.061 A 
ATOM     21  C   UNL     1       5.307  -1.567  -4.234  0.00  0.00    +0.031 A 
ATOM     22  F   UNL     1       6.201  -1.383  -7.756  0.00  0.00    -0.204 F 
BRANCH  20  23
ATOM     23  N   UNL     1       6.528  -3.118  -5.624  0.00  0.00    -0.356 N 
ATOM     24  H   UNL     1       6.902  -3.356  -6.487  0.00  0.00    +0.142 HD
ATOM     25  H   UNL     1       6.635  -3.716  -4.868  0.00  0.00    +0.142 HD
ENDBRANCH  20  23
ENDBRANCH  15  16
BRANCH  15  26
ATOM     26  O   UNL     1       4.126   1.408  -2.564  0.00  0.00    -0.387 OA
ATOM     27  H   UNL     1       3.651   1.920  -3.233  0.00  0.00    +0.210 HD
ENDBRANCH  15  26
ENDBRANCH   1  15
TORSDOF 10
