REMARK  Name = ZINC39316181
REMARK  6 active torsions:
REMARK  status: ('A' for Active; 'I' for Inactive)
REMARK    1  A    between atoms: C_1  and  C_2
REMARK    2  A    between atoms: C_5  and  C_34
REMARK    3  A    between atoms: N_6  and  C_7
REMARK    4  A    between atoms: C_12  and  C_14
REMARK    5  A    between atoms: C_17  and  N_20
REMARK    6  A    between atoms: C_30  and  C_31
REMARK                            x       y       z     vdW  Elec       q    Type
REMARK                         _______ _______ _______ _____ _____    ______ ____
ROOT
ATOM      1  C   UNL     1       2.276   0.143   3.343  0.00  0.00    +0.170 C 
ATOM      2  C   UNL     1       3.590  -0.257   3.990  0.00  0.00    +0.050 C 
ATOM      3  C   UNL     1       3.684   0.560   5.063  0.00  0.00    +0.151 C 
ATOM      4  N   UNL     1       2.601   1.383   5.126  0.00  0.00    -0.136 NA
ATOM      5  N   UNL     1       1.780   1.219   4.216  0.00  0.00    -0.177 NA
ENDROOT
BRANCH   3   6
ATOM      6  N   UNL     1       4.717   0.561   5.956  0.00  0.00    -0.338 N 
ATOM      7  C   UNL     1       4.782   1.491   6.888  0.00  0.00    +0.065 A 
ATOM      8  C   UNL     1       4.221   2.846   6.687  0.00  0.00    +0.044 A 
ATOM      9  C   UNL     1       3.833   3.288   5.426  0.00  0.00    +0.052 A 
ATOM     10  C   UNL     1       3.318   4.562   5.280  0.00  0.00    +0.124 A 
ATOM     11  C   UNL     1       3.193   5.392   6.385  0.00  0.00    +0.042 A 
ATOM     12  C   UNL     1       3.575   4.961   7.638  0.00  0.00    +0.050 A 
ATOM     13  C   UNL     1       4.091   3.681   7.807  0.00  0.00    +0.137 A 
ATOM     14  O   UNL     1       4.455   3.249   9.032  0.00  0.00    -0.462 OA
ATOM     15  C   UNL     1       5.213   2.168   9.204  0.00  0.00    +0.208 A 
ATOM     16  C   UNL     1       5.416   1.242   8.207  0.00  0.00    +0.073 A 
ATOM     17  F   UNL     1       2.937   5.000   4.060  0.00  0.00    -0.205 F 
ATOM     18  H   UNL     1       5.403  -0.123   5.904  0.00  0.00    +0.167 HD
BRANCH  16  19
ATOM     19  C   UNL     1       6.236   0.053   8.438  0.00  0.00    +0.263 C 
ATOM     20  O   UNL     1       6.407  -0.750   7.544  0.00  0.00    -0.296 OA
ENDBRANCH  16  19
ENDBRANCH   3   6
BRANCH   1  25
ATOM     21  C   UNL     1      -0.070  -0.631   2.723  0.00  0.00    +0.126 C 
ATOM     22  C   UNL     1      -1.190  -1.282   3.469  0.00  0.00    +0.006 C 
ATOM     23  C   UNL     1      -0.979  -1.770   4.676  0.00  0.00    +0.039 C 
ATOM     24  S   UNL     1       0.743  -1.468   5.030  0.00  0.00    -0.125 S 
ATOM     25  C   UNL     1       1.300  -1.034   3.329  0.00  0.00    +0.108 C 
BRANCH  21  31
ATOM     26  C   UNL     1      -0.405   1.284   0.307  0.00  0.00    +0.063 C 
ATOM     27  C   UNL     1      -0.265  -0.215   0.249  0.00  0.00    +0.017 A 
ATOM     28  C   UNL     1      -0.259  -0.966  -0.872  0.00  0.00    +0.023 A 
ATOM     29  C   UNL     1      -0.107  -2.310  -0.478  0.00  0.00    +0.023 A 
ATOM     30  C   UNL     1      -0.027  -2.330   0.868  0.00  0.00    +0.017 A 
ATOM     31  N   UNL     1      -0.119  -1.047   1.319  0.00  0.00    -0.340 N 
ATOM     32  C   UNL     1       0.139  -3.558   1.725  0.00  0.00    +0.063 C 
ENDBRANCH  21  31
ENDBRANCH   1  25
TORSDOF 4
