REMARK  Name = ZINC38733765
REMARK  11 active torsions:
REMARK  status: ('A' for Active; 'I' for Inactive)
REMARK    1  A    between atoms: C_1  and  C_2
REMARK    2  A    between atoms: C_7  and  N_8
REMARK    3  A    between atoms: N_10  and  N_22
REMARK    4  A    between atoms: C_11  and  C_14
REMARK    5  A    between atoms: C_17  and  O_20
REMARK    6  A    between atoms: O_20  and  C_21
REMARK    7  A    between atoms: C_23  and  C_25
REMARK    8  A    between atoms: C_25  and  C_27
REMARK    9  A    between atoms: C_25  and  O_28
REMARK   10  A    between atoms: O_28  and  C_29
REMARK   11  A    between atoms: C_34  and  C_35
REMARK                            x       y       z     vdW  Elec       q    Type
REMARK                         _______ _______ _______ _____ _____    ______ ____
ROOT
ATOM      1  N   UNL     1      -0.094  -0.430   2.170  0.00  0.00    -0.294 N 
ATOM      2  C   UNL     1      -0.380  -0.990   3.411  0.00  0.00    +0.161 A 
ATOM      3  N   UNL     1      -0.406  -0.415   4.601  0.00  0.00    -0.238 N 
ATOM      4  C   UNL     1      -0.704  -1.113   5.696  0.00  0.00    +0.078 A 
ATOM      5  C   UNL     1      -0.988  -2.446   5.582  0.00  0.00    +0.076 A 
ATOM      6  S   UNL     1      -0.818  -2.675   3.817  0.00  0.00    -0.060 S 
ATOM      7  H   UNL     1       0.603   0.239   2.089  0.00  0.00    +0.154 HD
ENDROOT
BRANCH   1  14
ATOM      8  C   UNL     1       0.703   0.597  -0.361  0.00  0.00    +0.045 C 
ATOM      9  C   UNL     1      -0.456  -0.356  -0.215  0.00  0.00    -0.029 A 
ATOM     10  C   UNL     1      -1.163  -0.760  -1.331  0.00  0.00    +0.005 A 
ATOM     11  C   UNL     1      -2.226  -1.634  -1.198  0.00  0.00    +0.000 A 
ATOM     12  C   UNL     1      -2.585  -2.107   0.051  0.00  0.00    +0.002 A 
ATOM     13  C   UNL     1      -1.883  -1.707   1.171  0.00  0.00    +0.023 A 
ATOM     14  C   UNL     1      -0.810  -0.833   1.040  0.00  0.00    +0.036 A 
ENDBRANCH   1  14
BRANCH   4  15
ATOM     15  C   UNL     1      -0.728  -0.452   7.023  0.00  0.00    +0.001 A 
ATOM     16  C   UNL     1      -0.991   0.913   7.119  0.00  0.00    +0.013 A 
ATOM     17  C   UNL     1      -1.012   1.525   8.355  0.00  0.00    +0.046 A 
ATOM     18  C   UNL     1      -0.772   0.783   9.502  0.00  0.00    +0.120 A 
ATOM     19  C   UNL     1      -0.509  -0.577   9.411  0.00  0.00    +0.046 A 
ATOM     20  C   UNL     1      -0.492  -1.196   8.178  0.00  0.00    +0.013 A 
BRANCH  18  21
ATOM     21  O   UNL     1      -0.793   1.389  10.719  0.00  0.00    -0.495 OA
ATOM     22  C   UNL     1      -0.536   0.566  11.858  0.00  0.00    +0.277 C 
ENDBRANCH  18  21
ENDBRANCH   4  15
BRANCH   3  23
ATOM     23  N   UNL     1      -0.114   0.950   4.713  0.00  0.00    -0.218 N 
ATOM     24  C   UNL     1      -0.543   1.810   3.768  0.00  0.00    +0.272 C 
ATOM     25  O   UNL     1      -1.205   1.406   2.835  0.00  0.00    -0.270 OA
ATOM     26  H   UNL     1       0.396   1.277   5.471  0.00  0.00    +0.176 HD
BRANCH  24  27
ATOM     27  C   UNL     1      -0.199   3.274   3.870  0.00  0.00    +0.257 C 
ATOM     28  C   UNL     1      -0.872   3.871   5.107  0.00  0.00    +0.062 C 
BRANCH  27  29
ATOM     29  O   UNL     1      -0.662   3.955   2.701  0.00  0.00    -0.480 OA
BRANCH  29  30
ATOM     30  C   UNL     1      -0.008   5.093   2.351  0.00  0.00    +0.125 A 
ATOM     31  C   UNL     1       0.966   5.620   3.187  0.00  0.00    +0.047 A 
ATOM     32  C   UNL     1       1.630   6.777   2.829  0.00  0.00    +0.023 A 
ATOM     33  C   UNL     1       1.323   7.412   1.638  0.00  0.00    +0.041 A 
ATOM     34  C   UNL     1       0.352   6.888   0.803  0.00  0.00    +0.027 A 
ATOM     35  C   UNL     1      -0.309   5.727   1.155  0.00  0.00    -0.007 A 
ATOM     36  C   UNL     1      -1.362   5.153   0.242  0.00  0.00    +0.047 C 
ATOM     37 CL   UNL     1       2.158   8.867   1.190  0.00  0.00    -0.084 Cl
ENDBRANCH  29  30
ENDBRANCH  27  29
ENDBRANCH  24  27
ENDBRANCH   3  23
TORSDOF 7
