REMARK  Name = ZINC39775375
REMARK  9 active torsions:
REMARK  status: ('A' for Active; 'I' for Inactive)
REMARK    1  A    between atoms: C_1  and  C_2
REMARK    2  A    between atoms: C_9  and  O_20
REMARK    3  A    between atoms: C_12  and  C_14
REMARK    4  A    between atoms: C_23  and  O_43
REMARK    5  A    between atoms: C_24  and  C_31
REMARK    6  A    between atoms: C_27  and  O_30
REMARK    7  A    between atoms: N_32  and  N_33
REMARK    8  A    between atoms: C_34  and  C_36
REMARK    9  A    between atoms: C_36  and  C_37
REMARK                            x       y       z     vdW  Elec       q    Type
REMARK                         _______ _______ _______ _____ _____    ______ ____
ROOT
ATOM      1  C   UNL     1       0.355   1.642   0.019  0.00  0.00    +0.014 C 
ATOM      2  C   UNL     1       0.188   0.125   0.062  0.00  0.00    +0.004 C 
ATOM      3  C   UNL     1      -1.260  -0.248   0.281  0.00  0.00    +0.010 C 
ATOM      4  C   UNL     1      -1.675   0.257   1.677  0.00  0.00    +0.005 C 
ATOM      5  C   UNL     1      -0.827  -0.379   2.767  0.00  0.00    +0.009 C 
ATOM      6  C   UNL     1       0.673  -0.164   2.543  0.00  0.00    +0.025 C 
ATOM      7  C   UNL     1       1.051  -0.551   1.147  0.00  0.00    +0.075 C 
ATOM      8  C   UNL     1       2.467  -0.207   0.660  0.00  0.00    +0.036 C 
ATOM      9  C   UNL     1       2.357  -0.455  -0.872  0.00  0.00    +0.011 C 
ATOM     10  C   UNL     1       0.843  -0.438  -1.212  0.00  0.00    +0.027 C 
ATOM     11  C   UNL     1       1.064   1.238   2.978  0.00  0.00    +0.009 C 
ATOM     12  C   UNL     1       0.923   1.358   4.499  0.00  0.00    +0.036 C 
ATOM     13  C   UNL     1      -0.018   0.295   5.059  0.00  0.00    +0.079 C 
ATOM     14  C   UNL     1      -1.236   0.087   4.164  0.00  0.00    +0.039 C 
ATOM     15  C   UNL     1      -2.118  -1.010   4.782  0.00  0.00    +0.018 C 
ATOM     16  C   UNL     1      -2.576  -0.616   6.180  0.00  0.00    +0.032 C 
ATOM     17  C   UNL     1      -1.386  -0.314   7.085  0.00  0.00    +0.117 C 
ATOM     18  C   UNL     1      -0.469   0.730   6.459  0.00  0.00    +0.067 C 
ENDROOT
BRANCH  10  19
ATOM     19  C   UNL     1       0.576   0.482  -2.375  0.00  0.00    -0.022 C 
ATOM     20  C   UNL     1       1.446   1.309  -2.949  0.00  0.00    +0.094 C 
ATOM     21  C   UNL     1       0.780   2.020  -4.045  0.00  0.00    +0.332 C 
ATOM     22  O   UNL     1       1.306   2.846  -4.764  0.00  0.00    -0.246 OA
ATOM     23  O   UNL     1      -0.502   1.620  -4.134  0.00  0.00    -0.457 OA
ATOM     24  C   UNL     1      -0.730   0.637  -3.119  0.00  0.00    +0.264 C 
ENDBRANCH  10  19
BRANCH   7  25
ATOM     25  O   UNL     1       0.896  -1.988   1.023  0.00  0.00    -0.388 OA
ATOM     26  H   UNL     1       1.407  -2.496   1.669  0.00  0.00    +0.210 HD
ENDBRANCH   7  25
BRANCH  17  27
ATOM     27  O   UNL     1      -0.661  -1.516   7.354  0.00  0.00    -0.392 OA
ATOM     28  H   UNL     1      -1.184  -2.200   7.795  0.00  0.00    +0.210 HD
ENDBRANCH  17  27
BRANCH  14  29
ATOM     29  C   UNL     1      -2.040   1.360   4.087  0.00  0.00    +0.113 C 
ATOM     30  N   UNL     1      -3.236   1.390   4.542  0.00  0.00    -0.192 NA
BRANCH  30  31
ATOM     31  N   UNL     1      -3.983   2.573   4.470  0.00  0.00    -0.207 N 
ATOM     32  C   UNL     1      -5.242   2.604   4.949  0.00  0.00    +0.237 C 
ATOM     33  O   UNL     1      -5.729   1.608   5.441  0.00  0.00    -0.274 OA
ATOM     34  H   UNL     1      -3.594   3.369   4.077  0.00  0.00    +0.177 HD
BRANCH  32  35
ATOM     35  C   UNL     1      -6.046   3.877   4.872  0.00  0.00    +0.132 C 
BRANCH  35  36
ATOM     36  C   UNL     1      -7.410   3.646   5.471  0.00  0.00    -0.039 A 
ATOM     37  C   UNL     1      -8.450   3.208   4.673  0.00  0.00    +0.004 A 
ATOM     38  C   UNL     1      -9.701   2.997   5.222  0.00  0.00    +0.000 A 
ATOM     39  C   UNL     1      -9.911   3.224   6.570  0.00  0.00    +0.000 A 
ATOM     40  C   UNL     1      -8.871   3.661   7.368  0.00  0.00    +0.000 A 
ATOM     41  C   UNL     1      -7.619   3.868   6.819  0.00  0.00    +0.004 A 
ENDBRANCH  35  36
ENDBRANCH  32  35
ENDBRANCH  30  31
ENDBRANCH  14  29
BRANCH  13  42
ATOM     42  O   UNL     1       0.695  -0.942   5.202  0.00  0.00    -0.388 OA
ATOM     43  H   UNL     1       1.456  -0.890   5.797  0.00  0.00    +0.210 HD
ENDBRANCH  13  42
TORSDOF 8
