REMARK  Name = ZINC65944383
REMARK  4 active torsions:
REMARK  status: ('A' for Active; 'I' for Inactive)
REMARK    1  A    between atoms: C_3  and  C_6
REMARK    2  A    between atoms: C_6  and  N_7
REMARK    3  A    between atoms: N_12  and  C_15
REMARK    4  A    between atoms: C_15  and  N_16
REMARK                            x       y       z     vdW  Elec       q    Type
REMARK                         _______ _______ _______ _____ _____    ______ ____
ROOT
ATOM      1  N   UNL     1       4.234   2.004   1.353  0.00  0.00    -0.213 N 
ATOM      2  C   UNL     1       4.111   3.120   2.103  0.00  0.00    +0.310 C 
ATOM      3  O   UNL     1       3.598   4.171   1.778  0.00  0.00    -0.264 OA
ATOM      4  C   UNL     1       4.742   2.787   3.422  0.00  0.00    +0.311 C 
ATOM      5  O   UNL     1       4.848   3.511   4.389  0.00  0.00    -0.264 OA
ATOM      6  N   UNL     1       5.167   1.511   3.304  0.00  0.00    -0.204 N 
ATOM      7  C   UNL     1       4.855   1.060   2.079  0.00  0.00    +0.319 C 
ATOM      8  O   UNL     1       5.106  -0.059   1.676  0.00  0.00    -0.251 OA
ENDROOT
BRANCH   1   9
ATOM      9  C   UNL     1       3.761   1.845  -0.024  0.00  0.00    +0.160 C 
BRANCH   9  12
ATOM     10  C   UNL     1      -0.016   1.351   0.009  0.00  0.00    +0.008 A 
ATOM     11  C   UNL     1       1.183   2.038   0.002  0.00  0.00    +0.013 A 
ATOM     12  C   UNL     1       2.343   1.336  -0.013  0.00  0.00    +0.008 A 
ATOM     13  S   UNL     1       1.754  -0.349  -0.017  0.00  0.00    -0.100 S 
ATOM     14  C   UNL     1       0.002  -0.004   0.002  0.00  0.00    +0.045 A 
ENDBRANCH   9  12
ENDBRANCH   1   9
BRANCH   6  15
ATOM     15  C   UNL     1       5.853   0.742   4.346  0.00  0.00    +0.205 C 
BRANCH  15  16
ATOM     16  N   UNL     1       4.860   0.034   5.165  0.00  0.00    -0.283 NA
ATOM     17  C   UNL     1       4.150   0.945   6.014  0.00  0.00    +0.089 C 
ATOM     18  C   UNL     1       3.373   0.310   7.125  0.00  0.00    +0.004 C 
ATOM     19  C   UNL     1       2.614  -0.938   6.723  0.00  0.00    +0.008 C 
ATOM     20  C   UNL     1       3.434  -2.213   6.806  0.00  0.00    -0.009 C 
ATOM     21  C   UNL     1       4.147  -2.319   8.156  0.00  0.00    +0.007 C 
ATOM     22  C   UNL     1       5.041  -1.088   8.314  0.00  0.00    -0.009 C 
ATOM     23  C   UNL     1       4.143   0.148   8.414  0.00  0.00    +0.008 C 
ATOM     24  C   UNL     1       6.008  -0.948   7.159  0.00  0.00    +0.022 C 
ATOM     25  C   UNL     1       5.438  -1.134   5.783  0.00  0.00    +0.059 C 
ATOM     26  C   UNL     1       4.472  -2.312   5.694  0.00  0.00    +0.022 C 
ENDBRANCH  15  16
ENDBRANCH   6  15
TORSDOF 4
