REMARK  Name = ZINC41678353
REMARK  9 active torsions:
REMARK  status: ('A' for Active; 'I' for Inactive)
REMARK    1  A    between atoms: C_1  and  C_2
REMARK    2  A    between atoms: C_2  and  C_3
REMARK    3  A    between atoms: C_2  and  N_4
REMARK    4  A    between atoms: N_4  and  C_5
REMARK    5  A    between atoms: N_4  and  C_6
REMARK    6  A    between atoms: C_6  and  C_7
REMARK    7  A    between atoms: C_7  and  C_8
REMARK    8  A    between atoms: C_8  and  C_9
REMARK    9  A    between atoms: C_9  and  N_10
REMARK                            x       y       z     vdW  Elec       q    Type
REMARK                         _______ _______ _______ _____ _____    ______ ____
ROOT
ATOM      1  N   UNL     1       2.464  -5.964   3.509  0.00  0.00    -0.312 N 
ATOM      2  C   UNL     1       1.564  -6.802   4.149  0.00  0.00    +0.070 A 
ATOM      3  C   UNL     1       0.446  -6.587   4.940  0.00  0.00    +0.029 A 
ATOM      4  C   UNL     1      -0.257  -7.662   5.442  0.00  0.00    +0.017 A 
ATOM      5  C   UNL     1       0.148  -8.960   5.161  0.00  0.00    +0.020 A 
ATOM      6  C   UNL     1       1.257  -9.191   4.377  0.00  0.00    +0.045 A 
ATOM      7  C   UNL     1       1.978  -8.113   3.861  0.00  0.00    +0.092 A 
ATOM      8  N   UNL     1       3.085  -8.019   3.078  0.00  0.00    -0.215 NA
ATOM      9  C   UNL     1       3.369  -6.758   2.865  0.00  0.00    +0.194 A 
ATOM     10  N   UNL     1       4.427  -6.301   2.108  0.00  0.00    -0.329 N 
ATOM     11 BR   UNL     1      -0.830 -10.420   5.860  0.00  0.00    -0.050 Br
ATOM     12  H   UNL     1       4.570  -5.348   2.001  0.00  0.00    +0.145 HD
ATOM     13  H   UNL     1       5.027  -6.932   1.681  0.00  0.00    +0.145 HD
ENDROOT
BRANCH   1  14
ATOM     14  C   UNL     1       2.444  -4.499   3.518  0.00  0.00    +0.125 C 
BRANCH  14  15
ATOM     15  C   UNL     1       1.599  -3.994   2.346  0.00  0.00    +0.020 C 
BRANCH  15  16
ATOM     16  C   UNL     1       1.578  -2.465   2.355  0.00  0.00    -0.017 C 
BRANCH  16  17
ATOM     17  C   UNL     1       0.733  -1.960   1.184  0.00  0.00    -0.079 C 
BRANCH  17  18
ATOM     18  N   UNL     1       0.713  -0.491   1.192  0.00  0.00    +0.379 N 
ATOM     19  C   UNL     1       0.025  -0.017   2.401  0.00  0.00    -0.096 C 
ATOM     20  H   UNL     1       1.659  -0.141   1.185  0.00  0.00    -0.082 HD
BRANCH  18  22
ATOM     21  C   UNL     1      -0.019   1.526   0.010  0.00  0.00    -0.014 C 
ATOM     22  C   UNL     1       0.002  -0.004   0.002  0.00  0.00    -0.075 C 
ATOM     23  C   UNL     1       0.718  -0.497  -1.257  0.00  0.00    -0.014 C 
ENDBRANCH  18  22
ENDBRANCH  17  18
ENDBRANCH  16  17
ENDBRANCH  15  16
ENDBRANCH  14  15
ENDBRANCH   1  14
TORSDOF 6
