REMARK  Name = ZINC20433411
REMARK  5 active torsions:
REMARK  status: ('A' for Active; 'I' for Inactive)
REMARK    1  A    between atoms: C_3  and  C_10
REMARK    2  A    between atoms: C_5  and  C_7
REMARK    3  A    between atoms: C_10  and  S_11
REMARK    4  A    between atoms: S_11  and  C_12
REMARK    5  A    between atoms: C_18  and  N_20
REMARK                            x       y       z     vdW  Elec       q    Type
REMARK                         _______ _______ _______ _____ _____    ______ ____
ROOT
ATOM      1  C   UNL     1      -0.022   1.806   0.012  0.00  0.00    +0.112 C 
ENDROOT
BRANCH   1   4
ATOM      2  C   UNL     1       3.326   3.051  -1.221  0.00  0.00    +0.001 A 
ATOM      3  C   UNL     1       2.027   2.573  -1.202  0.00  0.00    +0.004 A 
ATOM      4  C   UNL     1       1.391   2.327   0.001  0.00  0.00    -0.036 A 
ATOM      5  C   UNL     1       2.047   2.564   1.192  0.00  0.00    +0.017 A 
ATOM      6  C   UNL     1       3.358   3.043   1.180  0.00  0.00    +0.037 A 
ATOM      7  C   UNL     1       3.994   3.288  -0.038  0.00  0.00    +0.013 A 
BRANCH   6   8
ATOM      8  C   UNL     1       4.068   3.294   2.453  0.00  0.00    +0.242 C 
ATOM      9  O   UNL     1       3.511   3.080   3.512  0.00  0.00    -0.270 OA
ATOM     10  N   UNL     1       5.332   3.760   2.438  0.00  0.00    -0.325 N 
ATOM     11  H   UNL     1       5.860   3.947   3.384  0.00  0.00    +0.145 HD
ATOM     12  H   UNL     1       5.836   3.954   1.479  0.00  0.00    +0.145 HD
ENDBRANCH   6   8
ENDBRANCH   1   4
BRANCH   1  13
ATOM     13  S   UNL     1       0.002  -0.004   0.002  0.00  0.00    -0.083 S 
BRANCH  13  14
ATOM     14  C   UNL     1      -1.729  -0.334   0.017  0.00  0.00    +0.171 A 
ATOM     15  N   UNL     1      -2.162  -1.625   0.014  0.00  0.00    -0.302 N 
ATOM     16  H   UNL     1      -1.434  -2.450   0.002  0.00  0.00    +0.171 HD
ATOM     17  C   UNL     1      -3.484  -1.896   0.026  0.00  0.00    +0.254 A 
ATOM     18  O   UNL     1      -3.881  -3.050   0.023  0.00  0.00    -0.268 OA
ATOM     19  C   UNL     1      -4.391  -0.832   0.040  0.00  0.00    +0.113 A 
ATOM     20  C   UNL     1      -3.899   0.465   0.042  0.00  0.00    +0.124 A 
ATOM     21  N   UNL     1      -2.577   0.674   0.036  0.00  0.00    -0.209 NA
BRANCH  20  22
ATOM     22  N   UNL     1      -4.769   1.537   0.056  0.00  0.00    -0.343 N 
ATOM     23  H   UNL     1      -4.376   2.564   0.057  0.00  0.00    +0.144 HD
ATOM     24  H   UNL     1      -5.855   1.363   0.065  0.00  0.00    +0.144 HD
ENDBRANCH  20  22
ENDBRANCH  13  14
ENDBRANCH   1  13
TORSDOF 5
