REMARK  Name = ZINC02615999
REMARK  9 active torsions:
REMARK  status: ('A' for Active; 'I' for Inactive)
REMARK    1  A    between atoms: C_4  and  C_7
REMARK    2  A    between atoms: C_10  and  S_18
REMARK    3  A    between atoms: N_11  and  C_12
REMARK    4  A    between atoms: S_18  and  C_19
REMARK    5  A    between atoms: C_19  and  C_20
REMARK    6  A    between atoms: C_20  and  N_43
REMARK    7  A    between atoms: C_21  and  C_22
REMARK    8  A    between atoms: C_21  and  N_43
REMARK    9  A    between atoms: C_22  and  O_23
REMARK                            x       y       z     vdW  Elec       q    Type
REMARK                         _______ _______ _______ _____ _____    ______ ____
ROOT
ATOM      1  C   UNL     1       1.813  -2.911   0.917  0.00  0.00    +0.169 A 
ATOM      2  N   UNL     1       1.633  -4.144   0.502  0.00  0.00    -0.128 NA
ATOM      3  N   UNL     1       0.968  -4.145  -0.597  0.00  0.00    -0.122 NA
ATOM      4  C   UNL     1       0.676  -2.914  -0.951  0.00  0.00    +0.196 A 
ATOM      5  N   UNL     1       1.200  -2.083   0.002  0.00  0.00    -0.270 N 
ENDROOT
BRANCH   1   9
ATOM      6  C   UNL     1       3.882  -1.703   4.424  0.00  0.00    +0.000 A 
ATOM      7  C   UNL     1       3.014  -0.825   3.800  0.00  0.00    +0.001 A 
ATOM      8  C   UNL     1       2.339  -1.211   2.660  0.00  0.00    +0.011 A 
ATOM      9  C   UNL     1       2.533  -2.490   2.138  0.00  0.00    +0.020 A 
ATOM     10  C   UNL     1       3.405  -3.373   2.776  0.00  0.00    +0.011 A 
ATOM     11  C   UNL     1       4.079  -2.973   3.911  0.00  0.00    +0.001 A 
ENDBRANCH   1   9
BRANCH   5  12
ATOM     12  C   UNL     1       1.133  -0.684   0.036  0.00  0.00    +0.051 A 
ATOM     13  C   UNL     1      -0.084  -0.051   0.247  0.00  0.00    +0.026 A 
ATOM     14  C   UNL     1      -0.147   1.329   0.280  0.00  0.00    +0.002 A 
ATOM     15  C   UNL     1       1.001   2.079   0.104  0.00  0.00    +0.000 A 
ATOM     16  C   UNL     1       2.215   1.451  -0.106  0.00  0.00    +0.002 A 
ATOM     17  C   UNL     1       2.284   0.072  -0.140  0.00  0.00    +0.026 A 
ENDBRANCH   5  12
BRANCH   4  18
ATOM     18  S   UNL     1      -0.224  -2.424  -2.385  0.00  0.00    -0.088 S 
BRANCH  18  19
ATOM     19  C   UNL     1      -0.562  -4.045  -3.113  0.00  0.00    +0.058 C 
BRANCH  19  20
ATOM     20  C   UNL     1      -1.358  -3.867  -4.408  0.00  0.00    -0.071 C 
BRANCH  20  21
ATOM     21  N   UNL     1      -1.629  -5.193  -4.995  0.00  0.00    +0.381 N 
ATOM     22  H   UNL     1      -2.171  -5.754  -4.328  0.00  0.00    -0.086 HD
ATOM     23  H   UNL     1      -0.739  -5.663  -5.195  0.00  0.00    -0.086 HD
BRANCH  21  24
ATOM     24  C   UNL     1      -2.396  -5.051  -6.247  0.00  0.00    -0.054 C 
BRANCH  24  25
ATOM     25  C   UNL     1      -2.662  -6.439  -6.832  0.00  0.00    +0.137 C 
BRANCH  25  26
ATOM     26  O   UNL     1      -3.509  -7.175  -5.946  0.00  0.00    -0.397 OA
ATOM     27  H   UNL     1      -3.720  -8.067  -6.254  0.00  0.00    +0.209 HD
ENDBRANCH  25  26
ENDBRANCH  24  25
ENDBRANCH  21  24
ENDBRANCH  20  21
ENDBRANCH  19  20
ENDBRANCH  18  19
ENDBRANCH   4  18
TORSDOF 9
