REMARK  Name = ZINC31004289
REMARK  13 active torsions:
REMARK  status: ('A' for Active; 'I' for Inactive)
REMARK    1  A    between atoms: C_1  and  C_2
REMARK    2  A    between atoms: C_2  and  C_3
REMARK    3  A    between atoms: C_3  and  N_4
REMARK    4  A    between atoms: N_4  and  C_5
REMARK    5  A    between atoms: N_4  and  C_16
REMARK    6  A    between atoms: C_5  and  C_6
REMARK    7  A    between atoms: N_8  and  C_9
REMARK    8  A    between atoms: C_14  and  C_15
REMARK    9  A    between atoms: C_16  and  C_17
REMARK   10  A    between atoms: N_19  and  C_20
REMARK   11  A    between atoms: C_21  and  C_28
REMARK   12  A    between atoms: C_28  and  O_30
REMARK   13  A    between atoms: O_30  and  C_31
REMARK                            x       y       z     vdW  Elec       q    Type
REMARK                         _______ _______ _______ _____ _____    ______ ____
ROOT
ATOM      1  N   UNL     1       2.449   1.077   1.233  0.00  0.00    +0.391 N 
ATOM      2  H   UNL     1       2.053   0.171   0.751  0.00  0.00    -0.080 HD
ENDROOT
BRANCH   1   3
ATOM      3  C   UNL     1       2.768   0.745   2.627  0.00  0.00    -0.078 C 
BRANCH   3   5
ATOM      4  C   UNL     1       1.871  -0.237   4.743  0.00  0.00    +0.002 C 
ATOM      5  C   UNL     1       1.580   0.020   3.263  0.00  0.00    -0.022 C 
ENDBRANCH   3   5
ENDBRANCH   1   3
BRANCH   1   6
ATOM      6  C   UNL     1       1.412   2.116   1.163  0.00  0.00    +0.020 C 
BRANCH   6   7
ATOM      7  C   UNL     1       0.748   2.073  -0.189  0.00  0.00    +0.201 C 
ATOM      8  O   UNL     1       1.154   1.310  -1.040  0.00  0.00    -0.278 OA
ATOM      9  N   UNL     1      -0.293   2.886  -0.455  0.00  0.00    -0.287 N 
ATOM     10  H   UNL     1      -0.627   3.616   0.297  0.00  0.00    +0.155 HD
BRANCH   9  11
ATOM     11  C   UNL     1      -0.951   2.800  -1.687  0.00  0.00    +0.036 A 
ATOM     12  C   UNL     1      -0.269   2.351  -2.810  0.00  0.00    +0.023 A 
ATOM     13  C   UNL     1      -0.922   2.264  -4.024  0.00  0.00    +0.002 A 
ATOM     14  C   UNL     1      -2.251   2.633  -4.123  0.00  0.00    +0.000 A 
ATOM     15  C   UNL     1      -2.932   3.086  -3.008  0.00  0.00    +0.005 A 
ATOM     16  C   UNL     1      -2.286   3.170  -1.790  0.00  0.00    -0.029 A 
ATOM     17  C   UNL     1      -3.028   3.664  -0.575  0.00  0.00    +0.045 C 
ENDBRANCH   9  11
ENDBRANCH   6   7
ENDBRANCH   1   6
BRANCH   1  18
ATOM     18  C   UNL     1       3.655   1.488   0.501  0.00  0.00    +0.020 C 
BRANCH  18  19
ATOM     19  C   UNL     1       4.595   0.315   0.384  0.00  0.00    +0.201 C 
ATOM     20  O   UNL     1       4.290  -0.756   0.863  0.00  0.00    -0.278 OA
ATOM     21  N   UNL     1       5.774   0.458  -0.254  0.00  0.00    -0.285 N 
ATOM     22  H   UNL     1       6.075   1.443  -0.639  0.00  0.00    +0.155 HD
BRANCH  21  23
ATOM     23  C   UNL     1       6.611  -0.643  -0.424  0.00  0.00    +0.066 A 
ATOM     24  C   UNL     1       7.991  -0.521  -0.200  0.00  0.00    +0.083 A 
ATOM     25  C   UNL     1       8.819  -1.633  -0.369  0.00  0.00    +0.037 A 
ATOM     26  C   UNL     1       8.279  -2.839  -0.764  0.00  0.00    +0.043 A 
ATOM     27  C   UNL     1       6.916  -2.955  -0.991  0.00  0.00    +0.042 A 
ATOM     28  C   UNL     1       6.085  -1.865  -0.823  0.00  0.00    +0.064 A 
ATOM     29 CL   UNL     1       4.380  -2.023  -1.109  0.00  0.00    -0.082 Cl
ATOM     30 CL   UNL     1       9.311  -4.218  -0.981  0.00  0.00    -0.083 Cl
BRANCH  24  31
ATOM     31  C   UNL     1       8.562   0.772   0.217  0.00  0.00    +0.341 C 
ATOM     32  O   UNL     1       7.829   1.709   0.465  0.00  0.00    -0.245 OA
BRANCH  31  33
ATOM     33  O   UNL     1       9.898   0.916   0.324  0.00  0.00    -0.464 OA
ATOM     34  C   UNL     1      10.390   2.217   0.740  0.00  0.00    +0.280 C 
ENDBRANCH  31  33
ENDBRANCH  24  31
ENDBRANCH  21  23
ENDBRANCH  18  19
ENDBRANCH   1  18
TORSDOF 10
