REMARK  Name = ZINC30499949
REMARK  11 active torsions:
REMARK  status: ('A' for Active; 'I' for Inactive)
REMARK    1  A    between atoms: C_1  and  C_2
REMARK    2  A    between atoms: C_2  and  C_3
REMARK    3  A    between atoms: N_5  and  C_6
REMARK    4  A    between atoms: C_9  and  C_12
REMARK    5  A    between atoms: C_12  and  C_14
REMARK    6  A    between atoms: C_12  and  N_15
REMARK    7  A    between atoms: N_15  and  C_16
REMARK    8  A    between atoms: C_16  and  C_18
REMARK    9  A    between atoms: C_16  and  C_19
REMARK   10  A    between atoms: N_21  and  C_22
REMARK   11  A    between atoms: C_25  and  C_29
REMARK                            x       y       z     vdW  Elec       q    Type
REMARK                         _______ _______ _______ _____ _____    ______ ____
ROOT
ATOM      1  N   UNL     1       1.503   1.298   0.091  0.00  0.00    +0.391 N 
ATOM      2  H   UNL     1       1.532   2.352   0.403  0.00  0.00    -0.084 HD
ATOM      3  H   UNL     1       1.921   1.203  -0.922  0.00  0.00    -0.084 HD
ENDROOT
BRANCH   1   4
ATOM      4  C   UNL     1       2.296   0.489   1.026  0.00  0.00    -0.043 C 
ATOM      5  C   UNL     1       2.781  -0.779   0.320  0.00  0.00    -0.009 C 
BRANCH   4   9
ATOM      6  C   UNL     1       5.666   2.752   2.363  0.00  0.00    +0.033 A 
ATOM      7  C   UNL     1       4.971   1.946   3.255  0.00  0.00    +0.023 A 
ATOM      8  C   UNL     1       3.882   1.217   2.820  0.00  0.00    +0.004 A 
ATOM      9  C   UNL     1       3.484   1.287   1.498  0.00  0.00    -0.062 A 
ATOM     10  C   UNL     1       4.178   2.084   0.606  0.00  0.00    +0.004 A 
ATOM     11  C   UNL     1       5.264   2.821   1.036  0.00  0.00    +0.023 A 
BRANCH   6  14
ATOM     12  C   UNL     1       7.570   3.002   3.768  0.00  0.00    +0.217 C 
ATOM     13  O   UNL     1       7.389   1.881   4.194  0.00  0.00    -0.275 OA
ATOM     14  N   UNL     1       6.770   3.493   2.801  0.00  0.00    -0.286 N 
ATOM     15  H   UNL     1       6.984   4.476   2.355  0.00  0.00    +0.155 HD
BRANCH  12  17
ATOM     16  C   UNL     1       9.439   3.060   5.397  0.00  0.00    +0.013 C 
ATOM     17  C   UNL     1       8.690   3.847   4.320  0.00  0.00    +0.093 C 
ENDBRANCH  12  17
ENDBRANCH   6  14
ENDBRANCH   4   9
ENDBRANCH   1   4
BRANCH   1  18
ATOM     18  C   UNL     1       0.103   0.852   0.066  0.00  0.00    +0.014 C 
ATOM     19  C   UNL     1      -0.668   1.528   1.202  0.00  0.00    -0.004 C 
BRANCH  18  20
ATOM     20  C   UNL     1      -0.519   1.224  -1.255  0.00  0.00    +0.203 C 
ATOM     21  O   UNL     1       0.139   1.804  -2.093  0.00  0.00    -0.277 OA
ATOM     22  N   UNL     1      -1.806   0.913  -1.505  0.00  0.00    -0.287 N 
ATOM     23  H   UNL     1      -2.424   0.455  -0.719  0.00  0.00    +0.155 HD
BRANCH  22  24
ATOM     24  C   UNL     1      -2.355   1.172  -2.762  0.00  0.00    +0.035 A 
ATOM     25  C   UNL     1      -1.970   2.309  -3.466  0.00  0.00    +0.024 A 
ATOM     26  C   UNL     1      -2.505   2.566  -4.708  0.00  0.00    +0.022 A 
ATOM     27  C   UNL     1      -3.445   1.689  -5.258  0.00  0.00    +0.070 A 
ATOM     28  C   UNL     1      -3.834   0.550  -4.545  0.00  0.00    +0.060 A 
ATOM     29  C   UNL     1      -3.289   0.297  -3.304  0.00  0.00    +0.044 A 
ATOM     30 CL   UNL     1      -5.001  -0.543  -5.221  0.00  0.00    -0.082 Cl
BRANCH  27  31
ATOM     31  C   UNL     1      -4.009   1.956  -6.547  0.00  0.00    +0.101 C 
ATOM     32  N   UNL     1      -4.456   2.168  -7.570  0.00  0.00    -0.191 NA
ENDBRANCH  27  31
ENDBRANCH  22  24
ENDBRANCH  18  20
ENDBRANCH   1  18
TORSDOF 8
