REMARK  Name = ZINC14140526
REMARK  6 active torsions:
REMARK  status: ('A' for Active; 'I' for Inactive)
REMARK    1  A    between atoms: C_1  and  N_2
REMARK    2  A    between atoms: N_2  and  C_3
REMARK    3  A    between atoms: C_4  and  C_6
REMARK    4  A    between atoms: C_11  and  C_12
REMARK    5  A    between atoms: C_11  and  N_53
REMARK    6  A    between atoms: N_14  and  N_15
REMARK                            x       y       z     vdW  Elec       q    Type
REMARK                         _______ _______ _______ _____ _____    ______ ____
ROOT
ATOM      1  C   UNL     1      -1.758  -1.159  -1.198  0.00  0.00    +0.213 C 
ATOM      2  O   UNL     1      -1.349  -0.755  -2.266  0.00  0.00    -0.276 OA
ATOM      3  N   UNL     1      -0.996  -1.032  -0.093  0.00  0.00    -0.225 N 
ATOM      4  H   UNL     1      -1.323  -1.355   0.761  0.00  0.00    +0.173 HD
ENDROOT
BRANCH   3   5
ATOM      5  N   UNL     1       0.267  -0.432  -0.178  0.00  0.00    -0.137 N 
ATOM      6  C   UNL     1       1.433  -1.110  -0.137  0.00  0.00    +0.263 C 
ATOM      7  O   UNL     1       1.581  -2.308  -0.023  0.00  0.00    -0.271 OA
ATOM      8  C   UNL     1       2.514  -0.062  -0.263  0.00  0.00    +0.114 C 
ATOM      9  C   UNL     1       3.346  -0.304  -1.517  0.00  0.00    +0.035 C 
ATOM     10  C   UNL     1       4.416   0.783  -1.642  0.00  0.00    +0.003 C 
ATOM     11  C   UNL     1       5.313   0.758  -0.402  0.00  0.00    +0.000 C 
ATOM     12  C   UNL     1       4.469   1.027   0.845  0.00  0.00    +0.003 C 
ATOM     13  C   UNL     1       3.399  -0.059   0.979  0.00  0.00    +0.035 C 
ATOM     14  N   UNL     1       1.775   1.202  -0.371  0.00  0.00    -0.284 N 
ATOM     15  C   UNL     1       0.468   0.885  -0.312  0.00  0.00    +0.326 C 
ATOM     16  O   UNL     1      -0.430   1.702  -0.378  0.00  0.00    -0.251 OA
ATOM     17  H   UNL     1       2.154   2.090  -0.466  0.00  0.00    +0.151 HD
ENDBRANCH   3   5
BRANCH   1  18
ATOM     18  C   UNL     1      -3.116  -1.804  -1.105  0.00  0.00    +0.021 C 
BRANCH  18  23
ATOM     19  C   UNL     1      -5.116  -2.381  -2.369  0.00  0.00    +0.020 C 
ATOM     20  C   UNL     1      -5.884  -1.734  -3.549  0.00  0.00    -0.008 C 
ATOM     21  C   UNL     1      -5.432  -0.257  -3.487  0.00  0.00    -0.020 C 
ATOM     22  C   UNL     1      -4.096  -0.277  -2.721  0.00  0.00    -0.077 C 
ATOM     23  N   UNL     1      -3.824  -1.686  -2.416  0.00  0.00    +0.393 N 
ATOM     24  H   UNL     1      -3.238  -2.094  -3.153  0.00  0.00    -0.080 HD
BRANCH  19  28
ATOM     25  C   UNL     1      -5.854  -6.110  -2.824  0.00  0.00    +0.131 C 
ATOM     26  N   UNL     1      -6.021  -4.671  -2.604  0.00  0.00    -0.309 N 
ATOM     27  C   UNL     1      -7.359  -4.113  -2.395  0.00  0.00    +0.131 C 
ATOM     28  C   UNL     1      -4.944  -3.861  -2.595  0.00  0.00    +0.202 C 
ATOM     29  O   UNL     1      -3.836  -4.324  -2.768  0.00  0.00    -0.277 OA
ENDBRANCH  19  28
ENDBRANCH  18  23
ENDBRANCH   1  18
TORSDOF 4
