REMARK  Name = ZINC38671256
REMARK  7 active torsions:
REMARK  status: ('A' for Active; 'I' for Inactive)
REMARK    1  A    between atoms: C_1  and  N_2
REMARK    2  A    between atoms: C_10  and  C_12
REMARK    3  A    between atoms: C_12  and  C_14
REMARK    4  A    between atoms: C_12  and  N_29
REMARK    5  A    between atoms: C_14  and  N_15
REMARK    6  A    between atoms: N_18  and  C_19
REMARK    7  A    between atoms: C_24  and  C_25
REMARK                            x       y       z     vdW  Elec       q    Type
REMARK                         _______ _______ _______ _____ _____    ______ ____
ROOT
ATOM      1  C   UNL     1       5.076  -2.654  -0.367  0.00  0.00    -0.020 C 
ENDROOT
BRANCH   1  11
ATOM      2  C   UNL     1      -0.232   1.033   0.532  0.00  0.00    +0.129 C 
ATOM      3  N   UNL     1      -0.074  -0.421   0.443  0.00  0.00    -0.333 N 
ATOM      4  C   UNL     1      -1.241  -1.306   0.555  0.00  0.00    +0.105 C 
ATOM      5  C   UNL     1      -0.863  -2.465   1.487  0.00  0.00    +0.024 C 
ATOM      6  C   UNL     1       0.273  -3.263   0.847  0.00  0.00    +0.038 C 
ATOM      7  C   UNL     1       1.395  -2.347   0.437  0.00  0.00    -0.026 A 
ATOM      8  C   UNL     1       1.189  -0.988   0.244  0.00  0.00    +0.033 A 
ATOM      9  C   UNL     1       2.245  -0.171  -0.144  0.00  0.00    +0.023 A 
ATOM     10  C   UNL     1       3.500  -0.711  -0.342  0.00  0.00    +0.004 A 
ATOM     11  C   UNL     1       3.706  -2.065  -0.153  0.00  0.00    -0.059 A 
ATOM     12  C   UNL     1       2.658  -2.880   0.244  0.00  0.00    +0.007 A 
ENDBRANCH   1  11
BRANCH   1  13
ATOM     13  N   UNL     1       5.697  -2.035  -1.546  0.00  0.00    +0.385 N 
ATOM     14  C   UNL     1       4.808  -2.191  -2.704  0.00  0.00    -0.078 C 
ATOM     15  C   UNL     1       5.412  -1.477  -3.915  0.00  0.00    -0.019 C 
ATOM     16  C   UNL     1       6.778  -2.091  -4.233  0.00  0.00    -0.004 C 
ATOM     17  C   UNL     1       7.673  -1.990  -2.994  0.00  0.00    -0.019 C 
ATOM     18  C   UNL     1       6.985  -2.684  -1.817  0.00  0.00    -0.078 C 
ATOM     19  H   UNL     1       5.846  -1.053  -1.369  0.00  0.00    -0.081 HD
ENDBRANCH   1  13
BRANCH   1  20
ATOM     20  C   UNL     1       5.944  -2.389   0.864  0.00  0.00    +0.095 C 
BRANCH  20  21
ATOM     21  N   UNL     1       5.393  -3.109   2.015  0.00  0.00    -0.300 N 
ATOM     22  C   UNL     1       6.050  -3.103   3.191  0.00  0.00    +0.304 C 
ATOM     23  O   UNL     1       7.100  -2.501   3.298  0.00  0.00    -0.253 OA
ATOM     24  N   UNL     1       5.542  -3.766   4.250  0.00  0.00    -0.269 N 
ATOM     25  H   UNL     1       4.554  -3.590   1.929  0.00  0.00    +0.150 HD
ATOM     26  H   UNL     1       4.739  -4.300   4.148  0.00  0.00    +0.156 HD
BRANCH  24  27
ATOM     27  C   UNL     1       6.175  -3.684   5.495  0.00  0.00    +0.046 A 
ATOM     28  C   UNL     1       7.536  -3.419   5.568  0.00  0.00    +0.024 A 
ATOM     29  C   UNL     1       8.157  -3.338   6.799  0.00  0.00    +0.002 A 
ATOM     30  C   UNL     1       7.426  -3.522   7.958  0.00  0.00    +0.001 A 
ATOM     31  C   UNL     1       6.070  -3.786   7.889  0.00  0.00    +0.014 A 
ATOM     32  C   UNL     1       5.442  -3.862   6.661  0.00  0.00    +0.076 A 
BRANCH  32  33
ATOM     33  C   UNL     1       3.963  -4.144   6.586  0.00  0.00    +0.419 C 
ATOM     34  F   UNL     1       3.450  -4.284   7.880  0.00  0.00    -0.166 F 
ATOM     35  F   UNL     1       3.318  -3.084   5.941  0.00  0.00    -0.166 F 
ATOM     36  F   UNL     1       3.750  -5.327   5.870  0.00  0.00    -0.166 F 
ENDBRANCH  32  33
ENDBRANCH  24  27
ENDBRANCH  20  21
ENDBRANCH   1  20
TORSDOF 6
