REMARK  Name = ZINC09045059
REMARK  8 active torsions:
REMARK  status: ('A' for Active; 'I' for Inactive)
REMARK    1  A    between atoms: C_1  and  S_2
REMARK    2  A    between atoms: S_2  and  C_3
REMARK    3  A    between atoms: C_3  and  C_4
REMARK    4  A    between atoms: C_4  and  C_5
REMARK    5  A    between atoms: C_5  and  C_7
REMARK    6  A    between atoms: C_5  and  N_20
REMARK    7  A    between atoms: N_9  and  C_10
REMARK    8  A    between atoms: C_21  and  C_23
REMARK                            x       y       z     vdW  Elec       q    Type
REMARK                         _______ _______ _______ _____ _____    ______ ____
ROOT
ATOM      1  C   UNL     1       4.953  -2.739   0.140  0.00  0.00    +0.160 C 
ENDROOT
BRANCH   1   2
ATOM      2  C   UNL     1       3.639  -2.007   0.047  0.00  0.00    +0.238 C 
ATOM      3  O   UNL     1       2.597  -2.628   0.056  0.00  0.00    -0.273 OA
ATOM      4  N   UNL     1       3.621  -0.663  -0.045  0.00  0.00    -0.284 N 
ATOM      5  H   UNL     1       4.454  -0.172  -0.130  0.00  0.00    +0.155 HD
BRANCH   4   6
ATOM      6  C   UNL     1       2.401   0.025  -0.020  0.00  0.00    +0.037 A 
ATOM      7  C   UNL     1       1.346  -0.460   0.740  0.00  0.00    +0.027 A 
ATOM      8  C   UNL     1       0.142   0.217   0.764  0.00  0.00    +0.051 A 
ATOM      9  C   UNL     1      -0.016   1.383   0.029  0.00  0.00    +0.162 A 
ATOM     10  C   UNL     1       1.039   1.873  -0.730  0.00  0.00    +0.164 A 
ATOM     11  C   UNL     1       2.247   1.192  -0.755  0.00  0.00    +0.072 A 
ATOM     12  O   UNL     1       0.906   3.020  -1.450  0.00  0.00    -0.485 OA
ATOM     13  C   UNL     1      -0.430   3.472  -1.699  0.00  0.00    +0.270 C 
ATOM     14  C   UNL     1      -1.216   3.394  -0.384  0.00  0.00    +0.270 C 
ATOM     15  O   UNL     1      -1.213   2.032   0.059  0.00  0.00    -0.485 OA
ENDBRANCH   4   6
ENDBRANCH   1   2
BRANCH   1  16
ATOM     16  N   UNL     1       4.704  -4.180   0.231  0.00  0.00    -0.305 N 
ATOM     17  C   UNL     1       5.616  -4.986   0.810  0.00  0.00    +0.200 C 
ATOM     18  O   UNL     1       6.642  -4.519   1.256  0.00  0.00    -0.278 OA
ATOM     19  H   UNL     1       3.883  -4.554  -0.126  0.00  0.00    +0.149 HD
BRANCH  17  20
ATOM     20  C   UNL     1       5.360  -6.468   0.903  0.00  0.00    +0.021 C 
ATOM     21  C   UNL     1       4.421  -6.755   2.076  0.00  0.00    +0.028 C 
ATOM     22  C   UNL     1       4.352  -8.239   2.329  0.00  0.00    -0.047 A 
ATOM     23  C   UNL     1       3.307  -8.731   3.097  0.00  0.00    +0.004 A 
ATOM     24  C   UNL     1       3.209 -10.083   3.357  0.00  0.00    +0.000 A 
ATOM     25  C   UNL     1       4.157 -10.951   2.849  0.00  0.00    +0.000 A 
ATOM     26  C   UNL     1       5.197 -10.463   2.084  0.00  0.00    +0.002 A 
ATOM     27  C   UNL     1       5.296  -9.104   1.820  0.00  0.00    -0.061 A 
ATOM     28  C   UNL     1       6.443  -8.621   0.972  0.00  0.00    -0.045 C 
ATOM     29  N   UNL     1       6.633  -7.173   1.138  0.00  0.00    +0.389 N 
ATOM     30  H   UNL     1       6.958  -6.980   2.093  0.00  0.00    -0.084 HD
ATOM     31  H   UNL     1       7.335  -6.843   0.465  0.00  0.00    -0.084 HD
ENDBRANCH  17  20
ENDBRANCH   1  16
BRANCH   1  32
ATOM     32  C   UNL     1       5.790  -2.444  -1.107  0.00  0.00    +0.042 C 
BRANCH  32  33
ATOM     33  C   UNL     1       7.171  -3.085  -0.957  0.00  0.00    +0.071 C 
BRANCH  33  35
ATOM     34  C   UNL     1       9.749  -3.552  -2.102  0.00  0.00    +0.084 C 
ATOM     35  S   UNL     1       8.164  -2.735  -2.434  0.00  0.00    -0.164 S 
ENDBRANCH  33  35
ENDBRANCH  32  33
ENDBRANCH   1  32
TORSDOF 7
