REMARK  Name = ZINC08800268
REMARK  11 active torsions:
REMARK  status: ('A' for Active; 'I' for Inactive)
REMARK    1  A    between atoms: C_1  and  C_2
REMARK    2  A    between atoms: C_2  and  C_3
REMARK    3  A    between atoms: C_2  and  C_4
REMARK    4  A    between atoms: N_6  and  C_7
REMARK    5  A    between atoms: C_10  and  S_13
REMARK    6  A    between atoms: S_13  and  N_16
REMARK    7  A    between atoms: N_16  and  C_17
REMARK    8  A    between atoms: C_17  and  C_18
REMARK    9  A    between atoms: C_18  and  C_20
REMARK   10  A    between atoms: C_18  and  N_73
REMARK   11  A    between atoms: N_29  and  C_30
REMARK                            x       y       z     vdW  Elec       q    Type
REMARK                         _______ _______ _______ _____ _____    ______ ____
ROOT
ATOM      1  C   UNL     1      -0.393   0.695   0.059  0.00  0.00    +0.095 C 
ENDROOT
BRANCH   1   2
ATOM      2  N   UNL     1      -1.335   0.797   1.176  0.00  0.00    -0.191 NA
ATOM      3  H   UNL     1      -2.220   1.166   1.032  0.00  0.00    +0.148 HD
BRANCH   2   4
ATOM      4  S   UNL     1      -0.888   0.284   2.686  0.00  0.00    +0.058 S 
ATOM      5  O   UNL     1      -1.992   0.536   3.544  0.00  0.00    -0.153 OA
ATOM      6  O   UNL     1      -0.329  -1.013   2.524  0.00  0.00    -0.153 OA
BRANCH   4  10
ATOM      7  C   UNL     1       2.475   2.979   4.077  0.00  0.00    +0.034 A 
ATOM      8  C   UNL     1       1.156   3.312   4.354  0.00  0.00    +0.025 A 
ATOM      9  C   UNL     1       0.133   2.488   3.929  0.00  0.00    +0.030 A 
ATOM     10  C   UNL     1       0.421   1.332   3.227  0.00  0.00    +0.105 A 
ATOM     11  C   UNL     1       1.733   0.995   2.953  0.00  0.00    +0.030 A 
ATOM     12  C   UNL     1       2.761   1.817   3.371  0.00  0.00    +0.025 A 
BRANCH   7  15
ATOM     13  C   UNL     1       3.394   4.500   5.659  0.00  0.00    +0.220 C 
ATOM     14  O   UNL     1       2.434   4.317   6.376  0.00  0.00    -0.275 OA
ATOM     15  N   UNL     1       3.515   3.812   4.506  0.00  0.00    -0.285 N 
ATOM     16  H   UNL     1       4.321   3.894   3.974  0.00  0.00    +0.155 HD
BRANCH  13  18
ATOM     17  C   UNL     1       4.558   6.584   4.986  0.00  0.00    +0.017 C 
ATOM     18  C   UNL     1       4.454   5.495   6.056  0.00  0.00    +0.069 C 
ATOM     19  C   UNL     1       4.078   6.132   7.396  0.00  0.00    +0.017 C 
ENDBRANCH  13  18
ENDBRANCH   7  15
ENDBRANCH   4  10
ENDBRANCH   2   4
ENDBRANCH   1   2
BRANCH   1  20
ATOM     20  C   UNL     1      -1.150   0.843  -1.262  0.00  0.00    -0.022 C 
BRANCH  20  21
ATOM     21  C   UNL     1      -0.166   0.911  -2.401  0.00  0.00    -0.059 A 
ATOM     22  C   UNL     1       0.834   1.867  -2.396  0.00  0.00    +0.004 A 
ATOM     23  C   UNL     1       1.735   1.925  -3.437  0.00  0.00    +0.023 A 
ATOM     24  C   UNL     1       1.639   1.032  -4.506  0.00  0.00    +0.033 A 
ATOM     25  C   UNL     1       0.636   0.079  -4.507  0.00  0.00    -0.026 A 
ATOM     26  C   UNL     1      -0.264   0.024  -3.454  0.00  0.00    +0.007 A 
ATOM     27  C   UNL     1       0.484  -0.921  -5.625  0.00  0.00    +0.038 C 
ATOM     28  C   UNL     1       1.298  -0.464  -6.838  0.00  0.00    +0.024 C 
ATOM     29  C   UNL     1       2.694  -0.061  -6.346  0.00  0.00    +0.105 C 
ATOM     30  N   UNL     1       2.572   1.153  -5.535  0.00  0.00    -0.333 N 
ATOM     31  C   UNL     1       3.880   1.571  -5.015  0.00  0.00    +0.129 C 
ENDBRANCH  20  21
BRANCH  20  37
ATOM     32  C   UNL     1      -2.253   2.539  -2.592  0.00  0.00    -0.078 C 
ATOM     33  C   UNL     1      -3.205   3.736  -2.525  0.00  0.00    -0.019 C 
ATOM     34  C   UNL     1      -2.549   4.858  -1.716  0.00  0.00    -0.004 C 
ATOM     35  C   UNL     1      -2.200   4.335  -0.320  0.00  0.00    -0.019 C 
ATOM     36  C   UNL     1      -1.277   3.121  -0.452  0.00  0.00    -0.078 C 
ATOM     37  N   UNL     1      -1.976   2.068  -1.219  0.00  0.00    +0.385 N 
ATOM     38  H   UNL     1      -2.866   1.853  -0.754  0.00  0.00    -0.081 HD
ENDBRANCH  20  37
ENDBRANCH   1  20
TORSDOF 8
