REMARK  Name = ZINC05012923
REMARK  18 active torsions:
REMARK  status: ('A' for Active; 'I' for Inactive)
REMARK    1  A    between atoms: C_1  and  N_69
REMARK    2  A    between atoms: C_2  and  N_69
REMARK    3  A    between atoms: C_3  and  C_4
REMARK    4  A    between atoms: C_3  and  N_69
REMARK    5  A    between atoms: C_4  and  C_5
REMARK    6  A    between atoms: C_5  and  C_6
REMARK    7  A    between atoms: C_6  and  N_7
REMARK    8  A    between atoms: N_7  and  C_8
REMARK    9  A    between atoms: C_11  and  N_26
REMARK   10  A    between atoms: C_17  and  O_25
REMARK   11  A    between atoms: C_20  and  O_24
REMARK   12  A    between atoms: N_26  and  C_27
REMARK   13  A    between atoms: C_27  and  C_28
REMARK   14  A    between atoms: C_28  and  C_29
REMARK   15  A    between atoms: C_29  and  C_30
REMARK   16  A    between atoms: C_30  and  N_71
REMARK   17  A    between atoms: C_31  and  N_71
REMARK   18  A    between atoms: C_32  and  N_71
REMARK                            x       y       z     vdW  Elec       q    Type
REMARK                         _______ _______ _______ _____ _____    ______ ____
ROOT
ATOM      1  C   UNL     1       1.177   2.099   0.002  0.00  0.00    +0.039 A 
ATOM      2  C   UNL     1      -0.017   1.370   0.010  0.00  0.00    +0.025 A 
ATOM      3  C   UNL     1       0.002  -0.004   0.002  0.00  0.00    +0.025 A 
ATOM      4  C   UNL     1       1.215  -0.700  -0.013  0.00  0.00    +0.039 A 
ATOM      5  C   UNL     1       2.416   0.009  -0.021  0.00  0.00    +0.056 A 
ATOM      6  C   UNL     1       2.397   1.423  -0.014  0.00  0.00    +0.056 A 
ATOM      7  C   UNL     1       3.681   2.151  -0.025  0.00  0.00    +0.200 C 
ATOM      8  O   UNL     1       3.768   3.282   0.416  0.00  0.00    -0.286 OA
ATOM      9  C   UNL     1       4.857   1.458  -0.592  0.00  0.00    +0.078 A 
ATOM     10  C   UNL     1       5.935   2.167  -1.117  0.00  0.00    +0.129 A 
ATOM     11  C   UNL     1       7.026   1.474  -1.640  0.00  0.00    +0.050 A 
ATOM     12  C   UNL     1       7.046   0.096  -1.642  0.00  0.00    +0.050 A 
ATOM     13  C   UNL     1       5.976  -0.630  -1.122  0.00  0.00    +0.129 A 
ATOM     14  C   UNL     1       4.877   0.045  -0.596  0.00  0.00    +0.078 A 
ATOM     15  C   UNL     1       3.720  -0.684  -0.036  0.00  0.00    +0.200 C 
ATOM     16  O   UNL     1       3.837  -1.815   0.399  0.00  0.00    -0.286 OA
ENDROOT
BRANCH   1  17
ATOM     17  N   UNL     1       1.148   3.486   0.010  0.00  0.00    -0.343 N 
ATOM     18  H   UNL     1       1.978   3.989   0.005  0.00  0.00    +0.146 HD
BRANCH  17  19
ATOM     19  C   UNL     1      -0.135   4.192   0.027  0.00  0.00    +0.101 C 
BRANCH  19  20
ATOM     20  C   UNL     1       0.113   5.702   0.033  0.00  0.00    +0.017 C 
BRANCH  20  21
ATOM     21  C   UNL     1      -1.228   6.439   0.050  0.00  0.00    -0.017 C 
BRANCH  21  22
ATOM     22  C   UNL     1      -0.980   7.949   0.057  0.00  0.00    -0.080 C 
BRANCH  22  25
ATOM     23  C   UNL     1      -2.985   8.415   1.332  0.00  0.00    -0.097 C 
ATOM     24  C   UNL     1      -2.080  10.095  -0.159  0.00  0.00    -0.097 C 
ATOM     25  N   UNL     1      -2.283   8.646   0.052  0.00  0.00    +0.376 N 
ATOM     26  H   UNL     1      -2.857   8.275  -0.715  0.00  0.00    -0.083 HD
ENDBRANCH  22  25
ENDBRANCH  21  22
ENDBRANCH  20  21
ENDBRANCH  19  20
ENDBRANCH  17  19
ENDBRANCH   1  17
BRANCH  13  27
ATOM     27  O   UNL     1       6.005  -1.986  -1.127  0.00  0.00    -0.506 OA
ATOM     28  H   UNL     1       5.629  -2.385  -1.924  0.00  0.00    +0.292 HD
ENDBRANCH  13  27
BRANCH  10  29
ATOM     29  O   UNL     1       5.924   3.523  -1.119  0.00  0.00    -0.506 OA
ATOM     30  H   UNL     1       5.536   3.912  -1.915  0.00  0.00    +0.292 HD
ENDBRANCH  10  29
BRANCH   4  31
ATOM     31  N   UNL     1       1.224  -2.087  -0.022  0.00  0.00    -0.343 N 
ATOM     32  H   UNL     1       2.067  -2.567  -0.032  0.00  0.00    +0.146 HD
BRANCH  31  33
ATOM     33  C   UNL     1      -0.040  -2.828  -0.014  0.00  0.00    +0.101 C 
BRANCH  33  34
ATOM     34  C   UNL     1       0.249  -4.330  -0.025  0.00  0.00    +0.017 C 
BRANCH  34  35
ATOM     35  C   UNL     1      -1.071  -5.104  -0.018  0.00  0.00    -0.017 C 
BRANCH  35  36
ATOM     36  C   UNL     1      -0.782  -6.606  -0.029  0.00  0.00    -0.080 C 
BRANCH  36  39
ATOM     37  C   UNL     1      -1.824  -8.779  -0.270  0.00  0.00    -0.097 C 
ATOM     38  C   UNL     1      -2.774  -7.142   1.240  0.00  0.00    -0.097 C 
ATOM     39  N   UNL     1      -2.066  -7.338  -0.043  0.00  0.00    +0.376 N 
ATOM     40  H   UNL     1      -2.650  -6.974  -0.805  0.00  0.00    -0.083 HD
ENDBRANCH  36  39
ENDBRANCH  35  36
ENDBRANCH  34  35
ENDBRANCH  33  34
ENDBRANCH  31  33
ENDBRANCH   4  31
TORSDOF 14
