REMARK  Name = ZINC23333008
REMARK  12 active torsions:
REMARK  status: ('A' for Active; 'I' for Inactive)
REMARK    1  A    between atoms: C_1  and  C_2
REMARK    2  A    between atoms: C_2  and  N_3
REMARK    3  A    between atoms: N_3  and  C_4
REMARK    4  A    between atoms: N_3  and  C_6
REMARK    5  A    between atoms: C_4  and  C_5
REMARK    6  A    between atoms: C_6  and  C_7
REMARK    7  A    between atoms: C_7  and  C_8
REMARK    8  A    between atoms: C_8  and  C_9
REMARK    9  A    between atoms: C_9  and  C_11
REMARK   10  A    between atoms: C_9  and  N_12
REMARK   11  A    between atoms: C_13  and  C_15
REMARK   12  A    between atoms: C_18  and  C_21
REMARK                            x       y       z     vdW  Elec       q    Type
REMARK                         _______ _______ _______ _____ _____    ______ ____
ROOT
ATOM      1  C   UNL     1       2.494   3.564  -1.183  0.00  0.00    +0.037 A 
ATOM      2  C   UNL     1       2.094   2.903  -2.348  0.00  0.00    +0.014 A 
ATOM      3  C   UNL     1       1.182   1.882  -2.277  0.00  0.00    +0.011 A 
ATOM      4  C   UNL     1       0.652   1.503  -1.041  0.00  0.00    +0.000 A 
ATOM      5  C   UNL     1       1.048   2.167   0.122  0.00  0.00    +0.011 A 
ATOM      6  C   UNL     1       1.965   3.184   0.053  0.00  0.00    +0.014 A 
ENDROOT
BRANCH   4   7
ATOM      7  C   UNL     1      -0.332   0.403  -0.966  0.00  0.00    +0.069 A 
ATOM      8  C   UNL     1      -0.332  -0.615  -0.066  0.00  0.00    +0.006 A 
ATOM      9  C   UNL     1      -1.446  -1.431  -0.348  0.00  0.00    +0.097 A 
ATOM     10  N   UNL     1      -2.083  -0.939  -1.372  0.00  0.00    -0.173 NA
ATOM     11  N   UNL     1      -1.410   0.222  -1.788  0.00  0.00    -0.276 N 
ATOM     12  H   UNL     1      -1.606   0.936  -2.602  0.00  0.00    +0.189 HD
ATOM     13  C   UNL     1      -1.726  -2.627   0.488  0.00  0.00    +0.006 A 
ATOM     14  C   UNL     1      -2.071  -3.851  -0.060  0.00  0.00    +0.010 A 
ATOM     15  C   UNL     1      -2.252  -4.941   0.772  0.00  0.00    +0.001 A 
ATOM     16  C   UNL     1      -2.083  -4.805   2.139  0.00  0.00    +0.000 A 
ATOM     17  C   UNL     1      -1.764  -3.576   2.690  0.00  0.00    +0.004 A 
ATOM     18  C   UNL     1      -1.615  -2.476   1.873  0.00  0.00    -0.038 A 
ATOM     19  C   UNL     1      -1.444  -1.098   2.436  0.00  0.00    +0.036 C 
ATOM     20  C   UNL     1      -0.003  -0.584   2.406  0.00  0.00    +0.009 C 
ATOM     21  C   UNL     1       0.634  -0.896   1.048  0.00  0.00    +0.040 C 
ENDBRANCH   4   7
BRANCH   1  23
ATOM     22  N   UNL     1       3.864   5.301  -0.136  0.00  0.00    -0.309 N 
ATOM     23  C   UNL     1       3.478   4.664  -1.259  0.00  0.00    +0.244 C 
ATOM     24  O   UNL     1       3.939   4.994  -2.335  0.00  0.00    -0.270 OA
ATOM     25  H   UNL     1       3.446   5.002   0.837  0.00  0.00    +0.149 HD
BRANCH  22  26
ATOM     26  C   UNL     1       4.839   6.392  -0.211  0.00  0.00    +0.070 C 
ATOM     27  C   UNL     1       4.115   7.702  -0.531  0.00  0.00    +0.028 C 
BRANCH  26  28
ATOM     28  C   UNL     1       5.562   6.522   1.131  0.00  0.00    +0.020 C 
BRANCH  28  29
ATOM     29  C   UNL     1       6.386   5.260   1.391  0.00  0.00    -0.017 C 
BRANCH  29  30
ATOM     30  C   UNL     1       7.109   5.391   2.733  0.00  0.00    -0.079 C 
BRANCH  30  31
ATOM     31  N   UNL     1       7.900   4.178   2.983  0.00  0.00    +0.379 N 
ATOM     32  H   UNL     1       7.236   3.310   2.861  0.00  0.00    -0.082 HD
BRANCH  31  34
ATOM     33  C   UNL     1       9.927   5.257   2.130  0.00  0.00    -0.017 C 
ATOM     34  C   UNL     1       8.992   4.052   2.009  0.00  0.00    -0.082 C 
ENDBRANCH  31  34
BRANCH  31  35
ATOM     35  C   UNL     1       8.417   4.162   4.358  0.00  0.00    -0.082 C 
ATOM     36  C   UNL     1       8.888   2.748   4.709  0.00  0.00    -0.017 C 
ENDBRANCH  31  35
ENDBRANCH  30  31
ENDBRANCH  29  30
ENDBRANCH  28  29
ENDBRANCH  26  28
ENDBRANCH  22  26
ENDBRANCH   1  23
TORSDOF 9
