REMARK  Name = ZINC57501154
REMARK  4 active torsions:
REMARK  status: ('A' for Active; 'I' for Inactive)
REMARK    1  A    between atoms: C_1  and  C_2
REMARK    2  A    between atoms: C_2  and  C_22
REMARK    3  A    between atoms: N_5  and  C_9
REMARK    4  A    between atoms: C_9  and  C_10
REMARK                            x       y       z     vdW  Elec       q    Type
REMARK                         _______ _______ _______ _____ _____    ______ ____
ROOT
ATOM      1  C   UNL     1      -2.601  -3.391   1.225  0.00  0.00    -0.012 A 
ATOM      2  C   UNL     1      -2.081  -4.420   1.941  0.00  0.00    +0.098 A 
ATOM      3  C   UNL     1      -2.101  -5.727   1.407  0.00  0.00    +0.338 A 
ATOM      4  O   UNL     1      -1.631  -6.642   2.059  0.00  0.00    -0.245 OA
ATOM      5  O   UNL     1      -2.626  -5.987   0.200  0.00  0.00    -0.422 OA
ATOM      6  C   UNL     1      -3.159  -5.009  -0.563  0.00  0.00    +0.140 A 
ATOM      7  C   UNL     1      -3.177  -3.684  -0.091  0.00  0.00    +0.022 A 
ATOM      8  C   UNL     1      -3.733  -2.670  -0.876  0.00  0.00    +0.013 A 
ATOM      9  C   UNL     1      -4.262  -2.974  -2.099  0.00  0.00    +0.016 A 
ATOM     10  C   UNL     1      -4.251  -4.281  -2.567  0.00  0.00    +0.021 A 
ATOM     11  C   UNL     1      -3.697  -5.294  -1.810  0.00  0.00    +0.062 A 
ATOM     12 BR   UNL     1      -4.990  -4.675  -4.262  0.00  0.00    -0.050 Br
ENDROOT
BRANCH   1  13
ATOM     13  C   UNL     1      -2.593  -1.987   1.771  0.00  0.00    +0.154 C 
BRANCH  13  18
ATOM     14  C   UNL     1      -0.019   1.526   0.010  0.00  0.00    +0.041 C 
ATOM     15  C   UNL     1       0.002  -0.004   0.002  0.00  0.00    +0.107 C 
ATOM     16  C   UNL     1      -1.404  -0.557   0.121  0.00  0.00    +0.246 C 
ATOM     17  O   UNL     1      -2.324  -0.392  -0.652  0.00  0.00    -0.273 OA
ATOM     18  N   UNL     1      -1.419  -1.272   1.263  0.00  0.00    -0.220 N 
ATOM     19  C   UNL     1      -0.231  -1.248   1.876  0.00  0.00    +0.310 C 
ATOM     20  O   UNL     1       0.001  -1.819   2.923  0.00  0.00    -0.252 OA
ATOM     21  N   UNL     1       0.679  -0.520   1.204  0.00  0.00    -0.285 N 
ATOM     22  C   UNL     1       0.684  -0.525  -1.265  0.00  0.00    +0.041 C 
ATOM     23  H   UNL     1       1.602  -0.365   1.461  0.00  0.00    +0.151 HD
ENDBRANCH  13  18
ENDBRANCH   1  13
TORSDOF 2
