REMARK  Name = ZINC52505864
REMARK  9 active torsions:
REMARK  status: ('A' for Active; 'I' for Inactive)
REMARK    1  A    between atoms: C_1  and  C_2
REMARK    2  A    between atoms: C_4  and  C_7
REMARK    3  A    between atoms: C_7  and  N_8
REMARK    4  A    between atoms: N_8  and  C_9
REMARK    5  A    between atoms: N_8  and  C_10
REMARK    6  A    between atoms: C_10  and  C_11
REMARK    7  A    between atoms: C_11  and  N_12
REMARK    8  A    between atoms: C_14  and  C_17
REMARK    9  A    between atoms: C_17  and  N_18
REMARK                            x       y       z     vdW  Elec       q    Type
REMARK                         _______ _______ _______ _____ _____    ______ ____
ROOT
ATOM      1  C   UNL     1      -3.504  -4.338   1.387  0.00  0.00    -0.055 C 
ENDROOT
BRANCH   1   2
ATOM      2  N   UNL     1      -2.448  -3.317   1.375  0.00  0.00    +0.383 N 
ATOM      3  C   UNL     1      -2.974  -2.062   1.929  0.00  0.00    -0.096 C 
ATOM      4  H   UNL     1      -1.670  -3.631   1.935  0.00  0.00    -0.082 HD
BRANCH   2   5
ATOM      5  C   UNL     1      -1.999  -3.093  -0.006  0.00  0.00    -0.022 C 
BRANCH   5   9
ATOM      6  C   UNL     1      -0.018   1.503   0.010  0.00  0.00    +0.073 C 
ATOM      7  C   UNL     1       0.002  -0.004   0.002  0.00  0.00    +0.075 A 
ATOM      8  N   UNL     1      -1.013  -0.832   0.002  0.00  0.00    -0.251 NA
ATOM      9  C   UNL     1      -0.834  -2.137  -0.006  0.00  0.00    +0.032 A 
ATOM     10  C   UNL     1       0.449  -2.582  -0.014  0.00  0.00    +0.068 A 
ATOM     11  S   UNL     1       1.335  -1.032  -0.017  0.00  0.00    -0.081 S 
ENDBRANCH   5   9
ENDBRANCH   2   5
ENDBRANCH   1   2
BRANCH   1  12
ATOM     12  C   UNL     1      -3.884  -4.662   2.833  0.00  0.00    +0.127 C 
BRANCH  12  13
ATOM     13  N   UNL     1      -4.937  -5.681   2.845  0.00  0.00    -0.253 N 
ATOM     14  C   UNL     1      -4.891  -6.861   3.504  0.00  0.00    +0.131 A 
ATOM     15  C   UNL     1      -6.063  -7.485   3.243  0.00  0.00    +0.066 A 
ATOM     16  N   UNL     1      -6.760  -6.667   2.447  0.00  0.00    -0.136 NA
ATOM     17  N   UNL     1      -6.068  -5.604   2.234  0.00  0.00    -0.066 NA
BRANCH  15  18
ATOM     18  C   UNL     1      -6.497  -8.837   3.749  0.00  0.00    -0.027 C 
BRANCH  18  19
ATOM     19  N   UNL     1      -7.308  -8.668   4.962  0.00  0.00    +0.382 N 
ATOM     20  H   UNL     1      -6.759  -8.204   5.671  0.00  0.00    -0.090 HD
ATOM     21  H   UNL     1      -8.121  -8.111   4.749  0.00  0.00    -0.090 HD
ATOM     22  H   UNL     1      -7.598  -9.573   5.301  0.00  0.00    -0.090 HD
ENDBRANCH  18  19
ENDBRANCH  15  18
ENDBRANCH  12  13
ENDBRANCH   1  12
TORSDOF 7
