REMARK  Name = ZINC39946908
REMARK  6 active torsions:
REMARK  status: ('A' for Active; 'I' for Inactive)
REMARK    1  A    between atoms: C_2  and  O_22
REMARK    2  A    between atoms: C_4  and  C_20
REMARK    3  A    between atoms: C_7  and  N_9
REMARK    4  A    between atoms: C_15  and  N_19
REMARK    5  A    between atoms: C_20  and  O_21
REMARK    6  A    between atoms: O_22  and  P_23
REMARK                            x       y       z     vdW  Elec       q    Type
REMARK                         _______ _______ _______ _____ _____    ______ ____
ROOT
ATOM      1  C   UNL     1      -0.019   1.540   0.011  0.00  0.00    +0.086 C 
ATOM      2  C   UNL     1       1.494   1.890  -0.002  0.00  0.00    +0.165 C 
ATOM      3  C   UNL     1       2.056   0.734  -0.867  0.00  0.00    +0.175 C 
ATOM      4  O   UNL     1       1.275  -0.417  -0.510  0.00  0.00    -0.350 OA
ATOM      5  C   UNL     1       0.002  -0.004   0.002  0.00  0.00    +0.212 C 
ENDROOT
BRANCH   5   6
ATOM      6  N   UNL     1      -1.068  -0.511  -0.860  0.00  0.00    -0.268 N 
ATOM      7  C   UNL     1      -2.510  -0.271  -0.707  0.00  0.00    +0.253 C 
ATOM      8  N   UNL     1      -3.173  -0.982  -1.807  0.00  0.00    -0.256 NA
ATOM      9  C   UNL     1      -2.275  -1.567  -2.523  0.00  0.00    +0.164 C 
ATOM     10  C   UNL     1      -0.924  -1.294  -1.968  0.00  0.00    +0.158 C 
ATOM     11  N   UNL     1       0.117  -1.813  -2.584  0.00  0.00    -0.198 NA
ATOM     12  C   UNL     1      -0.019  -2.562  -3.679  0.00  0.00    +0.226 C 
ATOM     13  N   UNL     1      -1.174  -2.857  -4.247  0.00  0.00    -0.141 NA
ATOM     14  C   UNL     1      -2.337  -2.420  -3.747  0.00  0.00    +0.291 C 
ATOM     15  O   UNL     1      -3.399  -2.694  -4.276  0.00  0.00    -0.266 OA
BRANCH  12  16
ATOM     16  N   UNL     1       1.120  -3.062  -4.255  0.00  0.00    -0.234 NA
ATOM     17  H   UNL     1       1.060  -3.611  -5.052  0.00  0.00    +0.173 HD
ENDBRANCH  12  16
ENDBRANCH   5   6
BRANCH   3  18
ATOM     18  C   UNL     1       3.533   0.497  -0.543  0.00  0.00    +0.190 C 
BRANCH  18  19
ATOM     19  O   UNL     1       4.063  -0.490  -1.429  0.00  0.00    -0.392 OA
ATOM     20  H   UNL     1       4.997  -0.691  -1.281  0.00  0.00    +0.210 HD
ENDBRANCH  18  19
ENDBRANCH   3  18
BRANCH   2  21
ATOM     21  O   UNL     1       2.041   1.859   1.318  0.00  0.00    -0.277 OA
BRANCH  21  22
ATOM     22  P   UNL     1       2.751   3.132   2.002  0.00  0.00    +0.532 P 
ATOM     23  O   UNL     1       3.904   3.648   1.076  0.00  0.00    -0.222 OA
ATOM     24  O   UNL     1       1.696   4.271   2.207  0.00  0.00    -0.115 OA
ATOM     25  O   UNL     1       3.345   2.714   3.391  0.00  0.00    -0.115 OA
ENDBRANCH  21  22
ENDBRANCH   2  21
TORSDOF 6
