REMARK  Name = ZINC40823697
REMARK  4 active torsions:
REMARK  status: ('A' for Active; 'I' for Inactive)
REMARK    1  A    between atoms: C_1  and  C_2
REMARK    2  A    between atoms: C_6  and  C_7
REMARK    3  A    between atoms: N_14  and  N_15
REMARK    4  A    between atoms: C_16  and  C_18
REMARK                            x       y       z     vdW  Elec       q    Type
REMARK                         _______ _______ _______ _____ _____    ______ ____
ROOT
ATOM      1  C   UNL     1      -0.018   1.503   0.010  0.00  0.00    +0.048 C 
ATOM      2  C   UNL     1       0.002  -0.004   0.002  0.00  0.00    +0.009 A 
ATOM      3  C   UNL     1       0.008  -0.838  -1.123  0.00  0.00    +0.042 A 
ATOM      4  C   UNL     1       0.026  -2.137  -0.673  0.00  0.00    +0.115 A 
ATOM      5  O   UNL     1       0.034  -2.112   0.658  0.00  0.00    -0.454 OA
ATOM      6  C   UNL     1       0.024  -0.830   1.091  0.00  0.00    +0.193 A 
ATOM      7  C   UNL     1       0.032  -3.326  -1.599  0.00  0.00    +0.075 C 
ATOM      8  C   UNL     1      -0.492  -2.903  -2.974  0.00  0.00    +0.014 C 
ATOM      9  C   UNL     1       0.279  -1.685  -3.495  0.00  0.00    +0.058 C 
ATOM     10  C   UNL     1       0.001  -0.512  -2.566  0.00  0.00    +0.070 C 
ATOM     11  N   UNL     1      -0.227   0.686  -3.008  0.00  0.00    -0.184 NA
ENDROOT
BRANCH   6  12
ATOM     12  C   UNL     1       0.032  -0.400   2.493  0.00  0.00    +0.277 C 
ATOM     13  O   UNL     1       0.019   0.786   2.766  0.00  0.00    -0.267 OA
ATOM     14  N   UNL     1       0.055  -1.317   3.480  0.00  0.00    -0.323 N 
ATOM     15  H   UNL     1       0.065  -2.263   3.263  0.00  0.00    +0.145 HD
ATOM     16  H   UNL     1       0.060  -1.032   4.407  0.00  0.00    +0.145 HD
ENDBRANCH   6  12
BRANCH  11  17
ATOM     17  N   UNL     1      -0.222   0.938  -4.386  0.00  0.00    -0.202 N 
ATOM     18  C   UNL     1      -0.459   2.183  -4.845  0.00  0.00    +0.270 C 
ATOM     19  O   UNL     1      -0.677   3.089  -4.061  0.00  0.00    -0.268 OA
ATOM     20  H   UNL     1      -0.048   0.216  -5.010  0.00  0.00    +0.178 HD
BRANCH  18  21
ATOM     21  C   UNL     1      -0.453   2.446  -6.286  0.00  0.00    +0.075 A 
ATOM     22  C   UNL     1      -0.665   3.641  -6.958  0.00  0.00    +0.021 A 
ATOM     23  C   UNL     1      -0.596   3.575  -8.329  0.00  0.00    +0.008 A 
ATOM     24  C   UNL     1      -0.333   2.383  -8.919  0.00  0.00    +0.046 A 
ATOM     25  S   UNL     1      -0.165   1.315  -7.634  0.00  0.00    -0.092 S 
ENDBRANCH  18  21
ENDBRANCH  11  17
TORSDOF 3
