REMARK  Name = ZINC01879082
REMARK  9 active torsions:
REMARK  status: ('A' for Active; 'I' for Inactive)
REMARK    1  A    between atoms: C_3  and  C_8
REMARK    2  A    between atoms: C_8  and  O_9
REMARK    3  A    between atoms: O_9  and  C_10
REMARK    4  A    between atoms: C_13  and  C_16
REMARK    5  A    between atoms: N_17  and  N_18
REMARK    6  A    between atoms: C_19  and  C_21
REMARK    7  A    between atoms: C_22  and  C_32
REMARK    8  A    between atoms: C_32  and  S_33
REMARK    9  A    between atoms: S_33  and  C_34
REMARK                            x       y       z     vdW  Elec       q    Type
REMARK                         _______ _______ _______ _____ _____    ______ ____
ROOT
ATOM      1  N   UNL     1      10.506   6.218   3.400  0.00  0.00    -0.202 N 
ATOM      2  C   UNL     1      10.963   6.471   4.642  0.00  0.00    +0.285 C 
ATOM      3  O   UNL     1      10.338   6.082   5.611  0.00  0.00    -0.267 OA
ATOM      4  H   UNL     1      11.004   6.527   2.627  0.00  0.00    +0.178 HD
ENDROOT
BRANCH   2   5
ATOM      5  C   UNL     1      12.220   7.218   4.828  0.00  0.00    +0.173 A 
ATOM      6  C   UNL     1      12.792   7.534   6.027  0.00  0.00    +0.089 A 
ATOM      7  N   UNL     1      13.926   8.217   5.752  0.00  0.00    -0.191 N 
ATOM      8  N   UNL     1      14.018   8.301   4.355  0.00  0.00    -0.058 NA
ATOM      9  N   UNL     1      13.001   7.699   3.844  0.00  0.00    -0.124 NA
ATOM     10  C   UNL     1      14.833   8.739   6.681  0.00  0.00    +0.240 A 
ATOM     11  C   UNL     1      16.055   9.482   6.362  0.00  0.00    +0.206 A 
ATOM     12  N   UNL     1      16.641   9.807   7.482  0.00  0.00    -0.032 NA
ATOM     13  O   UNL     1      15.851   9.306   8.546  0.00  0.00    -0.239 OA
ATOM     14  N   UNL     1      14.731   8.652   7.977  0.00  0.00    -0.027 NA
ATOM     15  N   UNL     1      16.512   9.789   5.085  0.00  0.00    -0.337 N 
ATOM     16  H   UNL     1      16.006   9.504   4.308  0.00  0.00    +0.144 HD
ATOM     17  H   UNL     1      17.336  10.288   4.972  0.00  0.00    +0.144 HD
BRANCH   6  18
ATOM     18  C   UNL     1      12.261   7.188   7.395  0.00  0.00    +0.134 C 
BRANCH  18  19
ATOM     19  S   UNL     1      11.172   8.518   7.974  0.00  0.00    -0.093 S 
BRANCH  19  20
ATOM     20  C   UNL     1      10.640   7.971   9.562  0.00  0.00    +0.126 C 
ATOM     21  N   UNL     1      10.970   6.865  10.168  0.00  0.00    -0.270 NA
ATOM     22  C   UNL     1      10.432   6.532  11.474  0.00  0.00    +0.154 C 
ATOM     23  C   UNL     1       9.859   7.791  12.181  0.00  0.00    +0.099 C 
ATOM     24  S   UNL     1       9.540   8.819  10.685  0.00  0.00    -0.098 S 
ENDBRANCH  19  20
ENDBRANCH  18  19
ENDBRANCH   6  18
ENDBRANCH   2   5
BRANCH   1  26
ATOM     25  C   UNL     1       8.871   5.264   2.027  0.00  0.00    +0.138 C 
ATOM     26  N   UNL     1       9.311   5.507   3.224  0.00  0.00    -0.187 NA
BRANCH  25  30
ATOM     27  C   UNL     1       5.252   3.110   1.494  0.00  0.00    +0.121 A 
ATOM     28  C   UNL     1       5.963   3.553   0.387  0.00  0.00    +0.046 A 
ATOM     29  C   UNL     1       7.139   4.253   0.555  0.00  0.00    +0.013 A 
ATOM     30  C   UNL     1       7.614   4.516   1.842  0.00  0.00    -0.005 A 
ATOM     31  C   UNL     1       6.895   4.069   2.953  0.00  0.00    +0.013 A 
ATOM     32  C   UNL     1       5.718   3.374   2.776  0.00  0.00    +0.046 A 
BRANCH  27  33
ATOM     33  O   UNL     1       4.094   2.421   1.323  0.00  0.00    -0.487 OA
BRANCH  33  34
ATOM     34  C   UNL     1       3.672   2.184  -0.021  0.00  0.00    +0.264 C 
BRANCH  34  37
ATOM     35  C   UNL     1      -0.017   1.378   0.010  0.00  0.00    +0.002 A 
ATOM     36  C   UNL     1       1.171   2.086   0.002  0.00  0.00    +0.007 A 
ATOM     37  C   UNL     1       2.378   1.412  -0.013  0.00  0.00    -0.009 A 
ATOM     38  C   UNL     1       2.398   0.029  -0.021  0.00  0.00    +0.027 A 
ATOM     39  C   UNL     1       1.210  -0.679  -0.013  0.00  0.00    +0.041 A 
ATOM     40  C   UNL     1       0.002  -0.004   0.002  0.00  0.00    +0.020 A 
ATOM     41 CL   UNL     1       1.234  -2.415  -0.024  0.00  0.00    -0.084 Cl
ENDBRANCH  34  37
ENDBRANCH  33  34
ENDBRANCH  27  33
ENDBRANCH  25  30
ENDBRANCH   1  26
TORSDOF 9
