REMARK  Name = ZINC20927478
REMARK  7 active torsions:
REMARK  status: ('A' for Active; 'I' for Inactive)
REMARK    1  A    between atoms: C_1  and  C_2
REMARK    2  A    between atoms: C_2  and  N_3
REMARK    3  A    between atoms: C_9  and  N_24
REMARK    4  A    between atoms: C_10  and  C_11
REMARK    5  A    between atoms: C_11  and  N_12
REMARK    6  A    between atoms: N_15  and  C_16
REMARK    7  A    between atoms: C_20  and  C_22
REMARK                            x       y       z     vdW  Elec       q    Type
REMARK                         _______ _______ _______ _____ _____    ______ ____
ROOT
ATOM      1  N   UNL     1      -8.617   5.520  -3.955  0.00  0.00    +0.383 N 
ATOM      2  C   UNL     1      -8.375   4.071  -3.944  0.00  0.00    -0.074 C 
ATOM      3  C   UNL     1      -7.332   3.716  -2.882  0.00  0.00    +0.018 C 
ATOM      4  C   UNL     1      -7.772   4.333  -1.557  0.00  0.00    -0.034 A 
ATOM      5  C   UNL     1      -8.699   5.331  -1.559  0.00  0.00    -0.021 A 
ATOM      6  S   UNL     1      -8.903   5.725   0.156  0.00  0.00    -0.077 S 
ATOM      7  C   UNL     1      -7.742   4.537   0.816  0.00  0.00    +0.089 A 
ATOM      8  C   UNL     1      -7.283   3.936  -0.315  0.00  0.00    +0.004 A 
ATOM      9  C   UNL     1      -9.367   5.931  -2.752  0.00  0.00    -0.035 C 
ATOM     10  H   UNL     1      -7.642   6.029  -3.947  0.00  0.00    -0.081 HD
ENDROOT
BRANCH   7  11
ATOM     11  N   UNL     1      -7.394   4.291   2.149  0.00  0.00    -0.317 N 
ATOM     12  C   UNL     1      -8.270   4.141   3.186  0.00  0.00    +0.092 A 
ATOM     13  C   UNL     1      -7.559   3.915   4.309  0.00  0.00    +0.019 A 
ATOM     14  C   UNL     1      -6.194   3.934   3.957  0.00  0.00    +0.019 A 
ATOM     15  C   UNL     1      -6.123   4.166   2.630  0.00  0.00    +0.092 A 
ENDBRANCH   7  11
BRANCH   1  17
ATOM     16  C   UNL     1      -9.335   7.454  -5.275  0.00  0.00    -0.017 C 
ATOM     17  C   UNL     1      -9.321   5.927  -5.179  0.00  0.00    -0.082 C 
ENDBRANCH   1  17
BRANCH   8  18
ATOM     18  C   UNL     1      -6.253   2.840  -0.223  0.00  0.00    +0.144 C 
BRANCH  18  19
ATOM     19  N   UNL     1      -4.918   3.406  -0.427  0.00  0.00    -0.295 N 
ATOM     20  C   UNL     1      -3.833   2.607  -0.388  0.00  0.00    +0.304 C 
ATOM     21  O   UNL     1      -3.964   1.415  -0.184  0.00  0.00    -0.252 OA
ATOM     22  N   UNL     1      -2.605   3.128  -0.576  0.00  0.00    -0.269 N 
ATOM     23  H   UNL     1      -4.800   4.484  -0.612  0.00  0.00    +0.151 HD
ATOM     24  H   UNL     1      -2.478   4.216  -0.676  0.00  0.00    +0.156 HD
BRANCH  22  25
ATOM     25  C   UNL     1      -1.490   2.285  -0.643  0.00  0.00    +0.035 A 
ATOM     26  C   UNL     1      -1.612   1.010  -1.181  0.00  0.00    +0.024 A 
ATOM     27  C   UNL     1      -0.512   0.179  -1.242  0.00  0.00    +0.017 A 
ATOM     28  C   UNL     1       0.715   0.617  -0.776  0.00  0.00    +0.021 A 
ATOM     29  C   UNL     1       0.842   1.888  -0.244  0.00  0.00    -0.035 A 
ATOM     30  C   UNL     1      -0.257   2.723  -0.177  0.00  0.00    +0.027 A 
ATOM     31  C   UNL     1       2.179   2.363   0.262  0.00  0.00    +0.045 C 
ATOM     32 BR   UNL     1       2.221  -0.522  -0.866  0.00  0.00    -0.050 Br
ENDBRANCH  22  25
ENDBRANCH  18  19
ENDBRANCH   8  18
TORSDOF 5
