REMARK  Name = ZINC65379869
REMARK  6 active torsions:
REMARK  status: ('A' for Active; 'I' for Inactive)
REMARK    1  A    between atoms: C_1  and  N_2
REMARK    2  A    between atoms: C_3  and  C_5
REMARK    3  A    between atoms: C_5  and  N_6
REMARK    4  A    between atoms: C_9  and  N_12
REMARK    5  A    between atoms: C_19  and  C_21
REMARK    6  A    between atoms: N_23  and  C_24
REMARK                            x       y       z     vdW  Elec       q    Type
REMARK                         _______ _______ _______ _____ _____    ______ ____
ROOT
ATOM      1  N   UNL     1      -6.088  -4.734  -0.922  0.00  0.00    -0.297 N 
ATOM      2  C   UNL     1      -6.435  -5.985  -1.285  0.00  0.00    +0.302 C 
ATOM      3  O   UNL     1      -5.612  -6.721  -1.794  0.00  0.00    -0.253 OA
ATOM      4  N   UNL     1      -7.695  -6.420  -1.085  0.00  0.00    -0.285 N 
ATOM      5  C   UNL     1      -8.732  -5.507  -0.584  0.00  0.00    +0.109 C 
ATOM      6  C   UNL     1      -9.929  -5.550  -1.538  0.00  0.00    +0.020 C 
ATOM      7  C   UNL     1     -10.394  -6.999  -1.702  0.00  0.00    +0.016 C 
ATOM      8  C   UNL     1      -9.263  -7.834  -2.308  0.00  0.00    +0.092 C 
ATOM      9  C   UNL     1      -8.059  -7.815  -1.369  0.00  0.00    +0.122 C 
ATOM     10  H   UNL     1      -6.762  -4.123  -0.584  0.00  0.00    +0.151 HD
ENDROOT
BRANCH   1  14
ATOM     11  N   UNL     1      -2.510  -2.716   0.018  0.00  0.00    +0.385 N 
ATOM     12  C   UNL     1      -3.186  -2.317  -1.222  0.00  0.00    -0.076 C 
ATOM     13  C   UNL     1      -4.646  -2.773  -1.180  0.00  0.00    +0.004 C 
ATOM     14  C   UNL     1      -4.695  -4.297  -1.039  0.00  0.00    +0.071 C 
ATOM     15  C   UNL     1      -3.923  -4.708   0.218  0.00  0.00    +0.004 C 
ATOM     16  C   UNL     1      -2.490  -4.180   0.125  0.00  0.00    -0.076 C 
ATOM     17  H   UNL     1      -3.004  -2.329   0.808  0.00  0.00    -0.081 HD
BRANCH  11  18
ATOM     18  C   UNL     1      -1.131  -2.208   0.007  0.00  0.00    +0.019 C 
BRANCH  18  21
ATOM     19  C   UNL     1      -0.012   1.452   0.029  0.00  0.00    +0.128 C 
ATOM     20  N   UNL     1       0.007  -0.013   0.015  0.00  0.00    -0.320 N 
ATOM     21  C   UNL     1      -1.151  -0.702   0.022  0.00  0.00    +0.196 C 
ATOM     22  O   UNL     1      -2.209  -0.109   0.039  0.00  0.00    -0.278 OA
ATOM     23  H   UNL     1       0.854  -0.486   0.001  0.00  0.00    +0.148 HD
ENDBRANCH  18  21
ENDBRANCH  11  18
ENDBRANCH   1  14
BRANCH   8  24
ATOM     24  C   UNL     1      -9.732  -9.253  -2.499  0.00  0.00    +0.218 C 
ATOM     25  O   UNL     1     -10.860  -9.567  -2.181  0.00  0.00    -0.275 OA
ATOM     26  N   UNL     1      -8.899 -10.174  -3.022  0.00  0.00    -0.312 N 
ATOM     27  H   UNL     1      -7.997  -9.923  -3.276  0.00  0.00    +0.149 HD
BRANCH  26  28
ATOM     28  C   UNL     1      -9.355 -11.553  -3.208  0.00  0.00    +0.073 C 
ATOM     29  C   UNL     1      -8.998 -12.244  -4.526  0.00  0.00    +0.024 C 
ATOM     30  C   UNL     1      -8.290 -12.652  -3.233  0.00  0.00    +0.024 C 
ENDBRANCH  26  28
ENDBRANCH   8  24
TORSDOF 5
