REMARK  Name = ZINC64343349
REMARK  9 active torsions:
REMARK  status: ('A' for Active; 'I' for Inactive)
REMARK    1  A    between atoms: C_1  and  C_2
REMARK    2  A    between atoms: C_2  and  C_3
REMARK    3  A    between atoms: C_6  and  C_30
REMARK    4  A    between atoms: C_9  and  C_11
REMARK    5  A    between atoms: C_13  and  C_24
REMARK    6  A    between atoms: C_32  and  O_38
REMARK    7  A    between atoms: C_35  and  O_36
REMARK    8  A    between atoms: O_36  and  C_37
REMARK    9  A    between atoms: O_38  and  C_39
REMARK                            x       y       z     vdW  Elec       q    Type
REMARK                         _______ _______ _______ _____ _____    ______ ____
ROOT
ATOM      1  C   UNL     1       0.883  -0.577  -1.319  0.00  0.00    +0.235 C 
ATOM      2  O   UNL     1       1.365   0.189  -2.126  0.00  0.00    -0.274 OA
ATOM      3  N   UNL     1       0.989  -1.907  -1.506  0.00  0.00    -0.185 N 
ATOM      4  C   UNL     1       1.665  -2.564  -2.637  0.00  0.00    +0.140 C 
ATOM      5  C   UNL     1       1.478  -4.065  -2.338  0.00  0.00    +0.083 C 
ATOM      6  C   UNL     1       0.699  -4.080  -1.042  0.00  0.00    +0.055 C 
ATOM      7  N   UNL     1       0.481  -2.890  -0.658  0.00  0.00    -0.185 NA
ENDROOT
BRANCH   6   8
ATOM      8  C   UNL     1       0.254  -5.322  -0.312  0.00  0.00    +0.152 C 
ATOM      9  C   UNL     1      -0.296  -4.897   1.036  0.00  0.00    -0.014 C 
ATOM     10  C   UNL     1      -1.617  -5.253   1.323  0.00  0.00    +0.002 A 
ATOM     11  C   UNL     1      -2.207  -4.898   2.554  0.00  0.00    +0.030 A 
ATOM     12  C   UNL     1      -3.495  -5.257   2.808  0.00  0.00    +0.042 A 
ATOM     13  C   UNL     1      -4.246  -5.971   1.875  0.00  0.00    +0.022 A 
ATOM     14  C   UNL     1      -3.730  -6.342   0.671  0.00  0.00    +0.025 A 
ATOM     15  C   UNL     1      -2.405  -6.004   0.340  0.00  0.00    +0.041 A 
ATOM     16  N   UNL     1      -1.901  -6.369  -0.843  0.00  0.00    -0.284 N 
ATOM     17  C   UNL     1      -0.671  -6.091  -1.227  0.00  0.00    +0.230 C 
ATOM     18  O   UNL     1      -0.280  -6.455  -2.321  0.00  0.00    -0.274 OA
ATOM     19 CL   UNL     1      -4.218  -4.818   4.324  0.00  0.00    -0.084 Cl
ATOM     20  H   UNL     1      -2.471  -6.864  -1.452  0.00  0.00    +0.155 HD
BRANCH   9  21
ATOM     21  C   UNL     1       0.494  -4.172   1.963  0.00  0.00    -0.020 A 
ATOM     22  C   UNL     1       0.113  -2.880   2.359  0.00  0.00    +0.008 A 
ATOM     23  C   UNL     1       0.887  -2.184   3.260  0.00  0.00    +0.001 A 
ATOM     24  C   UNL     1       2.039  -2.755   3.776  0.00  0.00    +0.000 A 
ATOM     25  C   UNL     1       2.424  -4.029   3.393  0.00  0.00    +0.001 A 
ATOM     26  C   UNL     1       1.661  -4.744   2.497  0.00  0.00    +0.008 A 
ENDBRANCH   9  21
ENDBRANCH   6   8
BRANCH   4  27
ATOM     27  C   UNL     1       3.128  -2.202  -2.665  0.00  0.00    +0.020 A 
ATOM     28  C   UNL     1       3.761  -1.796  -1.506  0.00  0.00    +0.054 A 
ATOM     29  C   UNL     1       5.107  -1.463  -1.531  0.00  0.00    +0.121 A 
ATOM     30  C   UNL     1       5.817  -1.538  -2.720  0.00  0.00    +0.049 A 
ATOM     31  C   UNL     1       5.184  -1.944  -3.879  0.00  0.00    +0.049 A 
ATOM     32  C   UNL     1       3.839  -2.282  -3.852  0.00  0.00    +0.125 A 
BRANCH  32  33
ATOM     33  O   UNL     1       3.217  -2.687  -4.992  0.00  0.00    -0.495 OA
ATOM     34  C   UNL     1       4.012  -2.746  -6.178  0.00  0.00    +0.277 C 
ENDBRANCH  32  33
BRANCH  29  35
ATOM     35  O   UNL     1       5.730  -1.063  -0.391  0.00  0.00    -0.495 OA
ATOM     36  C   UNL     1       7.117  -0.736  -0.490  0.00  0.00    +0.277 C 
ENDBRANCH  29  35
ENDBRANCH   4  27
BRANCH   1  38
ATOM     37  C   UNL     1       0.187   1.488  -0.136  0.00  0.00    +0.013 C 
ATOM     38  C   UNL     1       0.165  -0.041  -0.107  0.00  0.00    +0.094 C 
ENDBRANCH   1  38
TORSDOF 6
