REMARK  Name = ZINC07920802
REMARK  12 active torsions:
REMARK  status: ('A' for Active; 'I' for Inactive)
REMARK    1  A    between atoms: C_1  and  C_2
REMARK    2  A    between atoms: C_2  and  C_3
REMARK    3  A    between atoms: C_3  and  N_4
REMARK    4  A    between atoms: C_5  and  N_26
REMARK    5  A    between atoms: C_6  and  C_13
REMARK    6  A    between atoms: C_13  and  C_15
REMARK    7  A    between atoms: C_15  and  N_52
REMARK    8  A    between atoms: C_16  and  N_52
REMARK    9  A    between atoms: C_17  and  C_18
REMARK   10  A    between atoms: C_17  and  N_52
REMARK   11  A    between atoms: C_21  and  C_25
REMARK   12  A    between atoms: C_23  and  C_24
REMARK                            x       y       z     vdW  Elec       q    Type
REMARK                         _______ _______ _______ _____ _____    ______ ____
ROOT
ATOM      1  N   UNL     1       0.117   0.790  -1.165  0.00  0.00    -0.281 N 
ATOM      2  C   UNL     1      -0.195  -0.059  -2.188  0.00  0.00    +0.116 A 
ATOM      3  C   UNL     1      -0.118  -1.445  -1.969  0.00  0.00    +0.118 A 
ATOM      4  C   UNL     1       0.288  -1.907  -0.635  0.00  0.00    +0.266 A 
ATOM      5  O   UNL     1       0.368  -3.096  -0.388  0.00  0.00    -0.267 OA
ATOM      6  N   UNL     1       0.571  -0.987   0.309  0.00  0.00    -0.274 N 
ATOM      7  H   UNL     1       0.850  -1.286   1.222  0.00  0.00    +0.173 HD
ATOM      8  C   UNL     1       0.484   0.326   0.040  0.00  0.00    +0.331 A 
ATOM      9  O   UNL     1       0.747   1.123   0.919  0.00  0.00    -0.246 OA
ENDROOT
BRANCH   2  10
ATOM     10  N   UNL     1      -0.571   0.429  -3.401  0.00  0.00    -0.344 N 
ATOM     11  H   UNL     1      -0.317   1.329  -3.662  0.00  0.00    +0.144 HD
ATOM     12  H   UNL     1      -1.092  -0.122  -4.006  0.00  0.00    +0.144 HD
ENDBRANCH   2  10
BRANCH   3  13
ATOM     13  C   UNL     1      -0.426  -2.363  -2.995  0.00  0.00    +0.155 C 
ATOM     14  O   UNL     1      -0.661  -1.963  -4.117  0.00  0.00    -0.294 OA
BRANCH  13  15
ATOM     15  C   UNL     1      -0.463  -3.840  -2.699  0.00  0.00    +0.002 C 
BRANCH  15  17
ATOM     16  C   UNL     1       0.259  -4.448  -4.929  0.00  0.00    -0.095 C 
ATOM     17  N   UNL     1      -0.828  -4.565  -3.934  0.00  0.00    +0.385 N 
ATOM     18  H   UNL     1      -1.683  -4.150  -4.324  0.00  0.00    -0.081 HD
BRANCH  17  19
ATOM     19  C   UNL     1      -1.081  -5.989  -3.628  0.00  0.00    -0.043 C 
BRANCH  19  20
ATOM     20  C   UNL     1      -1.838  -6.603  -4.778  0.00  0.00    -0.061 A 
ATOM     21  C   UNL     1      -1.192  -7.458  -5.652  0.00  0.00    +0.002 A 
ATOM     22  C   UNL     1      -1.886  -8.021  -6.706  0.00  0.00    +0.003 A 
ATOM     23  C   UNL     1      -3.226  -7.731  -6.886  0.00  0.00    -0.050 A 
ATOM     24  C   UNL     1      -3.871  -6.876  -6.012  0.00  0.00    +0.007 A 
ATOM     25  C   UNL     1      -3.179  -6.317  -4.955  0.00  0.00    -0.049 A 
ATOM     26  C   UNL     1      -3.884  -5.390  -3.998  0.00  0.00    +0.044 C 
ATOM     27  C   UNL     1      -3.983  -8.346  -8.035  0.00  0.00    +0.044 C 
ENDBRANCH  19  20
ENDBRANCH  17  19
ENDBRANCH  15  17
ENDBRANCH  13  15
ENDBRANCH   3  13
BRANCH   1  28
ATOM     28  C   UNL     1       0.044   2.237  -1.385  0.00  0.00    +0.128 C 
BRANCH  28  30
ATOM     29  C   UNL     1       1.323   4.257  -2.109  0.00  0.00    +0.005 C 
ATOM     30  C   UNL     1       1.399   2.747  -1.880  0.00  0.00    +0.018 C 
ENDBRANCH  28  30
ENDBRANCH   1  28
TORSDOF 8
