REMARK  Name = ZINC04087155
REMARK  10 active torsions:
REMARK  status: ('A' for Active; 'I' for Inactive)
REMARK    1  A    between atoms: C_1  and  C_2
REMARK    2  A    between atoms: C_2  and  C_3
REMARK    3  A    between atoms: C_2  and  N_55
REMARK    4  A    between atoms: C_9  and  N_14
REMARK    5  A    between atoms: C_10  and  C_11
REMARK    6  A    between atoms: C_15  and  C_17
REMARK    7  A    between atoms: C_20  and  O_23
REMARK    8  A    between atoms: O_23  and  C_24
REMARK    9  A    between atoms: C_24  and  C_25
REMARK   10  A    between atoms: C_24  and  C_26
REMARK                            x       y       z     vdW  Elec       q    Type
REMARK                         _______ _______ _______ _____ _____    ______ ____
ROOT
ATOM      1  C   UNL     1       1.123   4.471  -3.439  0.00  0.00    -0.073 C 
ATOM      2  C   UNL     1       0.623   3.352  -2.520  0.00  0.00    +0.018 C 
ATOM      3  C   UNL     1       1.202   3.586  -1.129  0.00  0.00    -0.027 A 
ATOM      4  C   UNL     1       2.264   4.408  -0.966  0.00  0.00    -0.021 A 
ATOM      5  S   UNL     1       2.588   4.385   0.773  0.00  0.00    -0.079 S 
ATOM      6  C   UNL     1       1.332   3.303   1.278  0.00  0.00    +0.085 A 
ATOM      7  C   UNL     1       0.695   2.980   0.087  0.00  0.00    +0.068 A 
ATOM      8  C   UNL     1       2.982   5.157  -2.044  0.00  0.00    -0.035 C 
ATOM      9  N   UNL     1       2.595   4.561  -3.346  0.00  0.00    +0.384 N 
ATOM     10  H   UNL     1       2.992   3.616  -3.412  0.00  0.00    -0.081 HD
ENDROOT
BRANCH   7  11
ATOM     11  C   UNL     1      -0.451   2.066   0.061  0.00  0.00    +0.244 C 
ATOM     12  O   UNL     1      -0.273   0.871  -0.083  0.00  0.00    -0.270 OA
ATOM     13  N   UNL     1      -1.702   2.550   0.192  0.00  0.00    -0.325 N 
ATOM     14  H   UNL     1      -2.461   1.946   0.170  0.00  0.00    +0.145 HD
ATOM     15  H   UNL     1      -1.844   3.503   0.307  0.00  0.00    +0.145 HD
ENDBRANCH   7  11
BRANCH   6  16
ATOM     16  N   UNL     1       1.037   2.865   2.559  0.00  0.00    -0.275 N 
ATOM     17  C   UNL     1       1.775   3.292   3.603  0.00  0.00    +0.249 C 
ATOM     18  O   UNL     1       2.699   4.061   3.421  0.00  0.00    -0.270 OA
ATOM     19  H   UNL     1       0.300   2.252   2.704  0.00  0.00    +0.156 HD
BRANCH  17  20
ATOM     20  C   UNL     1       1.460   2.825   4.967  0.00  0.00    +0.037 A 
ATOM     21  C   UNL     1       0.395   1.946   5.179  0.00  0.00    +0.016 A 
ATOM     22  C   UNL     1       0.109   1.508   6.453  0.00  0.00    +0.046 A 
ATOM     23  C   UNL     1       0.870   1.949   7.529  0.00  0.00    +0.121 A 
ATOM     24  C   UNL     1       1.927   2.828   7.323  0.00  0.00    +0.046 A 
ATOM     25  C   UNL     1       2.224   3.266   6.052  0.00  0.00    +0.016 A 
BRANCH  23  26
ATOM     26  O   UNL     1       0.582   1.520   8.784  0.00  0.00    -0.489 OA
BRANCH  26  27
ATOM     27  C   UNL     1       1.474   1.916   9.826  0.00  0.00    +0.167 C 
ATOM     28  C   UNL     1       1.081   3.304  10.335  0.00  0.00    +0.051 C 
ATOM     29  C   UNL     1       1.394   0.910  10.976  0.00  0.00    +0.051 C 
ENDBRANCH  26  27
ENDBRANCH  23  26
ENDBRANCH  17  20
ENDBRANCH   6  16
BRANCH   9  31
ATOM     30  C   UNL     1       4.626   5.585  -4.258  0.00  0.00    -0.014 C 
ATOM     31  C   UNL     1       3.122   5.383  -4.456  0.00  0.00    -0.074 C 
ATOM     32  C   UNL     1       2.876   4.649  -5.776  0.00  0.00    -0.014 C 
ENDBRANCH   9  31
TORSDOF 6
