REMARK  Name = ZINC02085826
REMARK  8 active torsions:
REMARK  status: ('A' for Active; 'I' for Inactive)
REMARK    1  A    between atoms: C_7  and  C_32
REMARK    2  A    between atoms: C_8  and  N_10
REMARK    3  A    between atoms: C_11  and  C_13
REMARK    4  A    between atoms: C_13  and  C_14
REMARK    5  A    between atoms: C_14  and  C_15
REMARK    6  A    between atoms: C_15  and  C_16
REMARK    7  A    between atoms: N_18  and  C_19
REMARK    8  A    between atoms: C_20  and  C_30
REMARK                            x       y       z     vdW  Elec       q    Type
REMARK                         _______ _______ _______ _____ _____    ______ ____
ROOT
ATOM      1  C   UNL     1       9.485  -2.066   0.691  0.00  0.00    +0.018 C 
ENDROOT
BRANCH   1   2
ATOM      2  C   UNL     1       8.427  -2.211  -0.405  0.00  0.00    +0.096 C 
BRANCH   2   4
ATOM      3  N   UNL     1       6.032  -1.674  -0.715  0.00  0.00    -0.279 N 
ATOM      4  C   UNL     1       7.115  -1.654   0.086  0.00  0.00    +0.218 C 
ATOM      5  O   UNL     1       7.035  -1.187   1.203  0.00  0.00    -0.275 OA
ATOM      6  H   UNL     1       6.096  -2.047  -1.608  0.00  0.00    +0.155 HD
BRANCH   3  14
ATOM      7  C   UNL     1      -0.018   1.515   0.010  0.00  0.00    +0.000 C 
ATOM      8  C   UNL     1       1.359   2.145   0.001  0.00  0.00    +0.000 C 
ATOM      9  C   UNL     1       1.819   2.156   1.462  0.00  0.00    +0.005 C 
ATOM     10  C   UNL     1       1.907   0.698   1.950  0.00  0.00    +0.043 C 
ATOM     11  C   UNL     1       2.786  -0.042   0.981  0.00  0.00    -0.004 A 
ATOM     12  C   UNL     1       2.472  -0.510  -0.241  0.00  0.00    -0.018 A 
ATOM     13  C   UNL     1       3.622  -1.097  -0.937  0.00  0.00    +0.084 A 
ATOM     14  C   UNL     1       4.824  -1.161  -0.263  0.00  0.00    +0.090 A 
ATOM     15  S   UNL     1       4.487  -0.474   1.230  0.00  0.00    -0.077 S 
ATOM     16  C   UNL     1       1.098  -0.556  -0.901  0.00  0.00    +0.037 C 
ATOM     17  C   UNL     1       0.002  -0.004   0.002  0.00  0.00    +0.005 C 
BRANCH  13  18
ATOM     18  C   UNL     1       3.501  -1.591  -2.275  0.00  0.00    +0.102 C 
ATOM     19  N   UNL     1       3.404  -1.983  -3.337  0.00  0.00    -0.191 NA
ENDBRANCH  13  18
ENDBRANCH   3  14
ENDBRANCH   2   4
ENDBRANCH   1   2
BRANCH   1  20
ATOM     20  C   UNL     1      10.816  -2.632   0.193  0.00  0.00    +0.096 C 
BRANCH  20  21
ATOM     21  C   UNL     1      11.858  -2.490   1.272  0.00  0.00    +0.218 C 
ATOM     22  O   UNL     1      11.564  -1.985   2.336  0.00  0.00    -0.275 OA
ATOM     23  N   UNL     1      13.116  -2.923   1.056  0.00  0.00    -0.279 N 
ATOM     24  H   UNL     1      13.350  -3.326   0.205  0.00  0.00    +0.155 HD
BRANCH  23  25
ATOM     25  C   UNL     1      14.075  -2.792   2.050  0.00  0.00    +0.090 A 
ATOM     26  C   UNL     1      15.401  -3.168   2.006  0.00  0.00    +0.084 A 
ATOM     27  C   UNL     1      16.227  -2.929   3.195  0.00  0.00    -0.018 A 
ATOM     28  C   UNL     1      15.534  -2.376   4.208  0.00  0.00    -0.004 A 
ATOM     29  S   UNL     1      13.894  -2.131   3.581  0.00  0.00    -0.077 S 
ATOM     30  C   UNL     1      16.004  -2.074   5.603  0.00  0.00    +0.043 C 
ATOM     31  C   UNL     1      15.997  -3.402   6.383  0.00  0.00    +0.005 C 
ATOM     32  C   UNL     1      16.823  -4.424   5.595  0.00  0.00    +0.000 C 
ATOM     33  C   UNL     1      18.228  -3.860   5.540  0.00  0.00    +0.000 C 
ATOM     34  C   UNL     1      18.439  -2.848   4.426  0.00  0.00    +0.005 C 
ATOM     35  C   UNL     1      17.717  -3.248   3.145  0.00  0.00    +0.037 C 
BRANCH  26  36
ATOM     36  C   UNL     1      15.956  -3.777   0.835  0.00  0.00    +0.102 C 
ATOM     37  N   UNL     1      16.396  -4.259  -0.095  0.00  0.00    -0.191 NA
ENDBRANCH  26  36
ENDBRANCH  23  25
ENDBRANCH  20  21
ENDBRANCH   1  20
TORSDOF 8
