REMARK  Name = ZINC36161222
REMARK  2 active torsions:
REMARK  status: ('A' for Active; 'I' for Inactive)
REMARK    1  A    between atoms: C_4  and  N_19
REMARK    2  A    between atoms: C_7  and  N_11
REMARK                            x       y       z     vdW  Elec       q    Type
REMARK                         _______ _______ _______ _____ _____    ______ ____
ROOT
ATOM      1  C   UNL     1      -0.017   1.388   0.010  0.00  0.00    +0.018 A 
ATOM      2  C   UNL     1       1.159   2.086   0.002  0.00  0.00    +0.013 A 
ATOM      3  C   UNL     1       2.362   1.359  -0.013  0.00  0.00    +0.021 A 
ATOM      4  C   UNL     1       3.611   2.013  -0.021  0.00  0.00    +0.034 A 
ATOM      5  C   UNL     1       4.770   1.267  -0.036  0.00  0.00    +0.025 A 
ATOM      6  C   UNL     1       4.721  -0.124  -0.043  0.00  0.00    +0.027 A 
ATOM      7  C   UNL     1       3.515  -0.789  -0.036  0.00  0.00    +0.054 A 
ATOM      8  C   UNL     1       2.309  -0.056  -0.020  0.00  0.00    +0.070 A 
ATOM      9  N   UNL     1       1.127  -0.678  -0.012  0.00  0.00    -0.359 N 
ATOM     10  C   UNL     1       0.002  -0.004   0.002  0.00  0.00    +0.083 A 
ATOM     11  H   UNL     1       1.100  -1.648  -0.017  0.00  0.00    +0.165 HD
ENDROOT
BRANCH   7  12
ATOM     12  N   UNL     1       3.486  -2.188  -0.044  0.00  0.00    -0.325 N 
ATOM     13  C   UNL     1       3.464  -2.904  -1.321  0.00  0.00    +0.128 C 
ATOM     14  C   UNL     1       4.755  -3.716  -1.473  0.00  0.00    +0.184 C 
ATOM     15  S   UNL     1       4.899  -4.859  -0.067  0.00  0.00    -0.028 S 
ATOM     16  O   UNL     1       6.202  -5.425  -0.077  0.00  0.00    -0.174 OA
ATOM     17  O   UNL     1       3.769  -5.721  -0.068  0.00  0.00    -0.174 OA
ATOM     18  C   UNL     1       4.769  -3.733   1.354  0.00  0.00    +0.184 C 
ATOM     19  C   UNL     1       3.483  -2.920   1.223  0.00  0.00    +0.128 C 
ENDBRANCH   7  12
BRANCH   4  20
ATOM     20  N   UNL     1       3.674   3.408  -0.014  0.00  0.00    -0.357 N 
ATOM     21  H   UNL     1       2.857   3.930  -0.004  0.00  0.00    +0.142 HD
ATOM     22  H   UNL     1       4.535   3.855  -0.020  0.00  0.00    +0.142 HD
ENDBRANCH   4  20
TORSDOF 2
