REMARK  Name = ZINC08828649
REMARK  13 active torsions:
REMARK  status: ('A' for Active; 'I' for Inactive)
REMARK    1  A    between atoms: C_1  and  C_2
REMARK    2  A    between atoms: C_2  and  C_3
REMARK    3  A    between atoms: C_3  and  C_4
REMARK    4  A    between atoms: C_4  and  C_37
REMARK    5  A    between atoms: C_9  and  C_12
REMARK    6  A    between atoms: C_15  and  O_20
REMARK    7  A    between atoms: C_17  and  O_18
REMARK    8  A    between atoms: O_18  and  C_19
REMARK    9  A    between atoms: O_20  and  C_21
REMARK   10  A    between atoms: N_24  and  C_27
REMARK   11  A    between atoms: C_37  and  O_39
REMARK   12  A    between atoms: O_39  and  C_40
REMARK   13  A    between atoms: C_40  and  C_41
REMARK                            x       y       z     vdW  Elec       q    Type
REMARK                         _______ _______ _______ _____ _____    ______ ____
ROOT
ATOM      1  C   UNL     1       0.574  -1.894  -1.533  0.00  0.00    +0.044 C 
ATOM      2  C   UNL     1       1.632  -2.378  -2.547  0.00  0.00    +0.086 C 
ATOM      3  C   UNL     1       2.888  -2.693  -1.692  0.00  0.00    +0.077 C 
ATOM      4  C   UNL     1       2.477  -2.355  -0.243  0.00  0.00    -0.023 C 
ATOM      5  N   UNL     1       0.991  -2.492  -0.239  0.00  0.00    +0.395 N 
ATOM      6  C   UNL     1       3.047  -4.190  -1.843  0.00  0.00    +0.229 C 
ATOM      7  O   UNL     1       3.918  -4.857  -1.329  0.00  0.00    -0.275 OA
ATOM      8  N   UNL     1       2.074  -4.662  -2.631  0.00  0.00    -0.210 N 
ATOM      9  C   UNL     1       1.216  -3.724  -3.095  0.00  0.00    +0.229 C 
ATOM     10  O   UNL     1       0.268  -3.921  -3.825  0.00  0.00    -0.275 OA
ATOM     11  H   UNL     1       0.596  -1.975   0.533  0.00  0.00    -0.083 HD
ATOM     12  H   UNL     1       0.716  -3.462  -0.193  0.00  0.00    -0.083 HD
ENDROOT
BRANCH   8  13
ATOM     13  C   UNL     1       1.956  -6.021  -2.959  0.00  0.00    +0.048 A 
ATOM     14  C   UNL     1       0.881  -6.759  -2.483  0.00  0.00    +0.028 A 
ATOM     15  C   UNL     1       0.765  -8.098  -2.804  0.00  0.00    +0.051 A 
ATOM     16  C   UNL     1       1.720  -8.708  -3.603  0.00  0.00    +0.162 A 
ATOM     17  C   UNL     1       2.796  -7.971  -4.083  0.00  0.00    +0.164 A 
ATOM     18  C   UNL     1       2.910  -6.627  -3.764  0.00  0.00    +0.073 A 
ATOM     19  O   UNL     1       3.740  -8.550  -4.875  0.00  0.00    -0.485 OA
ATOM     20  C   UNL     1       3.792  -9.981  -4.873  0.00  0.00    +0.270 C 
ATOM     21  C   UNL     1       2.360 -10.514  -5.012  0.00  0.00    +0.270 C 
ATOM     22  O   UNL     1       1.591 -10.030  -3.906  0.00  0.00    -0.485 OA
ENDBRANCH   8  13
BRANCH   4  23
ATOM     23  C   UNL     1       3.085  -3.342   0.719  0.00  0.00    -0.019 A 
ATOM     24  C   UNL     1       2.364  -4.452   1.117  0.00  0.00    +0.009 A 
ATOM     25  C   UNL     1       2.919  -5.359   2.000  0.00  0.00    +0.046 A 
ATOM     26  C   UNL     1       4.202  -5.157   2.489  0.00  0.00    +0.124 A 
ATOM     27  C   UNL     1       4.927  -4.045   2.091  0.00  0.00    +0.091 A 
ATOM     28  C   UNL     1       4.370  -3.139   1.201  0.00  0.00    +0.125 A 
BRANCH  28  29
ATOM     29  O   UNL     1       5.081  -2.051   0.804  0.00  0.00    -0.495 OA
ATOM     30  C   UNL     1       6.398  -1.906   1.340  0.00  0.00    +0.277 C 
ENDBRANCH  28  29
BRANCH  26  31
ATOM     31  O   UNL     1       4.747  -6.049   3.357  0.00  0.00    -0.495 OA
ATOM     32  C   UNL     1       3.942  -7.172   3.724  0.00  0.00    +0.277 C 
ENDBRANCH  26  31
ENDBRANCH   4  23
BRANCH   1  33
ATOM     33  C   UNL     1      -0.795  -2.388  -1.922  0.00  0.00    +0.297 C 
ATOM     34  O   UNL     1      -1.532  -1.681  -2.568  0.00  0.00    -0.252 OA
BRANCH  33  35
ATOM     35  O   UNL     1      -1.197  -3.614  -1.552  0.00  0.00    -0.466 OA
BRANCH  35  36
ATOM     36  C   UNL     1      -2.507  -4.018  -1.956  0.00  0.00    +0.228 C 
ATOM     37  C   UNL     1      -2.785  -5.433  -1.446  0.00  0.00    +0.048 C 
ENDBRANCH  35  36
ENDBRANCH  33  35
ENDBRANCH   1  33
BRANCH   1  38
ATOM     38  C   UNL     1       0.583  -0.367  -1.441  0.00  0.00    -0.001 C 
BRANCH  38  40
ATOM     39  C   UNL     1      -0.312   1.608  -0.199  0.00  0.00    +0.004 C 
ATOM     40  C   UNL     1      -0.321   0.081  -0.290  0.00  0.00    -0.004 C 
ENDBRANCH  38  40
ENDBRANCH   1  38
TORSDOF 9
