REMARK  Name = ZINC66701231
REMARK  9 active torsions:
REMARK  status: ('A' for Active; 'I' for Inactive)
REMARK    1  A    between atoms: C_1  and  C_2
REMARK    2  A    between atoms: N_7  and  C_9
REMARK    3  A    between atoms: C_9  and  C_10
REMARK    4  A    between atoms: C_9  and  C_11
REMARK    5  A    between atoms: C_9  and  C_12
REMARK    6  A    between atoms: C_12  and  N_13
REMARK    7  A    between atoms: N_16  and  C_17
REMARK    8  A    between atoms: C_17  and  C_18
REMARK    9  A    between atoms: C_22  and  C_24
REMARK                            x       y       z     vdW  Elec       q    Type
REMARK                         _______ _______ _______ _____ _____    ______ ____
ROOT
ATOM      1  N   UNL     1      -0.065  -4.403   2.277  0.00  0.00    -0.301 N 
ATOM      2  C   UNL     1      -0.407  -5.702   2.380  0.00  0.00    +0.300 C 
ATOM      3  O   UNL     1       0.432  -6.531   2.675  0.00  0.00    -0.253 OA
ATOM      4  N   UNL     1      -1.681  -6.083   2.157  0.00  0.00    -0.292 N 
ATOM      5  H   UNL     1      -0.734  -3.742   2.042  0.00  0.00    +0.150 HD
ATOM      6  H   UNL     1      -2.351  -5.422   1.923  0.00  0.00    +0.151 HD
ENDROOT
BRANCH   1   7
ATOM      7  C   UNL     1       1.320  -3.989   2.519  0.00  0.00    +0.093 C 
BRANCH   7   8
ATOM      8  C   UNL     1       1.467  -2.497   2.214  0.00  0.00    -0.055 C 
ATOM      9  C   UNL     1       2.930  -2.083   2.387  0.00  0.00    -0.008 C 
ATOM     10  C   UNL     1       0.591  -1.691   3.175  0.00  0.00    -0.008 C 
BRANCH   8  16
ATOM     11  C   UNL     1       0.868   0.971  -1.189  0.00  0.00    +0.005 C 
ATOM     12  C   UNL     1       0.694  -0.517  -0.879  0.00  0.00    -0.031 C 
ATOM     13  C   UNL     1       1.493  -1.346  -1.889  0.00  0.00    -0.001 C 
ATOM     14  C   UNL     1       1.376  -2.829  -1.523  0.00  0.00    -0.018 C 
ATOM     15  C   UNL     1       1.865  -3.034  -0.088  0.00  0.00    -0.078 C 
ATOM     16  N   UNL     1       1.045  -2.236   0.831  0.00  0.00    +0.384 N 
ATOM     17  C   UNL     1       1.207  -0.808   0.533  0.00  0.00    -0.075 C 
ATOM     18  H   UNL     1       0.075  -2.493   0.724  0.00  0.00    -0.081 HD
ENDBRANCH   8  16
ENDBRANCH   7   8
ENDBRANCH   1   7
BRANCH   4  19
ATOM     19  C   UNL     1      -2.054  -7.495   2.270  0.00  0.00    +0.184 C 
BRANCH  19  20
ATOM     20  C   UNL     1      -3.523  -7.652   1.974  0.00  0.00    +0.168 A 
ATOM     21  N   UNL     1      -4.483  -7.584   2.859  0.00  0.00    -0.156 NA
ATOM     22  H   UNL     1      -6.584  -7.789   2.553  0.00  0.00    +0.191 HD
ATOM     23  N   UNL     1      -5.692  -7.783   2.172  0.00  0.00    -0.258 N 
ATOM     24  C   UNL     1      -5.359  -7.964   0.865  0.00  0.00    +0.163 A 
ATOM     25  N   UNL     1      -4.045  -7.876   0.772  0.00  0.00    -0.209 NA
BRANCH  24  26
ATOM     26  C   UNL     1      -6.296  -8.209  -0.244  0.00  0.00    +0.056 A 
ATOM     27  C   UNL     1      -6.027  -8.405  -1.575  0.00  0.00    +0.019 A 
ATOM     28  C   UNL     1      -7.077  -8.619  -2.437  0.00  0.00    +0.008 A 
ATOM     29  C   UNL     1      -8.345  -8.629  -1.947  0.00  0.00    +0.046 A 
ATOM     30  S   UNL     1      -8.076  -8.337  -0.206  0.00  0.00    -0.094 S 
ENDBRANCH  24  26
ENDBRANCH  19  20
ENDBRANCH   4  19
TORSDOF 6
