REMARK  Name = ZINC08855422
REMARK  6 active torsions:
REMARK  status: ('A' for Active; 'I' for Inactive)
REMARK    1  A    between atoms: C_9  and  C_11
REMARK    2  A    between atoms: C_12  and  O_39
REMARK    3  A    between atoms: C_13  and  N_34
REMARK    4  A    between atoms: C_15  and  C_20
REMARK    5  A    between atoms: C_25  and  O_26
REMARK    6  A    between atoms: O_26  and  C_27
REMARK                            x       y       z     vdW  Elec       q    Type
REMARK                         _______ _______ _______ _____ _____    ______ ____
ROOT
ATOM      1  C   UNL     1       1.566   3.022  -0.208  0.00  0.00    +0.025 C 
ATOM      2  C   UNL     1       1.411   1.736   0.157  0.00  0.00    +0.124 C 
ATOM      3  C   UNL     1       0.095   1.028  -0.021  0.00  0.00    +0.182 C 
ATOM      4  C   UNL     1      -0.645   1.620  -1.223  0.00  0.00    +0.062 C 
ATOM      5  C   UNL     1      -0.833   3.124  -0.997  0.00  0.00    +0.090 C 
ATOM      6  C   UNL     1       0.516   3.759  -0.774  0.00  0.00    +0.162 C 
ATOM      7  O   UNL     1       0.695   4.919  -1.087  0.00  0.00    -0.292 OA
ENDROOT
BRANCH   1  16
ATOM      8  C   UNL     1       4.571   4.583  -3.836  0.00  0.00    +0.000 A 
ATOM      9  C   UNL     1       3.939   3.374  -3.609  0.00  0.00    +0.000 A 
ATOM     10  C   UNL     1       3.405   3.101  -2.366  0.00  0.00    +0.002 A 
ATOM     11  C   UNL     1       3.498   4.033  -1.342  0.00  0.00    -0.054 A 
ATOM     12  C   UNL     1       4.126   5.238  -1.570  0.00  0.00    -0.047 A 
ATOM     13  C   UNL     1       4.663   5.511  -2.819  0.00  0.00    +0.004 A 
ATOM     14  C   UNL     1       4.247   6.283  -0.491  0.00  0.00    +0.016 C 
ATOM     15  C   UNL     1       3.983   5.654   0.877  0.00  0.00    -0.077 C 
ATOM     16  C   UNL     1       2.903   3.687  -0.003  0.00  0.00    -0.003 C 
ATOM     17  N   UNL     1       2.718   4.898   0.809  0.00  0.00    +0.387 N 
ATOM     18  H   UNL     1       1.992   5.486   0.383  0.00  0.00    -0.085 HD
ATOM     19  H   UNL     1       2.429   4.631   1.758  0.00  0.00    -0.085 HD
ENDBRANCH   1  16
BRANCH   4  20
ATOM     20  C   UNL     1      -1.993   0.959  -1.362  0.00  0.00    +0.001 A 
ATOM     21  C   UNL     1      -2.909   1.035  -0.332  0.00  0.00    +0.007 A 
ATOM     22  C   UNL     1      -4.148   0.433  -0.461  0.00  0.00    +0.001 A 
ATOM     23  C   UNL     1      -4.467  -0.256  -1.616  0.00  0.00    +0.004 A 
ATOM     24  C   UNL     1      -3.552  -0.339  -2.648  0.00  0.00    +0.046 A 
ATOM     25  C   UNL     1      -2.311   0.269  -2.523  0.00  0.00    +0.132 A 
BRANCH  25  26
ATOM     26  O   UNL     1      -1.409   0.189  -3.536  0.00  0.00    -0.456 OA
BRANCH  26  27
ATOM     27  C   UNL     1      -1.792  -0.431  -4.683  0.00  0.00    +0.130 A 
ATOM     28  C   UNL     1      -2.720   0.170  -5.522  0.00  0.00    +0.046 A 
ATOM     29  C   UNL     1      -3.107  -0.462  -6.687  0.00  0.00    +0.005 A 
ATOM     30  C   UNL     1      -2.572  -1.693  -7.019  0.00  0.00    +0.020 A 
ATOM     31  C   UNL     1      -1.646  -2.295  -6.185  0.00  0.00    +0.044 A 
ATOM     32  C   UNL     1      -1.251  -1.663  -5.021  0.00  0.00    +0.066 A 
ATOM     33 CL   UNL     1      -0.975  -3.840  -6.606  0.00  0.00    -0.083 Cl
ENDBRANCH  26  27
ENDBRANCH  25  26
ENDBRANCH   4  20
BRANCH   3  34
ATOM     34  N   UNL     1      -0.718   1.198   1.185  0.00  0.00    -0.241 N 
ATOM     35  C   UNL     1      -0.766   2.282   1.979  0.00  0.00    +0.219 A 
ATOM     36  N   UNL     1      -1.610   2.039   2.948  0.00  0.00    -0.223 NA
ATOM     37  C   UNL     1      -2.119   0.816   2.808  0.00  0.00    +0.245 A 
ATOM     38  N   UNL     1      -1.607   0.263   1.740  0.00  0.00    -0.158 NA
ENDBRANCH   3  34
BRANCH   2  39
ATOM     39  O   UNL     1       2.453   1.071   0.691  0.00  0.00    -0.509 OA
ATOM     40  H   UNL     1       2.175   0.134   0.906  0.00  0.00    +0.292 HD
ENDBRANCH   2  39
TORSDOF 6
