REMARK  Name = ZINC44163624
REMARK  8 active torsions:
REMARK  status: ('A' for Active; 'I' for Inactive)
REMARK    1  A    between atoms: C_1  and  C_2
REMARK    2  A    between atoms: C_5  and  C_9
REMARK    3  A    between atoms: C_6  and  C_8
REMARK    4  A    between atoms: C_14  and  C_17
REMARK    5  A    between atoms: N_19  and  C_20
REMARK    6  A    between atoms: C_20  and  C_21
REMARK    7  A    between atoms: C_26  and  O_27
REMARK    8  A    between atoms: O_27  and  C_28
REMARK                            x       y       z     vdW  Elec       q    Type
REMARK                         _______ _______ _______ _____ _____    ______ ____
ROOT
ATOM      1  C   UNL     1       0.029  -4.253  -0.036  0.00  0.00    -0.030 C 
ATOM      2  C   UNL     1       1.466  -4.723   0.217  0.00  0.00    +0.058 C 
ATOM      3  S   UNL     1       1.468  -6.542   0.285  0.00  0.00    -0.163 S 
ATOM      4  C   UNL     1       0.556  -6.997  -1.223  0.00  0.00    +0.062 C 
ATOM      5  C   UNL     1      -0.746  -6.187  -1.261  0.00  0.00    +0.027 C 
ATOM      6  N   UNL     1      -0.437  -4.757  -1.330  0.00  0.00    +0.392 N 
ATOM      7  H   UNL     1      -1.268  -4.253  -1.601  0.00  0.00    -0.084 HD
ATOM      8  H   UNL     1       0.281  -4.605  -2.022  0.00  0.00    -0.084 HD
ENDROOT
BRANCH   1  13
ATOM      9  C   UNL     1      -0.131   1.523  -0.057  0.00  0.00    +0.044 C 
ATOM     10  C   UNL     1      -0.089   0.017  -0.052  0.00  0.00    -0.050 A 
ATOM     11  C   UNL     1      -0.072  -0.678  -1.247  0.00  0.00    +0.003 A 
ATOM     12  C   UNL     1      -0.034  -2.060  -1.242  0.00  0.00    +0.002 A 
ATOM     13  C   UNL     1      -0.012  -2.747  -0.042  0.00  0.00    -0.058 A 
ATOM     14  C   UNL     1      -0.028  -2.051   1.153  0.00  0.00    -0.049 A 
ATOM     15  C   UNL     1      -0.062  -0.669   1.148  0.00  0.00    +0.007 A 
ATOM     16  C   UNL     1      -0.005  -2.800   2.460  0.00  0.00    +0.044 C 
ENDBRANCH   1  13
BRANCH   5  17
ATOM     17  C   UNL     1      -1.546  -6.468  -0.016  0.00  0.00    +0.200 C 
ATOM     18  O   UNL     1      -2.191  -5.581   0.503  0.00  0.00    -0.278 OA
ATOM     19  N   UNL     1      -1.545  -7.703   0.522  0.00  0.00    -0.312 N 
ATOM     20  H   UNL     1      -1.029  -8.412   0.108  0.00  0.00    +0.149 HD
BRANCH  19  21
ATOM     21  C   UNL     1      -2.324  -7.976   1.733  0.00  0.00    +0.143 C 
BRANCH  21  22
ATOM     22  C   UNL     1      -2.154  -9.421   2.125  0.00  0.00    +0.011 A 
ATOM     23  C   UNL     1      -3.128 -10.345   1.800  0.00  0.00    +0.009 A 
ATOM     24  C   UNL     1      -2.973 -11.670   2.160  0.00  0.00    +0.001 A 
ATOM     25  C   UNL     1      -1.843 -12.075   2.845  0.00  0.00    +0.004 A 
ATOM     26  C   UNL     1      -0.865 -11.156   3.172  0.00  0.00    +0.046 A 
ATOM     27  C   UNL     1      -1.016  -9.826   2.807  0.00  0.00    +0.125 A 
BRANCH  27  28
ATOM     28  O   UNL     1      -0.053  -8.920   3.123  0.00  0.00    -0.495 OA
ATOM     29  C   UNL     1       1.091  -9.408   3.826  0.00  0.00    +0.277 C 
ENDBRANCH  27  28
ENDBRANCH  21  22
ENDBRANCH  19  21
ENDBRANCH   5  17
TORSDOF 5
