REMARK  Name = ZINC35486265
REMARK  10 active torsions:
REMARK  status: ('A' for Active; 'I' for Inactive)
REMARK    1  A    between atoms: C_1  and  C_2
REMARK    2  A    between atoms: C_2  and  N_3
REMARK    3  A    between atoms: N_3  and  C_4
REMARK    4  A    between atoms: N_3  and  C_6
REMARK    5  A    between atoms: C_4  and  C_5
REMARK    6  A    between atoms: C_6  and  C_7
REMARK    7  A    between atoms: C_7  and  N_8
REMARK    8  A    between atoms: C_9  and  C_26
REMARK    9  A    between atoms: C_16  and  C_25
REMARK   10  A    between atoms: C_17  and  C_24
REMARK                            x       y       z     vdW  Elec       q    Type
REMARK                         _______ _______ _______ _____ _____    ______ ____
ROOT
ATOM      1  N   UNL     1      -3.384  -3.467  -0.304  0.00  0.00    -0.285 N 
ATOM      2  C   UNL     1      -3.306  -4.353  -1.477  0.00  0.00    +0.144 C 
ATOM      3  C   UNL     1      -3.542  -5.734  -0.961  0.00  0.00    +0.072 A 
ATOM      4  C   UNL     1      -3.594  -7.027  -1.651  0.00  0.00    +0.199 A 
ATOM      5  O   UNL     1      -3.264  -7.177  -2.814  0.00  0.00    -0.287 OA
ATOM      6  C   UNL     1      -4.086  -8.137  -0.796  0.00  0.00    +0.065 A 
ATOM      7  C   UNL     1      -4.381  -9.381  -1.353  0.00  0.00    +0.019 A 
ATOM      8  C   UNL     1      -4.838 -10.391  -0.554  0.00  0.00    -0.047 A 
ATOM      9  C   UNL     1      -5.008 -10.182   0.808  0.00  0.00    -0.044 A 
ATOM     10  C   UNL     1      -4.720  -8.961   1.375  0.00  0.00    +0.050 A 
ATOM     11  C   UNL     1      -4.250  -7.915   0.581  0.00  0.00    +0.140 A 
ATOM     12  O   UNL     1      -3.964  -6.727   1.161  0.00  0.00    -0.450 OA
ATOM     13  C   UNL     1      -3.732  -5.647   0.389  0.00  0.00    +0.199 A 
ATOM     14  C   UNL     1      -3.628  -4.231   0.780  0.00  0.00    +0.283 C 
ATOM     15  O   UNL     1      -3.747  -3.811   1.914  0.00  0.00    -0.267 OA
ATOM     16  C   UNL     1      -5.516 -11.305   1.676  0.00  0.00    +0.044 C 
ATOM     17  C   UNL     1      -5.158 -11.737  -1.152  0.00  0.00    +0.044 C 
ENDROOT
BRANCH   2  18
ATOM     18  C   UNL     1      -1.942  -4.258  -2.110  0.00  0.00    -0.021 A 
ATOM     19  C   UNL     1      -0.814  -4.185  -1.314  0.00  0.00    +0.007 A 
ATOM     20  C   UNL     1       0.438  -4.098  -1.893  0.00  0.00    +0.022 A 
ATOM     21  C   UNL     1       0.563  -4.085  -3.271  0.00  0.00    +0.059 A 
ATOM     22  C   UNL     1      -0.566  -4.159  -4.068  0.00  0.00    +0.060 A 
ATOM     23  C   UNL     1      -1.818  -4.251  -3.487  0.00  0.00    +0.027 A 
ATOM     24 CL   UNL     1      -0.410  -4.141  -5.797  0.00  0.00    -0.082 Cl
ATOM     25 CL   UNL     1       2.135  -3.975  -3.999  0.00  0.00    -0.082 Cl
ENDBRANCH   2  18
BRANCH   1  26
ATOM     26  C   UNL     1      -3.219  -2.011  -0.312  0.00  0.00    +0.090 C 
BRANCH  26  27
ATOM     27  C   UNL     1      -1.743  -1.664  -0.108  0.00  0.00    -0.060 C 
BRANCH  27  28
ATOM     28  N   UNL     1      -1.595  -0.208   0.018  0.00  0.00    +0.380 N 
ATOM     29  H   UNL     1      -2.017   0.243  -0.780  0.00  0.00    -0.082 HD
BRANCH  28  31
ATOM     30  C   UNL     1      -2.215   1.775   1.314  0.00  0.00    -0.017 C 
ATOM     31  C   UNL     1      -2.260   0.247   1.246  0.00  0.00    -0.082 C 
ENDBRANCH  28  31
BRANCH  28  32
ATOM     32  C   UNL     1      -0.168   0.136   0.078  0.00  0.00    -0.082 C 
ATOM     33  C   UNL     1       0.495  -0.203  -1.258  0.00  0.00    -0.017 C 
ENDBRANCH  28  32
ENDBRANCH  27  28
ENDBRANCH  26  27
ENDBRANCH   1  26
TORSDOF 6
