REMARK  Name = ZINC65886823
REMARK  13 active torsions:
REMARK  status: ('A' for Active; 'I' for Inactive)
REMARK    1  A    between atoms: C_1  and  C_2
REMARK    2  A    between atoms: C_2  and  C_3
REMARK    3  A    between atoms: C_3  and  C_4
REMARK    4  A    between atoms: C_4  and  C_5
REMARK    5  A    between atoms: C_5  and  N_6
REMARK    6  A    between atoms: C_7  and  C_9
REMARK    7  A    between atoms: C_9  and  C_10
REMARK    8  A    between atoms: C_9  and  N_11
REMARK    9  A    between atoms: N_11  and  C_12
REMARK   10  A    between atoms: C_15  and  C_28
REMARK   11  A    between atoms: C_16  and  N_18
REMARK   12  A    between atoms: C_19  and  C_21
REMARK   13  A    between atoms: C_21  and  N_22
REMARK                            x       y       z     vdW  Elec       q    Type
REMARK                         _______ _______ _______ _____ _____    ______ ____
ROOT
ATOM      1  C   UNL     1       2.468  -7.874  -5.298  0.00  0.00    +0.029 A 
ATOM      2  C   UNL     1       1.529  -8.681  -4.668  0.00  0.00    +0.023 A 
ATOM      3  C   UNL     1       1.250  -9.938  -5.168  0.00  0.00    +0.007 A 
ATOM      4  C   UNL     1       1.904 -10.397  -6.295  0.00  0.00    -0.029 A 
ATOM      5  C   UNL     1       2.844  -9.596  -6.930  0.00  0.00    +0.038 A 
ATOM      6  C   UNL     1       3.122  -8.330  -6.434  0.00  0.00    +0.046 A 
ATOM      7  C   UNL     1       1.597 -11.770  -6.837  0.00  0.00    +0.045 C 
ENDROOT
BRANCH   5   8
ATOM      8  N   UNL     1       3.506 -10.062  -8.071  0.00  0.00    -0.287 N 
ATOM      9  C   UNL     1       4.713  -9.562  -8.401  0.00  0.00    +0.201 C 
ATOM     10  O   UNL     1       5.271  -8.784  -7.657  0.00  0.00    -0.278 OA
ATOM     11  H   UNL     1       3.095 -10.744  -8.625  0.00  0.00    +0.155 HD
BRANCH   9  12
ATOM     12  C   UNL     1       5.370  -9.972  -9.694  0.00  0.00    +0.019 C 
BRANCH  12  13
ATOM     13  N   UNL     1       6.668  -9.295  -9.820  0.00  0.00    +0.385 N 
ATOM     14  C   UNL     1       6.455  -7.847  -9.924  0.00  0.00    -0.078 C 
ATOM     15  C   UNL     1       7.807  -7.131  -9.973  0.00  0.00    -0.019 C 
ATOM     16  C   UNL     1       8.594  -7.622 -11.192  0.00  0.00    -0.004 C 
ATOM     17  C   UNL     1       8.746  -9.143 -11.110  0.00  0.00    -0.019 C 
ATOM     18  C   UNL     1       7.359  -9.784 -11.019  0.00  0.00    -0.078 C 
ATOM     19  H   UNL     1       7.229  -9.493  -9.005  0.00  0.00    -0.081 HD
ENDBRANCH  12  13
ENDBRANCH   9  12
ENDBRANCH   5   8
BRANCH   1  20
ATOM     20  N   UNL     1       2.750  -6.603  -4.793  0.00  0.00    -0.333 N 
ATOM     21  H   UNL     1       3.403  -6.038  -5.235  0.00  0.00    +0.147 HD
BRANCH  20  22
ATOM     22  C   UNL     1       2.059  -6.122  -3.594  0.00  0.00    +0.154 C 
ATOM     23  C   UNL     1       2.794  -6.620  -2.347  0.00  0.00    +0.038 C 
BRANCH  22  25
ATOM     24  N   UNL     1       1.451  -3.948  -2.583  0.00  0.00    -0.314 N 
ATOM     25  C   UNL     1       2.038  -4.615  -3.596  0.00  0.00    +0.233 C 
ATOM     26  O   UNL     1       2.550  -4.003  -4.509  0.00  0.00    -0.274 OA
ATOM     27  H   UNL     1       1.042  -4.437  -1.852  0.00  0.00    +0.149 HD
BRANCH  24  28
ATOM     28  C   UNL     1       1.431  -2.483  -2.585  0.00  0.00    +0.104 C 
BRANCH  28  29
ATOM     29  C   UNL     1       0.710  -1.981  -1.333  0.00  0.00    +0.019 C 
BRANCH  29  30
ATOM     30  C   UNL     1       0.689  -0.451  -1.335  0.00  0.00    +0.001 C 
BRANCH  30  32
ATOM     31  C   UNL     1      -0.054   1.581  -0.085  0.00  0.00    +0.004 C 
ATOM     32  C   UNL     1      -0.033   0.051  -0.082  0.00  0.00    -0.003 C 
ENDBRANCH  30  32
ENDBRANCH  29  30
ENDBRANCH  28  29
ENDBRANCH  24  28
ENDBRANCH  22  25
ENDBRANCH  20  22
ENDBRANCH   1  20
TORSDOF 10
