REMARK  Name = ZINC67216224
REMARK  12 active torsions:
REMARK  status: ('A' for Active; 'I' for Inactive)
REMARK    1  A    between atoms: C_1  and  C_2
REMARK    2  A    between atoms: C_7  and  C_9
REMARK    3  A    between atoms: C_7  and  N_24
REMARK    4  A    between atoms: C_9  and  N_10
REMARK    5  A    between atoms: N_10  and  C_11
REMARK    6  A    between atoms: C_11  and  C_12
REMARK    7  A    between atoms: C_17  and  O_18
REMARK    8  A    between atoms: O_18  and  C_19
REMARK    9  A    between atoms: C_19  and  C_20
REMARK   10  A    between atoms: N_22  and  C_23
REMARK   11  A    between atoms: N_24  and  C_25
REMARK   12  A    between atoms: N_24  and  C_26
REMARK                            x       y       z     vdW  Elec       q    Type
REMARK                         _______ _______ _______ _____ _____    ______ ____
ROOT
ATOM      1  N   UNL     1       1.941  -4.143   0.269  0.00  0.00    +0.383 N 
ATOM      2  H   UNL     1       2.332  -4.325   1.181  0.00  0.00    -0.085 HD
ATOM      3  H   UNL     1       1.060  -4.626   0.178  0.00  0.00    -0.085 HD
ENDROOT
BRANCH   1   4
ATOM      4  C   UNL     1       1.726  -2.698   0.108  0.00  0.00    -0.060 C 
BRANCH   4  10
ATOM      5  C   UNL     1       3.561  -1.683   3.894  0.00  0.00    +0.007 C 
ATOM      6  C   UNL     1       2.840  -1.530   2.553  0.00  0.00    -0.012 C 
ATOM      7  C   UNL     1       2.514  -0.054   2.315  0.00  0.00    +0.003 C 
ATOM      8  C   UNL     1       1.794   0.100   0.974  0.00  0.00    +0.002 C 
ATOM      9  C   UNL     1       0.497  -0.712   0.996  0.00  0.00    +0.020 C 
ATOM     10  C   UNL     1       0.824  -2.188   1.233  0.00  0.00    +0.007 C 
ATOM     11  C   UNL     1       1.544  -2.342   2.574  0.00  0.00    +0.023 C 
BRANCH  10  12
ATOM     12  N   UNL     1      -0.421  -2.968   1.254  0.00  0.00    -0.304 NA
ATOM     13  C   UNL     1      -1.292  -2.540   2.357  0.00  0.00    +0.105 C 
ATOM     14  C   UNL     1      -1.121  -2.877  -0.035  0.00  0.00    +0.105 C 
ENDBRANCH  10  12
ENDBRANCH   4  10
ENDBRANCH   1   4
BRANCH   1  15
ATOM     15  C   UNL     1       2.869  -4.618  -0.765  0.00  0.00    -0.043 C 
BRANCH  15  16
ATOM     16  C   UNL     1       3.089  -6.099  -0.600  0.00  0.00    -0.023 A 
ATOM     17  C   UNL     1       4.226  -6.563   0.035  0.00  0.00    +0.005 A 
ATOM     18  C   UNL     1       4.428  -7.922   0.186  0.00  0.00    +0.000 A 
ATOM     19  C   UNL     1       3.495  -8.821  -0.296  0.00  0.00    +0.004 A 
ATOM     20  C   UNL     1       2.357  -8.363  -0.931  0.00  0.00    +0.046 A 
ATOM     21  C   UNL     1       2.149  -6.999  -1.080  0.00  0.00    +0.123 A 
BRANCH  21  22
ATOM     22  O   UNL     1       1.028  -6.545  -1.700  0.00  0.00    -0.483 OA
BRANCH  22  23
ATOM     23  C   UNL     1       0.103  -7.528  -2.169  0.00  0.00    +0.324 C 
BRANCH  23  24
ATOM     24  C   UNL     1      -1.070  -6.844  -2.823  0.00  0.00    +0.250 C 
ATOM     25  O   UNL     1      -1.109  -5.633  -2.882  0.00  0.00    -0.272 OA
ATOM     26  N   UNL     1      -2.074  -7.577  -3.343  0.00  0.00    -0.316 N 
ATOM     27  C   UNL     1      -3.214  -6.911  -3.979  0.00  0.00    +0.128 C 
ATOM     28  H   UNL     1      -2.042  -8.545  -3.296  0.00  0.00    +0.148 HD
ENDBRANCH  23  24
ENDBRANCH  22  23
ENDBRANCH  21  22
ENDBRANCH  15  16
ENDBRANCH   1  15
TORSDOF 8
