REMARK  Name = ZINC03369945
REMARK  12 active torsions:
REMARK  status: ('A' for Active; 'I' for Inactive)
REMARK    1  A    between atoms: C_1  and  C_2
REMARK    2  A    between atoms: C_5  and  N_8
REMARK    3  A    between atoms: C_9  and  C_11
REMARK    4  A    between atoms: C_11  and  N_60
REMARK    5  A    between atoms: C_12  and  N_60
REMARK    6  A    between atoms: C_13  and  C_14
REMARK    7  A    between atoms: C_13  and  N_60
REMARK    8  A    between atoms: C_14  and  C_16
REMARK    9  A    between atoms: C_17  and  N_32
REMARK   10  A    between atoms: N_18  and  C_25
REMARK   11  A    between atoms: N_21  and  C_24
REMARK   12  A    between atoms: C_25  and  C_26
REMARK                            x       y       z     vdW  Elec       q    Type
REMARK                         _______ _______ _______ _____ _____    ______ ____
ROOT
ATOM      1  C   UNL     1       0.890   1.926  -0.939  0.00  0.00    +0.118 A 
ATOM      2  C   UNL     1      -0.328   1.232  -0.838  0.00  0.00    +0.116 A 
ATOM      3  N   UNL     1      -0.306  -0.106  -0.567  0.00  0.00    -0.277 N 
ATOM      4  C   UNL     1       0.852  -0.764  -0.398  0.00  0.00    +0.333 A 
ATOM      5  O   UNL     1       0.818  -1.956  -0.159  0.00  0.00    -0.246 OA
ATOM      6  N   UNL     1       2.046  -0.155  -0.483  0.00  0.00    -0.263 N 
ATOM      7  C   UNL     1       2.131   1.165  -0.747  0.00  0.00    +0.269 A 
ATOM      8  O   UNL     1       3.215   1.713  -0.825  0.00  0.00    -0.267 OA
ATOM      9  C   UNL     1       3.270  -0.935  -0.287  0.00  0.00    +0.157 C 
ENDROOT
BRANCH   2  10
ATOM     10  N   UNL     1      -1.510   1.883  -1.012  0.00  0.00    -0.344 N 
ATOM     11  H   UNL     1      -2.312   1.382  -1.231  0.00  0.00    +0.144 HD
ATOM     12  H   UNL     1      -1.552   2.847  -0.917  0.00  0.00    +0.144 HD
ENDBRANCH   2  10
BRANCH   1  13
ATOM     13  C   UNL     1       0.920   3.309  -1.218  0.00  0.00    +0.155 C 
ATOM     14  O   UNL     1      -0.117   3.939  -1.275  0.00  0.00    -0.294 OA
BRANCH  13  15
ATOM     15  C   UNL     1       2.238   4.004  -1.444  0.00  0.00    +0.003 C 
BRANCH  15  17
ATOM     16  C   UNL     1       1.286   5.612  -2.984  0.00  0.00    -0.095 C 
ATOM     17  N   UNL     1       1.984   5.439  -1.692  0.00  0.00    +0.388 N 
ATOM     18  H   UNL     1       1.390   5.807  -0.940  0.00  0.00    -0.081 HD
BRANCH  17  19
ATOM     19  C   UNL     1       3.261   6.183  -1.705  0.00  0.00    +0.019 C 
BRANCH  19  21
ATOM     20  N   UNL     1       3.973   8.552  -1.736  0.00  0.00    -0.287 N 
ATOM     21  C   UNL     1       2.962   7.660  -1.738  0.00  0.00    +0.201 C 
ATOM     22  O   UNL     1       1.813   8.046  -1.766  0.00  0.00    -0.278 OA
ATOM     23  H   UNL     1       4.891   8.244  -1.789  0.00  0.00    +0.155 HD
BRANCH  20  28
ATOM     24  C   UNL     1       2.854  14.104  -1.419  0.00  0.00    +0.044 C 
ATOM     25  C   UNL     1       3.151  12.629  -1.503  0.00  0.00    -0.050 A 
ATOM     26  C   UNL     1       2.335  11.723  -0.853  0.00  0.00    +0.005 A 
ATOM     27  C   UNL     1       2.604  10.370  -0.928  0.00  0.00    +0.023 A 
ATOM     28  C   UNL     1       3.697   9.921  -1.658  0.00  0.00    +0.033 A 
ATOM     29  C   UNL     1       4.518  10.835  -2.306  0.00  0.00    +0.023 A 
ATOM     30  C   UNL     1       4.240  12.185  -2.232  0.00  0.00    +0.005 A 
ENDBRANCH  20  28
ENDBRANCH  19  21
ENDBRANCH  17  19
ENDBRANCH  15  17
ENDBRANCH  13  15
ENDBRANCH   1  13
BRANCH   3  31
ATOM     31  C   UNL     1      -1.570  -0.838  -0.459  0.00  0.00    +0.163 C 
BRANCH  31  32
ATOM     32  C   UNL     1      -1.960  -1.370  -1.814  0.00  0.00    -0.028 A 
ATOM     33  C   UNL     1      -2.748  -0.606  -2.655  0.00  0.00    +0.005 A 
ATOM     34  C   UNL     1      -3.102  -1.092  -3.900  0.00  0.00    +0.000 A 
ATOM     35  C   UNL     1      -2.677  -2.346  -4.299  0.00  0.00    +0.000 A 
ATOM     36  C   UNL     1      -1.895  -3.111  -3.455  0.00  0.00    +0.000 A 
ATOM     37  C   UNL     1      -1.536  -2.623  -2.213  0.00  0.00    +0.005 A 
ENDBRANCH  31  32
ENDBRANCH   3  31
TORSDOF 9
