REMARK  Name = ZINC06136660
REMARK  7 active torsions:
REMARK  status: ('A' for Active; 'I' for Inactive)
REMARK    1  A    between atoms: C_1  and  O_2
REMARK    2  A    between atoms: O_2  and  C_3
REMARK    3  A    between atoms: C_6  and  N_9
REMARK    4  A    between atoms: C_14  and  C_16
REMARK    5  A    between atoms: C_14  and  C_28
REMARK    6  A    between atoms: C_14  and  N_66
REMARK    7  A    between atoms: N_32  and  C_33
REMARK                            x       y       z     vdW  Elec       q    Type
REMARK                         _______ _______ _______ _____ _____    ______ ____
ROOT
ATOM      1  C   UNL     1       1.868  -6.128   1.013  0.00  0.00    +0.040 C 
ENDROOT
BRANCH   1   2
ATOM      2  C   UNL     1       0.978  -6.679  -0.071  0.00  0.00    +0.029 A 
ATOM      3  C   UNL     1       0.078  -5.885  -0.678  0.00  0.00    +0.201 A 
ATOM      4  O   UNL     1      -0.733  -6.317  -1.649  0.00  0.00    -0.462 OA
ATOM      5  C   UNL     1      -0.719  -7.592  -2.088  0.00  0.00    +0.138 A 
ATOM      6  C   UNL     1      -1.580  -8.011  -3.096  0.00  0.00    +0.048 A 
ATOM      7  C   UNL     1      -1.547  -9.319  -3.529  0.00  0.00    +0.023 A 
ATOM      8  C   UNL     1      -0.660 -10.229  -2.968  0.00  0.00    +0.042 A 
ATOM      9  C   UNL     1       0.202  -9.833  -1.968  0.00  0.00    +0.035 A 
ATOM     10  C   UNL     1       0.177  -8.513  -1.522  0.00  0.00    +0.066 A 
ATOM     11  C   UNL     1       1.081  -8.043  -0.454  0.00  0.00    +0.194 A 
ATOM     12  O   UNL     1       1.881  -8.793   0.076  0.00  0.00    -0.287 OA
ATOM     13 CL   UNL     1      -0.637 -11.872  -3.530  0.00  0.00    -0.084 Cl
ENDBRANCH   1   2
BRANCH   1  19
ATOM     14  N   UNL     1       3.587  -2.305   0.482  0.00  0.00    -0.333 N 
ATOM     15  C   UNL     1       2.904  -2.918  -0.665  0.00  0.00    +0.086 C 
ATOM     16  C   UNL     1       2.795  -4.429  -0.443  0.00  0.00    -0.058 C 
ATOM     17  C   UNL     1       2.742  -4.073   1.950  0.00  0.00    -0.058 C 
ATOM     18  C   UNL     1       2.851  -2.563   1.728  0.00  0.00    +0.086 C 
ATOM     19  N   UNL     1       2.034  -4.674   0.800  0.00  0.00    +0.391 N 
ATOM     20  H   UNL     1       1.107  -4.241   0.716  0.00  0.00    -0.080 HD
BRANCH  14  24
ATOM     21  C   UNL     1       4.129   1.784  -0.114  0.00  0.00    +0.120 A 
ATOM     22  C   UNL     1       4.623   0.877  -1.040  0.00  0.00    +0.047 A 
ATOM     23  C   UNL     1       4.444  -0.478  -0.843  0.00  0.00    +0.027 A 
ATOM     24  C   UNL     1       3.769  -0.932   0.282  0.00  0.00    +0.030 A 
ATOM     25  C   UNL     1       3.275  -0.023   1.209  0.00  0.00    +0.027 A 
ATOM     26  C   UNL     1       3.455   1.331   1.010  0.00  0.00    +0.047 A 
BRANCH  21  28
ATOM     27  C   UNL     1       3.771   3.996   0.685  0.00  0.00    +0.277 C 
ATOM     28  O   UNL     1       4.306   3.119  -0.308  0.00  0.00    -0.495 OA
ENDBRANCH  21  28
ENDBRANCH  14  24
ENDBRANCH   1  19
BRANCH   1  29
ATOM     29  C   UNL     1       1.225  -6.359   2.356  0.00  0.00    +0.143 A 
ATOM     30  N   UNL     1       0.162  -5.755   2.829  0.00  0.00    -0.115 NA
ATOM     31  N   UNL     1      -0.073  -6.226   4.005  0.00  0.00    -0.023 NA
ATOM     32  N   UNL     1       0.813  -7.115   4.294  0.00  0.00    -0.044 NA
ATOM     33  N   UNL     1       1.627  -7.229   3.301  0.00  0.00    -0.227 N 
BRANCH  33  34
ATOM     34  C   UNL     1       2.777  -8.133   3.217  0.00  0.00    +0.111 C 
ATOM     35  C   UNL     1       2.314  -9.594   3.399  0.00  0.00    +0.027 C 
ATOM     36  C   UNL     1       3.454 -10.254   4.215  0.00  0.00    +0.002 C 
ATOM     37  C   UNL     1       3.866  -9.130   5.198  0.00  0.00    +0.002 C 
ATOM     38  C   UNL     1       3.764  -7.839   4.361  0.00  0.00    +0.027 C 
ENDBRANCH  33  34
ENDBRANCH   1  29
TORSDOF 6
