REMARK  Name = ZINC36919655
REMARK  9 active torsions:
REMARK  status: ('A' for Active; 'I' for Inactive)
REMARK    1  A    between atoms: C_1  and  C_2
REMARK    2  A    between atoms: C_2  and  C_4
REMARK    3  A    between atoms: C_2  and  N_11
REMARK    4  A    between atoms: N_11  and  C_12
REMARK    5  A    between atoms: C_12  and  C_14
REMARK    6  A    between atoms: C_12  and  C_15
REMARK    7  A    between atoms: C_18  and  O_22
REMARK    8  A    between atoms: C_20  and  O_21
REMARK    9  A    between atoms: O_22  and  C_23
REMARK                            x       y       z     vdW  Elec       q    Type
REMARK                         _______ _______ _______ _____ _____    ______ ____
ROOT
ATOM      1  N   UNL     1       0.750  -0.369  -1.223  0.00  0.00    +0.388 N 
ATOM      2  H   UNL     1       1.690  -0.003  -1.237  0.00  0.00    -0.084 HD
ATOM      3  H   UNL     1       0.780  -1.377  -1.247  0.00  0.00    -0.084 HD
ENDROOT
BRANCH   1   5
ATOM      4  C   UNL     1       0.911  -0.327   1.220  0.00  0.00    -0.009 C 
ATOM      5  C   UNL     1       0.073   0.071   0.004  0.00  0.00    -0.043 C 
BRANCH   5   6
ATOM      6  C   UNL     1      -1.282  -0.582   0.092  0.00  0.00    -0.061 A 
ATOM      7  C   UNL     1      -1.436  -1.907  -0.272  0.00  0.00    +0.002 A 
ATOM      8  C   UNL     1      -2.678  -2.507  -0.192  0.00  0.00    +0.001 A 
ATOM      9  C   UNL     1      -3.768  -1.783   0.253  0.00  0.00    +0.015 A 
ATOM     10  C   UNL     1      -3.615  -0.458   0.619  0.00  0.00    +0.018 A 
ATOM     11  C   UNL     1      -2.370   0.141   0.543  0.00  0.00    +0.017 A 
ATOM     12 BR   UNL     1      -5.106   0.534   1.227  0.00  0.00    -0.050 Br
ENDBRANCH   5   6
ENDBRANCH   1   5
BRANCH   1  13
ATOM     13  C   UNL     1       0.014   0.127  -2.393  0.00  0.00    -0.040 C 
ATOM     14  C   UNL     1       0.100   1.654  -2.441  0.00  0.00    -0.009 C 
BRANCH  13  15
ATOM     15  C   UNL     1       0.618  -0.450  -3.648  0.00  0.00    -0.020 A 
ATOM     16  C   UNL     1       1.904  -0.954  -3.626  0.00  0.00    +0.009 A 
ATOM     17  C   UNL     1       2.460  -1.484  -4.774  0.00  0.00    +0.046 A 
ATOM     18  C   UNL     1       1.728  -1.510  -5.953  0.00  0.00    +0.124 A 
ATOM     19  C   UNL     1       0.438  -1.005  -5.978  0.00  0.00    +0.091 A 
ATOM     20  C   UNL     1      -0.121  -0.479  -4.822  0.00  0.00    +0.122 A 
BRANCH  20  21
ATOM     21  O   UNL     1      -1.388   0.012  -4.841  0.00  0.00    -0.506 OA
ATOM     22  H   UNL     1      -1.442   0.951  -5.063  0.00  0.00    +0.292 HD
ENDBRANCH  20  21
BRANCH  18  23
ATOM     23  O   UNL     1       2.276  -2.031  -7.083  0.00  0.00    -0.495 OA
ATOM     24  C   UNL     1       3.610  -2.533  -6.984  0.00  0.00    +0.277 C 
ENDBRANCH  18  23
ENDBRANCH  13  15
ENDBRANCH   1  13
TORSDOF 6
