REMARK  Name = ZINC55157320
REMARK  10 active torsions:
REMARK  status: ('A' for Active; 'I' for Inactive)
REMARK    1  A    between atoms: C_1  and  C_2
REMARK    2  A    between atoms: C_2  and  O_3
REMARK    3  A    between atoms: O_3  and  C_4
REMARK    4  A    between atoms: C_4  and  C_6
REMARK    5  A    between atoms: C_6  and  C_7
REMARK    6  A    between atoms: C_6  and  C_21
REMARK    7  A    between atoms: N_9  and  N_10
REMARK    8  A    between atoms: N_10  and  C_11
REMARK    9  A    between atoms: C_16  and  N_17
REMARK   10  A    between atoms: N_23  and  C_24
REMARK                            x       y       z     vdW  Elec       q    Type
REMARK                         _______ _______ _______ _____ _____    ______ ____
ROOT
ATOM      1  C   UNL     1       0.409  -3.808   2.597  0.00  0.00    +0.105 C 
ATOM      2  N   UNL     1       0.207  -4.047   3.852  0.00  0.00    -0.388 N 
ATOM      3  N   UNL     1       0.635  -4.845   1.730  0.00  0.00    -0.255 N 
ATOM      4  H   UNL     1       0.151  -4.962   4.168  0.00  0.00    +0.157 HD
ATOM      5  H   UNL     1       0.868  -4.663   0.806  0.00  0.00    +0.171 HD
ATOM      6  H   UNL     1       0.112  -3.311   4.476  0.00  0.00    +0.157 HD
ENDROOT
BRANCH   3   7
ATOM      7  N   UNL     1       0.530  -6.168   2.178  0.00  0.00    -0.263 N 
ATOM      8  H   UNL     1       0.297  -6.350   3.102  0.00  0.00    +0.170 HD
BRANCH   7   9
ATOM      9  C   UNL     1       0.760  -7.225   1.294  0.00  0.00    +0.076 A 
ATOM     10  C   UNL     1       0.984  -6.970  -0.053  0.00  0.00    +0.046 A 
ATOM     11  C   UNL     1       1.212  -8.018  -0.924  0.00  0.00    +0.043 A 
ATOM     12  C   UNL     1       1.216  -9.320  -0.455  0.00  0.00    +0.022 A 
ATOM     13  C   UNL     1       0.994  -9.577   0.885  0.00  0.00    +0.036 A 
ATOM     14  C   UNL     1       0.771  -8.533   1.762  0.00  0.00    +0.148 A 
ATOM     15 CL   UNL     1       1.491  -7.701  -2.608  0.00  0.00    -0.083 Cl
BRANCH  14  16
ATOM     16  N   UNL     1       0.539  -8.809   3.197  0.00  0.00    +0.058 N 
ATOM     17  O   UNL     1       0.977  -8.056   4.036  0.00  0.00    -0.126 OA
ATOM     18  O   UNL     1      -0.087  -9.787   3.532  0.00  0.00    -0.126 OA
ENDBRANCH  14  16
ENDBRANCH   7   9
ENDBRANCH   3   7
BRANCH   1  19
ATOM     19  C   UNL     1       0.396  -2.390   2.088  0.00  0.00    +0.245 C 
BRANCH  19  20
ATOM     20  C   UNL     1       1.802  -1.964   1.752  0.00  0.00    +0.238 C 
ATOM     21  O   UNL     1       2.585  -2.767   1.290  0.00  0.00    -0.274 OA
ATOM     22  N   UNL     1       2.189  -0.690   1.964  0.00  0.00    -0.284 N 
ATOM     23  H   UNL     1       1.587  -0.067   2.400  0.00  0.00    +0.155 HD
BRANCH  22  24
ATOM     24  C   UNL     1       3.459  -0.268   1.557  0.00  0.00    +0.033 A 
ATOM     25  C   UNL     1       3.642   1.020   1.072  0.00  0.00    +0.023 A 
ATOM     26  C   UNL     1       4.897   1.434   0.671  0.00  0.00    +0.002 A 
ATOM     27  C   UNL     1       5.971   0.567   0.751  0.00  0.00    +0.000 A 
ATOM     28  C   UNL     1       5.793  -0.717   1.233  0.00  0.00    +0.002 A 
ATOM     29  C   UNL     1       4.541  -1.135   1.642  0.00  0.00    +0.023 A 
ENDBRANCH  22  24
ENDBRANCH  19  20
BRANCH  19  30
ATOM     30  C   UNL     1      -0.463  -2.307   0.852  0.00  0.00    +0.326 C 
ATOM     31  O   UNL     1      -0.852  -3.319   0.318  0.00  0.00    -0.250 OA
BRANCH  30  32
ATOM     32  O   UNL     1      -0.796  -1.110   0.345  0.00  0.00    -0.464 OA
BRANCH  32  34
ATOM     33  C   UNL     1      -1.885   0.337  -1.255  0.00  0.00    +0.048 C 
ATOM     34  C   UNL     1      -1.612  -1.107  -0.828  0.00  0.00    +0.229 C 
ENDBRANCH  32  34
ENDBRANCH  30  32
ENDBRANCH  19  30
ENDBRANCH   1  19
TORSDOF 9
