REMARK  Name = ZINC52627267
REMARK  9 active torsions:
REMARK  status: ('A' for Active; 'I' for Inactive)
REMARK    1  A    between atoms: C_7  and  C_10
REMARK    2  A    between atoms: N_13  and  C_16
REMARK    3  A    between atoms: C_16  and  C_17
REMARK    4  A    between atoms: C_17  and  N_18
REMARK    5  A    between atoms: C_19  and  C_21
REMARK    6  A    between atoms: C_21  and  C_22
REMARK    7  A    between atoms: C_22  and  C_23
REMARK    8  A    between atoms: C_23  and  C_24
REMARK    9  A    between atoms: C_24  and  C_25
REMARK                            x       y       z     vdW  Elec       q    Type
REMARK                         _______ _______ _______ _____ _____    ______ ____
ROOT
ATOM      1  C   UNL     1      -3.297  -6.068  -1.081  0.00  0.00    +0.085 C 
ENDROOT
BRANCH   1   2
ATOM      2  N   UNL     1      -4.248  -7.167  -0.895  0.00  0.00    -0.317 N 
ATOM      3  C   UNL     1      -5.433  -7.148  -1.537  0.00  0.00    +0.213 C 
ATOM      4  O   UNL     1      -5.712  -6.222  -2.268  0.00  0.00    -0.276 OA
ATOM      5  H   UNL     1      -4.025  -7.907  -0.310  0.00  0.00    +0.149 HD
BRANCH   3   6
ATOM      6  C   UNL     1      -6.412  -8.278  -1.346  0.00  0.00    +0.096 C 
BRANCH   6   7
ATOM      7  C   UNL     1      -7.666  -8.012  -2.180  0.00  0.00    +0.009 C 
BRANCH   7   8
ATOM      8  C   UNL     1      -8.660  -9.160  -1.986  0.00  0.00    +0.002 C 
BRANCH   8   9
ATOM      9  C   UNL     1      -9.915  -8.894  -2.820  0.00  0.00    +0.016 C 
BRANCH   9  10
ATOM     10  C   UNL     1     -10.908 -10.041  -2.626  0.00  0.00    +0.069 C 
ATOM     11  C   UNL     1     -12.148  -9.835  -3.458  0.00  0.00    +0.108 C 
ATOM     12  C   UNL     1     -13.337 -10.576  -2.770  0.00  0.00    +0.105 C 
ATOM     13  C   UNL     1     -13.447  -9.960  -1.378  0.00  0.00    +0.093 C 
ATOM     14  S   UNL     1     -11.632 -10.019  -0.920  0.00  0.00    -0.154 S 
ATOM     15  N   UNL     1     -14.355 -10.363  -3.773  0.00  0.00    -0.294 N 
ATOM     16  C   UNL     1     -13.694 -10.354  -4.969  0.00  0.00    +0.300 C 
ATOM     17  O   UNL     1     -14.248 -10.447  -6.047  0.00  0.00    -0.253 OA
ATOM     18  N   UNL     1     -12.345 -10.247  -4.816  0.00  0.00    -0.294 N 
ATOM     19  H   UNL     1     -15.308 -10.250  -3.628  0.00  0.00    +0.151 HD
ATOM     20  H   UNL     1     -11.666 -10.409  -5.488  0.00  0.00    +0.151 HD
ENDBRANCH   9  10
ENDBRANCH   8   9
ENDBRANCH   7   8
ENDBRANCH   6   7
ENDBRANCH   3   6
ENDBRANCH   1   2
BRANCH   1  21
ATOM     21  C   UNL     1      -2.042  -6.334  -0.247  0.00  0.00    -0.059 C 
BRANCH  21  25
ATOM     22  C   UNL     1       0.673  -3.130  -0.021  0.00  0.00    -0.049 C 
ATOM     23  C   UNL     1      -0.633  -2.895   0.089  0.00  0.00    -0.042 C 
ATOM     24  C   UNL     1      -1.658  -3.993   0.107  0.00  0.00    -0.051 C 
ATOM     25  N   UNL     1      -1.088  -5.232  -0.433  0.00  0.00    +0.383 N 
ATOM     26  C   UNL     1       0.162  -5.537   0.281  0.00  0.00    -0.074 C 
ATOM     27  C   UNL     1       1.227  -4.523  -0.148  0.00  0.00    +0.016 C 
ATOM     28  H   UNL     1      -0.895  -5.114  -1.417  0.00  0.00    -0.081 HD
BRANCH  22  35
ATOM     29  C   UNL     1       5.153  -2.875  -0.678  0.00  0.00    +0.001 A 
ATOM     30  C   UNL     1       5.659  -1.573  -0.597  0.00  0.00    +0.002 A 
ATOM     31  C   UNL     1       4.861  -0.509  -0.344  0.00  0.00    +0.026 A 
ATOM     32  C   UNL     1       3.466  -0.703  -0.153  0.00  0.00    +0.043 A 
ATOM     33  N   UNL     1       2.495   0.148   0.100  0.00  0.00    -0.380 N 
ATOM     34  C   UNL     1       1.228  -0.582   0.206  0.00  0.00    +0.149 C 
ATOM     35  C   UNL     1       1.565  -2.039  -0.024  0.00  0.00    -0.017 C 
ATOM     36  C   UNL     1       2.937  -2.076  -0.240  0.00  0.00    +0.003 A 
ATOM     37  C   UNL     1       3.834  -3.137  -0.507  0.00  0.00    +0.010 A 
ATOM     38  H   UNL     1       2.601   1.107   0.202  0.00  0.00    +0.160 HD
ENDBRANCH  22  35
ENDBRANCH  21  25
ENDBRANCH   1  21
TORSDOF 9
