REMARK  Name = ZINC37062933
REMARK  11 active torsions:
REMARK  status: ('A' for Active; 'I' for Inactive)
REMARK    1  A    between atoms: C_1  and  C_2
REMARK    2  A    between atoms: C_2  and  N_3
REMARK    3  A    between atoms: N_3  and  C_4
REMARK    4  A    between atoms: N_3  and  C_6
REMARK    5  A    between atoms: C_4  and  C_5
REMARK    6  A    between atoms: C_6  and  C_7
REMARK    7  A    between atoms: C_7  and  C_8
REMARK    8  A    between atoms: C_8  and  N_9
REMARK    9  A    between atoms: N_9  and  S_10
REMARK   10  A    between atoms: S_10  and  C_13
REMARK   11  A    between atoms: C_14  and  N_21
REMARK                            x       y       z     vdW  Elec       q    Type
REMARK                         _______ _______ _______ _____ _____    ______ ____
ROOT
ATOM      1  S   UNL     1      -0.653  -5.878   4.550  0.00  0.00    +0.061 S 
ATOM      2  O   UNL     1      -0.144  -6.299   5.808  0.00  0.00    -0.153 OA
ATOM      3  O   UNL     1      -2.023  -6.009   4.199  0.00  0.00    -0.153 OA
ENDROOT
BRANCH   1   4
ATOM      4  C   UNL     1       0.267  -6.743   3.321  0.00  0.00    +0.140 A 
ATOM      5  C   UNL     1      -0.307  -7.014   2.085  0.00  0.00    +0.053 A 
ATOM      6  C   UNL     1       0.420  -7.695   1.119  0.00  0.00    +0.040 A 
ATOM      7  C   UNL     1       1.714  -8.102   1.388  0.00  0.00    +0.021 A 
ATOM      8  C   UNL     1       2.283  -7.831   2.620  0.00  0.00    +0.032 A 
ATOM      9  C   UNL     1       1.562  -7.147   3.583  0.00  0.00    +0.047 A 
ATOM     10 BR   UNL     1       2.348  -6.771   5.261  0.00  0.00    -0.048 Br
ATOM     11 BR   UNL     1       2.706  -9.030   0.073  0.00  0.00    -0.050 Br
BRANCH   5  12
ATOM     12  N   UNL     1      -1.615  -6.602   1.816  0.00  0.00    -0.356 N 
ATOM     13  H   UNL     1      -2.002  -5.862   2.309  0.00  0.00    +0.142 HD
ATOM     14  H   UNL     1      -2.136  -7.057   1.136  0.00  0.00    +0.142 HD
ENDBRANCH   5  12
ENDBRANCH   1   4
BRANCH   1  15
ATOM     15  N   UNL     1      -0.278  -4.271   4.402  0.00  0.00    -0.190 NA
ATOM     16  H   UNL     1       0.187  -3.814   5.119  0.00  0.00    +0.148 HD
BRANCH  15  17
ATOM     17  C   UNL     1      -0.649  -3.542   3.187  0.00  0.00    +0.104 C 
BRANCH  17  18
ATOM     18  C   UNL     1      -0.538  -2.037   3.441  0.00  0.00    -0.002 C 
BRANCH  18  19
ATOM     19  C   UNL     1      -0.926  -1.275   2.173  0.00  0.00    -0.078 C 
BRANCH  19  20
ATOM     20  N   UNL     1      -0.819   0.170   2.417  0.00  0.00    +0.379 N 
ATOM     21  H   UNL     1      -1.377   0.416   3.221  0.00  0.00    -0.082 HD
BRANCH  20  23
ATOM     22  C   UNL     1       0.678   1.998   3.059  0.00  0.00    -0.017 C 
ATOM     23  C   UNL     1       0.585   0.521   2.668  0.00  0.00    -0.082 C 
ENDBRANCH  20  23
BRANCH  20  24
ATOM     24  C   UNL     1      -1.305   0.902   1.240  0.00  0.00    -0.082 C 
ATOM     25  C   UNL     1      -2.803   0.645   1.062  0.00  0.00    -0.017 C 
ENDBRANCH  20  24
ENDBRANCH  19  20
ENDBRANCH  18  19
ENDBRANCH  17  18
ENDBRANCH  15  17
ENDBRANCH   1  15
TORSDOF 9
