REMARK  Name = ZINC28541692
REMARK  8 active torsions:
REMARK  status: ('A' for Active; 'I' for Inactive)
REMARK    1  A    between atoms: C_9  and  C_12
REMARK    2  A    between atoms: C_12  and  C_13
REMARK    3  A    between atoms: C_13  and  C_14
REMARK    4  A    between atoms: N_16  and  C_17
REMARK    5  A    between atoms: C_20  and  C_23
REMARK    6  A    between atoms: N_25  and  C_26
REMARK    7  A    between atoms: C_29  and  S_32
REMARK    8  A    between atoms: S_32  and  N_35
REMARK                            x       y       z     vdW  Elec       q    Type
REMARK                         _______ _______ _______ _____ _____    ______ ____
ROOT
ATOM      1  C   UNL     1       0.809  11.697   0.749  0.00  0.00    +0.033 A 
ATOM      2  C   UNL     1       0.038  12.088  -0.341  0.00  0.00    +0.024 A 
ATOM      3  C   UNL     1       0.093  13.387  -0.794  0.00  0.00    +0.015 A 
ATOM      4  C   UNL     1       0.932  14.310  -0.164  0.00  0.00    +0.037 A 
ATOM      5  C   UNL     1       1.709  13.912   0.928  0.00  0.00    +0.015 A 
ATOM      6  C   UNL     1       1.645  12.613   1.379  0.00  0.00    +0.024 A 
ENDROOT
BRANCH   1   9
ATOM      7  C   UNL     1      -0.409   9.694   1.132  0.00  0.00    +0.217 C 
ATOM      8  O   UNL     1      -1.419  10.248   0.752  0.00  0.00    -0.275 OA
ATOM      9  N   UNL     1       0.748  10.381   1.208  0.00  0.00    -0.285 N 
ATOM     10  H   UNL     1       1.644   9.905   1.632  0.00  0.00    +0.155 HD
BRANCH   7  11
ATOM     11  C   UNL     1      -0.448   8.239   1.520  0.00  0.00    +0.100 C 
BRANCH  11  12
ATOM     12  C   UNL     1      -1.869   7.701   1.343  0.00  0.00    +0.057 C 
BRANCH  12  21
ATOM     13  C   UNL     1      -1.613   1.355   0.870  0.00  0.00    +0.004 A 
ATOM     14  C   UNL     1      -0.503   1.917   0.267  0.00  0.00    +0.004 A 
ATOM     15  C   UNL     1      -0.342   3.289   0.252  0.00  0.00    +0.049 A 
ATOM     16  C   UNL     1      -1.294   4.107   0.843  0.00  0.00    +0.162 A 
ATOM     17  C   UNL     1      -2.409   3.542   1.451  0.00  0.00    +0.162 A 
ATOM     18  C   UNL     1      -2.567   2.164   1.457  0.00  0.00    +0.049 A 
ATOM     19  O   UNL     1      -3.353   4.325   2.040  0.00  0.00    -0.485 OA
ATOM     20  C   UNL     1      -3.355   5.711   1.680  0.00  0.00    +0.273 C 
ATOM     21  C   UNL     1      -1.909   6.223   1.736  0.00  0.00    +0.211 C 
ATOM     22  O   UNL     1      -1.126   5.457   0.814  0.00  0.00    -0.482 OA
ENDBRANCH  12  21
ENDBRANCH  11  12
ENDBRANCH   7  11
ENDBRANCH   1   9
BRANCH   4  23
ATOM     23  C   UNL     1       0.998  15.702  -0.650  0.00  0.00    +0.248 C 
ATOM     24  O   UNL     1       1.728  16.504  -0.101  0.00  0.00    -0.270 OA
ATOM     25  N   UNL     1       0.248  16.084  -1.702  0.00  0.00    -0.282 N 
ATOM     26  H   UNL     1      -0.475  15.383  -2.146  0.00  0.00    +0.155 HD
BRANCH  25  27
ATOM     27  C   UNL     1       0.388  17.371  -2.231  0.00  0.00    +0.034 A 
ATOM     28  C   UNL     1      -0.709  18.023  -2.779  0.00  0.00    +0.025 A 
ATOM     29  C   UNL     1      -0.568  19.296  -3.294  0.00  0.00    +0.030 A 
ATOM     30  C   UNL     1       0.667  19.918  -3.276  0.00  0.00    +0.105 A 
ATOM     31  C   UNL     1       1.763  19.270  -2.736  0.00  0.00    +0.030 A 
ATOM     32  C   UNL     1       1.627  17.999  -2.214  0.00  0.00    +0.025 A 
BRANCH  30  33
ATOM     33  S   UNL     1       0.844  21.540  -3.941  0.00  0.00    +0.056 S 
ATOM     34  O   UNL     1      -0.442  22.142  -3.891  0.00  0.00    -0.153 OA
ATOM     35  O   UNL     1       1.980  22.116  -3.311  0.00  0.00    -0.153 OA
BRANCH  33  36
ATOM     36  N   UNL     1       1.226  21.372  -5.544  0.00  0.00    -0.204 NA
ATOM     37  H   UNL     1       1.345  22.367  -5.998  0.00  0.00    +0.144 HD
ATOM     38  H   UNL     1       0.419  20.829  -6.058  0.00  0.00    +0.144 HD
ENDBRANCH  33  36
ENDBRANCH  30  33
ENDBRANCH  25  27
ENDBRANCH   4  23
TORSDOF 8
