REMARK  Name = ZINC01461186
REMARK  4 active torsions:
REMARK  status: ('A' for Active; 'I' for Inactive)
REMARK    1  A    between atoms: C_1  and  O_2
REMARK    2  A    between atoms: O_2  and  C_3
REMARK    3  A    between atoms: C_5  and  C_10
REMARK    4  A    between atoms: C_8  and  O_9
REMARK                            x       y       z     vdW  Elec       q    Type
REMARK                         _______ _______ _______ _____ _____    ______ ____
ROOT
ATOM      1  C   UNL     1      -4.568  -0.903  -0.465  0.00  0.00    +0.060 C 
ATOM      2  C   UNL     1      -5.790  -0.180  -1.038  0.00  0.00    +0.109 C 
ATOM      3  C   UNL     1      -6.589  -1.135  -1.886  0.00  0.00    +0.218 C 
ATOM      4  O   UNL     1      -7.156  -0.727  -2.877  0.00  0.00    -0.275 OA
ATOM      5  N   UNL     1      -6.679  -2.436  -1.553  0.00  0.00    -0.285 N 
ATOM      6  C   UNL     1      -6.062  -2.910  -0.387  0.00  0.00    +0.041 A 
ATOM      7  C   UNL     1      -5.015  -2.192   0.177  0.00  0.00    -0.015 A 
ATOM      8  C   UNL     1      -4.391  -2.656   1.318  0.00  0.00    +0.055 A 
ATOM      9  C   UNL     1      -4.812  -3.837   1.905  0.00  0.00    +0.167 A 
ATOM     10  C   UNL     1      -5.867  -4.556   1.345  0.00  0.00    +0.168 A 
ATOM     11  C   UNL     1      -6.490  -4.092   0.200  0.00  0.00    +0.073 A 
ATOM     12  O   UNL     1      -6.082  -5.668   2.115  0.00  0.00    -0.453 OA
ATOM     13  C   UNL     1      -5.516  -5.318   3.400  0.00  0.00    +0.466 C 
ATOM     14  O   UNL     1      -4.379  -4.509   3.017  0.00  0.00    -0.453 OA
ATOM     15  H   UNL     1      -7.172  -3.048  -2.122  0.00  0.00    +0.155 HD
ENDROOT
BRANCH   1  18
ATOM     16  C   UNL     1      -1.976   1.163   1.348  0.00  0.00    +0.162 A 
ATOM     17  C   UNL     1      -2.590   0.365   0.396  0.00  0.00    +0.053 A 
ATOM     18  C   UNL     1      -3.904  -0.030   0.568  0.00  0.00    -0.036 A 
ATOM     19  C   UNL     1      -4.611   0.380   1.683  0.00  0.00    +0.008 A 
ATOM     20  C   UNL     1      -4.006   1.181   2.634  0.00  0.00    +0.049 A 
ATOM     21  C   UNL     1      -2.688   1.575   2.470  0.00  0.00    +0.158 A 
BRANCH  16  23
ATOM     22  C   UNL     1      -0.013   1.086   0.008  0.00  0.00    +0.277 C 
ATOM     23  O   UNL     1      -0.682   1.547   1.184  0.00  0.00    -0.491 OA
ENDBRANCH  16  23
BRANCH  21  24
ATOM     24  O   UNL     1      -2.092   2.363   3.405  0.00  0.00    -0.503 OA
ATOM     25  H   UNL     1      -2.188   3.311   3.239  0.00  0.00    +0.292 HD
ENDBRANCH  21  24
ENDBRANCH   1  18
TORSDOF 3
