REMARK  Name = ZINC64097857
REMARK  8 active torsions:
REMARK  status: ('A' for Active; 'I' for Inactive)
REMARK    1  A    between atoms: C_1  and  O_2
REMARK    2  A    between atoms: O_2  and  C_3
REMARK    3  A    between atoms: C_6  and  O_35
REMARK    4  A    between atoms: C_7  and  N_9
REMARK    5  A    between atoms: C_10  and  O_34
REMARK    6  A    between atoms: C_13  and  O_33
REMARK    7  A    between atoms: C_14  and  C_18
REMARK    8  A    between atoms: O_35  and  C_36
REMARK                            x       y       z     vdW  Elec       q    Type
REMARK                         _______ _______ _______ _____ _____    ______ ____
ROOT
ATOM      1  N   UNL     1       1.497  -4.127  -2.199  0.00  0.00    -0.222 N 
ATOM      2  C   UNL     1       2.601  -4.929  -1.692  0.00  0.00    +0.339 C 
ATOM      3  N   UNL     1       2.660  -6.238  -2.320  0.00  0.00    -0.204 NA
ATOM      4  C   UNL     1       1.677  -6.793  -2.916  0.00  0.00    +0.200 C 
ATOM      5  C   UNL     1       0.329  -6.147  -3.041  0.00  0.00    +0.179 C 
ATOM      6  C   UNL     1       0.434  -4.666  -2.810  0.00  0.00    +0.237 C 
ATOM      7  O   UNL     1      -0.461  -3.941  -3.190  0.00  0.00    -0.274 OA
ENDROOT
BRANCH   5   8
ATOM      8  C   UNL     1      -0.618  -6.746  -1.999  0.00  0.00    +0.101 C 
ATOM      9  C   UNL     1      -2.026  -6.177  -2.194  0.00  0.00    +0.124 C 
ATOM     10  C   UNL     1      -2.858  -6.688  -1.023  0.00  0.00    -0.036 C 
ATOM     11  C   UNL     1      -3.920  -7.282  -1.548  0.00  0.00    -0.001 A 
ATOM     12  C   UNL     1      -5.112  -7.887  -0.932  0.00  0.00    +0.010 A 
ATOM     13  C   UNL     1      -6.017  -8.432  -1.786  0.00  0.00    +0.001 A 
ATOM     14  C   UNL     1      -5.859  -8.437  -3.175  0.00  0.00    +0.002 A 
ATOM     15  C   UNL     1      -4.798  -7.898  -3.828  0.00  0.00    +0.026 A 
ATOM     16  C   UNL     1      -3.781  -7.290  -3.037  0.00  0.00    +0.043 A 
ATOM     17  N   UNL     1      -2.672  -6.677  -3.406  0.00  0.00    -0.376 N 
ATOM     18  C   UNL     1      -2.381  -6.557   0.404  0.00  0.00    +0.048 C 
ATOM     19  C   UNL     1      -0.922  -7.049   0.416  0.00  0.00    +0.085 C 
ATOM     20  N   UNL     1      -0.158  -6.391  -0.647  0.00  0.00    -0.310 NA
ATOM     21  H   UNL     1       0.831  -6.567  -0.544  0.00  0.00    +0.122 HD
ATOM     22  H   UNL     1      -2.338  -6.576  -4.311  0.00  0.00    +0.160 HD
ENDBRANCH   5   8
BRANCH   1  27
ATOM     23  C   UNL     1       1.063  -0.775  -0.738  0.00  0.00    +0.122 A 
ATOM     24  C   UNL     1       1.643   0.017  -1.717  0.00  0.00    +0.049 A 
ATOM     25  C   UNL     1       2.175  -0.564  -2.854  0.00  0.00    +0.051 A 
ATOM     26  C   UNL     1       2.128  -1.938  -3.017  0.00  0.00    +0.142 A 
ATOM     27  C   UNL     1       1.546  -2.736  -2.036  0.00  0.00    +0.086 A 
ATOM     28  C   UNL     1       1.018  -2.152  -0.894  0.00  0.00    +0.073 A 
BRANCH  23  30
ATOM     29  C   UNL     1       0.621   1.223   0.474  0.00  0.00    +0.277 C 
ATOM     30  O   UNL     1       0.541  -0.201   0.379  0.00  0.00    -0.495 OA
ENDBRANCH  23  30
BRANCH  26  31
ATOM     31  O   UNL     1       2.651  -2.509  -4.137  0.00  0.00    -0.493 OA
ATOM     32  C   UNL     1       3.232  -1.630  -5.102  0.00  0.00    +0.277 C 
ENDBRANCH  26  31
ENDBRANCH   1  27
BRANCH   4  33
ATOM     33  O   UNL     1       1.858  -8.016  -3.458  0.00  0.00    -0.495 OA
ATOM     34  H   UNL     1       2.750  -8.370  -3.340  0.00  0.00    +0.293 HD
ENDBRANCH   4  33
BRANCH   2  35
ATOM     35  O   UNL     1       3.828  -4.240  -1.941  0.00  0.00    -0.356 OA
ATOM     36  H   UNL     1       4.613  -4.712  -1.631  0.00  0.00    +0.214 HD
ENDBRANCH   2  35
TORSDOF 6
