REMARK  Name = ZINC39881637
REMARK  5 active torsions:
REMARK  status: ('A' for Active; 'I' for Inactive)
REMARK    1  A    between atoms: C_1  and  O_2
REMARK    2  A    between atoms: O_2  and  C_3
REMARK    3  A    between atoms: N_13  and  C_16
REMARK    4  A    between atoms: C_19  and  C_22
REMARK    5  A    between atoms: N_24  and  C_25
REMARK                            x       y       z     vdW  Elec       q    Type
REMARK                         _______ _______ _______ _____ _____    ______ ____
ROOT
ATOM      1  C   UNL     1      -2.982  -7.006   0.032  0.00  0.00    +0.035 A 
ATOM      2  C   UNL     1      -1.995  -7.001   1.014  0.00  0.00    +0.024 A 
ATOM      3  C   UNL     1      -1.006  -7.958   1.003  0.00  0.00    +0.015 A 
ATOM      4  C   UNL     1      -0.993  -8.936   0.004  0.00  0.00    +0.037 A 
ATOM      5  C   UNL     1      -1.985  -8.938  -0.981  0.00  0.00    +0.015 A 
ATOM      6  C   UNL     1      -2.974  -7.982  -0.961  0.00  0.00    +0.024 A 
ENDROOT
BRANCH   1  17
ATOM      7  C   UNL     1      -1.256  -0.647   0.008  0.00  0.00    +0.122 A 
ATOM      8  C   UNL     1      -2.438   0.100   0.024  0.00  0.00    +0.046 A 
ATOM      9  C   UNL     1      -3.651  -0.517   0.041  0.00  0.00    +0.013 A 
ATOM     10  C   UNL     1      -3.721  -1.919   0.042  0.00  0.00    -0.001 A 
ATOM     11  C   UNL     1      -4.960  -2.590   0.059  0.00  0.00    +0.017 A 
ATOM     12  C   UNL     1      -4.959  -3.952   0.059  0.00  0.00    -0.007 A 
ATOM     13  C   UNL     1      -3.755  -4.666   0.042  0.00  0.00    +0.107 A 
ATOM     14  N   UNL     1      -2.595  -4.020   0.027  0.00  0.00    -0.342 N 
ATOM     15  C   UNL     1      -2.531  -2.686   0.026  0.00  0.00    +0.051 A 
ATOM     16  C   UNL     1      -1.292  -2.023   0.003  0.00  0.00    +0.071 A 
ATOM     17  N   UNL     1      -3.981  -6.037   0.045  0.00  0.00    -0.286 N 
ATOM     18  C   UNL     1      -5.417  -6.318   0.065  0.00  0.00    +0.117 C 
ATOM     19  C   UNL     1      -6.102  -4.941   0.074  0.00  0.00    +0.058 C 
ATOM     20  H   UNL     1      -1.771  -4.532   0.016  0.00  0.00    +0.167 HD
BRANCH   7  22
ATOM     21  C   UNL     1      -0.086   1.421  -0.003  0.00  0.00    +0.277 C 
ATOM     22  O   UNL     1      -0.058  -0.008  -0.009  0.00  0.00    -0.495 OA
ENDBRANCH   7  22
ENDBRANCH   1  17
BRANCH   4  23
ATOM     23  C   UNL     1       0.066  -9.963  -0.011  0.00  0.00    +0.248 C 
ATOM     24  O   UNL     1       0.928  -9.959   0.846  0.00  0.00    -0.270 OA
ATOM     25  N   UNL     1       0.077 -10.905  -0.975  0.00  0.00    -0.281 N 
ATOM     26  H   UNL     1      -0.562 -10.862  -1.702  0.00  0.00    +0.155 HD
BRANCH  25  27
ATOM     27  C   UNL     1       1.012 -11.944  -0.925  0.00  0.00    +0.036 A 
ATOM     28  C   UNL     1       1.549 -12.453  -2.100  0.00  0.00    +0.043 A 
ATOM     29  C   UNL     1       2.473 -13.480  -2.049  0.00  0.00    +0.044 A 
ATOM     30  C   UNL     1       2.862 -14.002  -0.827  0.00  0.00    +0.040 A 
ATOM     31  C   UNL     1       2.328 -13.497   0.345  0.00  0.00    +0.044 A 
ATOM     32  C   UNL     1       1.408 -12.466   0.299  0.00  0.00    +0.043 A 
ATOM     33 CL   UNL     1       2.818 -14.154   1.875  0.00  0.00    -0.083 Cl
ATOM     34 CL   UNL     1       3.145 -14.117  -3.517  0.00  0.00    -0.083 Cl
ENDBRANCH  25  27
ENDBRANCH   4  23
TORSDOF 4
