REMARK  Name = ZINC45115814
REMARK  8 active torsions:
REMARK  status: ('A' for Active; 'I' for Inactive)
REMARK    1  A    between atoms: C_11  and  C_13
REMARK    2  A    between atoms: C_13  and  C_14
REMARK    3  A    between atoms: C_14  and  C_15
REMARK    4  A    between atoms: C_15  and  C_16
REMARK    5  A    between atoms: N_18  and  C_19
REMARK    6  A    between atoms: C_19  and  C_20
REMARK    7  A    between atoms: C_23  and  S_25
REMARK    8  A    between atoms: S_25  and  N_28
REMARK                            x       y       z     vdW  Elec       q    Type
REMARK                         _______ _______ _______ _____ _____    ______ ____
ROOT
ATOM      1  C   UNL     1       8.552  -1.158  -0.093  0.00  0.00    +0.213 C 
ATOM      2  O   UNL     1       8.257   0.019  -0.083  0.00  0.00    -0.276 OA
ATOM      3  N   UNL     1       9.847  -1.528  -0.108  0.00  0.00    -0.311 N 
ATOM      4  H   UNL     1      10.082  -2.469  -0.116  0.00  0.00    +0.149 HD
ENDROOT
BRANCH   1   5
ATOM      5  C   UNL     1       7.468  -2.205  -0.087  0.00  0.00    +0.096 C 
BRANCH   5   6
ATOM      6  C   UNL     1       6.099  -1.523  -0.069  0.00  0.00    +0.017 C 
BRANCH   6   7
ATOM      7  C   UNL     1       4.999  -2.586  -0.063  0.00  0.00    +0.075 C 
BRANCH   7  18
ATOM      8  C   UNL     1      -0.017   1.373   0.010  0.00  0.00    +0.001 A 
ATOM      9  C   UNL     1       1.169   2.096   0.002  0.00  0.00    +0.002 A 
ATOM     10  C   UNL     1       2.387   1.453  -0.013  0.00  0.00    +0.028 A 
ATOM     11  C   UNL     1       2.432   0.058  -0.021  0.00  0.00    +0.078 A 
ATOM     12  C   UNL     1       1.224  -0.674  -0.013  0.00  0.00    +0.065 A 
ATOM     13  C   UNL     1       0.002  -0.004   0.002  0.00  0.00    +0.015 A 
ATOM     14  C   UNL     1       1.306  -2.142  -0.022  0.00  0.00    +0.259 A 
ATOM     15  O   UNL     1       0.302  -2.832  -0.017  0.00  0.00    -0.267 OA
ATOM     16  N   UNL     1       2.540  -2.697  -0.038  0.00  0.00    -0.310 N 
ATOM     17  H   UNL     1       2.633  -3.663  -0.045  0.00  0.00    +0.170 HD
ATOM     18  C   UNL     1       3.650  -1.914  -0.045  0.00  0.00    +0.110 A 
ATOM     19  N   UNL     1       3.609  -0.616  -0.037  0.00  0.00    -0.234 NA
ENDBRANCH   7  18
ENDBRANCH   6   7
ENDBRANCH   5   6
ENDBRANCH   1   5
BRANCH   3  20
ATOM     20  C   UNL     1      10.900  -0.510  -0.114  0.00  0.00    +0.146 C 
BRANCH  20  21
ATOM     21  C   UNL     1      12.249  -1.182  -0.132  0.00  0.00    +0.009 A 
ATOM     22  C   UNL     1      13.004  -1.552  -1.195  0.00  0.00    +0.015 A 
ATOM     23  C   UNL     1      14.225  -2.161  -0.970  0.00  0.00    +0.036 A 
ATOM     24  C   UNL     1      14.630  -2.370   0.306  0.00  0.00    +0.142 A 
ATOM     25  S   UNL     1      13.270  -1.691   1.242  0.00  0.00    -0.072 S 
BRANCH  24  26
ATOM     26  S   UNL     1      16.117  -3.114   0.890  0.00  0.00    +0.062 S 
ATOM     27  O   UNL     1      15.842  -3.600   2.197  0.00  0.00    -0.153 OA
ATOM     28  O   UNL     1      16.586  -3.957  -0.153  0.00  0.00    -0.153 OA
BRANCH  26  29
ATOM     29  N   UNL     1      17.235  -1.905   1.061  0.00  0.00    -0.203 NA
ATOM     30  H   UNL     1      16.996  -0.989   0.846  0.00  0.00    +0.144 HD
ATOM     31  H   UNL     1      18.129  -2.111   1.376  0.00  0.00    +0.144 HD
ENDBRANCH  26  29
ENDBRANCH  24  26
ENDBRANCH  20  21
ENDBRANCH   3  20
TORSDOF 8
