REMARK  Name = ZINC39675401
REMARK  11 active torsions:
REMARK  status: ('A' for Active; 'I' for Inactive)
REMARK    1  A    between atoms: C_1  and  C_2
REMARK    2  A    between atoms: C_5  and  C_9
REMARK    3  A    between atoms: C_7  and  C_8
REMARK    4  A    between atoms: C_13  and  C_22
REMARK    5  A    between atoms: N_24  and  C_25
REMARK    6  A    between atoms: C_25  and  C_27
REMARK    7  A    between atoms: C_25  and  C_28
REMARK    8  A    between atoms: C_28  and  C_29
REMARK    9  A    between atoms: C_29  and  C_30
REMARK   10  A    between atoms: C_33  and  O_36
REMARK   11  A    between atoms: O_36  and  C_37
REMARK                            x       y       z     vdW  Elec       q    Type
REMARK                         _______ _______ _______ _____ _____    ______ ____
ROOT
ATOM      1  C   UNL     1       0.063  -4.258  -0.019  0.00  0.00    +0.247 C 
ATOM      2  O   UNL     1       0.186  -4.871   1.023  0.00  0.00    -0.270 OA
ATOM      3  N   UNL     1      -0.036  -4.924  -1.186  0.00  0.00    -0.296 N 
ATOM      4  C   UNL     1      -0.063  -4.359  -2.556  0.00  0.00    +0.121 C 
ATOM      5  C   UNL     1       0.782  -5.339  -3.399  0.00  0.00    +0.100 C 
ATOM      6  C   UNL     1       0.724  -6.670  -2.630  0.00  0.00    -0.004 C 
ATOM      7  C   UNL     1      -0.137  -6.389  -1.390  0.00  0.00    +0.115 C 
ATOM      8  C   UNL     1       2.126  -7.097  -2.206  0.00  0.00    -0.010 C 
ATOM      9  C   UNL     1       2.048  -8.450  -1.493  0.00  0.00    -0.082 C 
ATOM     10  N   UNL     1       1.463  -9.448  -2.396  0.00  0.00    +0.379 N 
ATOM     11  C   UNL     1       0.082  -9.077  -2.726  0.00  0.00    -0.082 C 
ATOM     12  C   UNL     1       0.076  -7.750  -3.491  0.00  0.00    -0.010 C 
ATOM     13  H   UNL     1       2.009  -9.494  -3.244  0.00  0.00    -0.086 HD
ATOM     14  H   UNL     1       1.469 -10.351  -1.947  0.00  0.00    -0.086 HD
ENDROOT
BRANCH   1  19
ATOM     15  C   UNL     1      -0.097   1.495   0.032  0.00  0.00    +0.044 C 
ATOM     16  C   UNL     1      -0.056  -0.012   0.019  0.00  0.00    -0.047 A 
ATOM     17  C   UNL     1      -0.643  -0.708  -1.023  0.00  0.00    +0.004 A 
ATOM     18  C   UNL     1      -0.608  -2.087  -1.041  0.00  0.00    +0.013 A 
ATOM     19  C   UNL     1       0.022  -2.780  -0.006  0.00  0.00    +0.037 A 
ATOM     20  C   UNL     1       0.612  -2.071   1.042  0.00  0.00    +0.016 A 
ATOM     21  C   UNL     1       0.575  -0.692   1.046  0.00  0.00    -0.047 A 
ATOM     22  C   UNL     1       1.216   0.074   2.173  0.00  0.00    +0.044 C 
ENDBRANCH   1  19
BRANCH   5  23
ATOM     23  C   UNL     1       2.204  -4.852  -3.502  0.00  0.00    +0.218 C 
ATOM     24  O   UNL     1       2.717  -4.275  -2.566  0.00  0.00    -0.275 OA
ATOM     25  N   UNL     1       2.907  -5.057  -4.634  0.00  0.00    -0.312 N 
ATOM     26  H   UNL     1       2.497  -5.518  -5.382  0.00  0.00    +0.149 HD
BRANCH  25  27
ATOM     27  C   UNL     1       4.290  -4.583  -4.734  0.00  0.00    +0.070 C 
ATOM     28  C   UNL     1       4.296  -3.116  -5.169  0.00  0.00    +0.028 C 
BRANCH  27  29
ATOM     29  C   UNL     1       5.044  -5.425  -5.765  0.00  0.00    +0.026 C 
BRANCH  29  30
ATOM     30  C   UNL     1       5.146  -6.868  -5.269  0.00  0.00    +0.037 C 
BRANCH  30  31
ATOM     31  C   UNL     1       5.888  -7.697  -6.285  0.00  0.00    -0.047 A 
ATOM     32  C   UNL     1       5.194  -8.332  -7.298  0.00  0.00    +0.007 A 
ATOM     33  C   UNL     1       5.873  -9.093  -8.231  0.00  0.00    +0.046 A 
ATOM     34  C   UNL     1       7.252  -9.219  -8.150  0.00  0.00    +0.120 A 
ATOM     35  C   UNL     1       7.946  -8.581  -7.132  0.00  0.00    +0.046 A 
ATOM     36  C   UNL     1       7.263  -7.817  -6.206  0.00  0.00    +0.007 A 
BRANCH  34  37
ATOM     37  O   UNL     1       7.922  -9.968  -9.065  0.00  0.00    -0.495 OA
ATOM     38  C   UNL     1       9.341 -10.053  -8.920  0.00  0.00    +0.277 C 
ENDBRANCH  34  37
ENDBRANCH  30  31
ENDBRANCH  29  30
ENDBRANCH  27  29
ENDBRANCH  25  27
ENDBRANCH   5  23
TORSDOF 7
