REMARK  Name = ZINC00026124
REMARK  5 active torsions:
REMARK  status: ('A' for Active; 'I' for Inactive)
REMARK    1  A    between atoms: C_1  and  C_2
REMARK    2  A    between atoms: C_2  and  C_4
REMARK    3  A    between atoms: C_2  and  N_10
REMARK    4  A    between atoms: N_10  and  C_11
REMARK    5  A    between atoms: C_11  and  N_12
REMARK                            x       y       z     vdW  Elec       q    Type
REMARK                         _______ _______ _______ _____ _____    ______ ____
ROOT
ATOM      1  C   UNL     1      -0.003  -0.679  -2.338  0.00  0.00    +0.136 C 
ATOM      2  S   UNL     1      -1.694  -0.412  -2.361  0.00  0.00    -0.019 S 
ENDROOT
BRANCH   1   3
ATOM      3  N   UNL     1       0.637  -1.043  -3.467  0.00  0.00    -0.283 N 
ATOM      4  C   UNL     1      -0.088  -1.278  -4.634  0.00  0.00    +0.102 A 
ATOM      5  C   UNL     1       0.278  -2.326  -5.472  0.00  0.00    +0.043 A 
ATOM      6  C   UNL     1      -0.450  -2.550  -6.627  0.00  0.00    +0.020 A 
ATOM      7  C   UNL     1      -1.524  -1.714  -6.906  0.00  0.00    +0.034 A 
ATOM      8  C   UNL     1      -1.831  -0.692  -6.028  0.00  0.00    +0.099 A 
ATOM      9  N   UNL     1      -1.121  -0.506  -4.932  0.00  0.00    -0.348 N 
ATOM     10 BR   UNL     1      -2.555  -1.971  -8.470  0.00  0.00    -0.049 Br
ATOM     11  H   UNL     1      -1.360   0.216  -4.330  0.00  0.00    +0.167 HD
ATOM     12  H   UNL     1       1.602  -1.141  -3.468  0.00  0.00    +0.155 HD
ENDBRANCH   1   3
BRANCH   1  13
ATOM     13  N   UNL     1       0.688  -0.525  -1.192  0.00  0.00    -0.323 N 
ATOM     14  H   UNL     1       1.646  -0.676  -1.179  0.00  0.00    +0.148 HD
BRANCH  13  16
ATOM     15  C   UNL     1      -0.136   1.394   0.080  0.00  0.00    +0.028 C 
ATOM     16  C   UNL     1      -0.008  -0.130   0.035  0.00  0.00    +0.072 C 
BRANCH  16  17
ATOM     17  C   UNL     1       0.788  -0.611   1.250  0.00  0.00    +0.009 C 
ATOM     18  C   UNL     1       0.917  -2.135   1.206  0.00  0.00    +0.005 C 
ATOM     19  C   UNL     1       1.712  -2.615   2.421  0.00  0.00    +0.000 C 
ATOM     20  C   UNL     1       0.986  -2.202   3.702  0.00  0.00    +0.000 C 
ATOM     21  C   UNL     1       0.857  -0.678   3.747  0.00  0.00    +0.000 C 
ATOM     22  C   UNL     1       0.062  -0.198   2.532  0.00  0.00    +0.005 C 
ENDBRANCH  16  17
ENDBRANCH  13  16
ENDBRANCH   1  13
TORSDOF 4
