REMARK  Name = ZINC64471472
REMARK  1 active torsions:
REMARK  status: ('A' for Active; 'I' for Inactive)
REMARK    1  A    between atoms: C_13  and  C_15
REMARK                            x       y       z     vdW  Elec       q    Type
REMARK                         _______ _______ _______ _____ _____    ______ ____
ROOT
ATOM      1  C   UNL     1       0.053   1.332   0.024  0.00  0.00    +0.120 A 
ATOM      2  C   UNL     1       1.215   2.009  -0.138  0.00  0.00    +0.068 A 
ATOM      3  S   UNL     1       2.377   0.657  -0.240  0.00  0.00    -0.061 S 
ATOM      4  C   UNL     1       1.279  -0.607  -0.069  0.00  0.00    +0.161 A 
ATOM      5  N   UNL     1       0.125   0.013   0.054  0.00  0.00    -0.233 NA
ATOM      6  N   UNL     1       1.530  -1.970  -0.060  0.00  0.00    -0.308 N 
ATOM      7  C   UNL     1       0.392  -2.889   0.099  0.00  0.00    +0.108 C 
ATOM      8  C   UNL     1       0.469  -4.090  -0.847  0.00  0.00    +0.038 C 
ATOM      9  C   UNL     1       0.937  -3.650  -2.220  0.00  0.00    +0.109 C 
ATOM     10  N   UNL     1       2.400  -3.655  -2.223  0.00  0.00    -0.296 N 
ATOM     11  C   UNL     1       3.209  -2.600  -1.721  0.00  0.00    +0.127 C 
ATOM     12  C   UNL     1       2.902  -2.421  -0.215  0.00  0.00    +0.126 C 
ATOM     13  C   UNL     1       3.022  -4.735  -2.736  0.00  0.00    +0.239 C 
ATOM     14  O   UNL     1       4.233  -4.742  -2.847  0.00  0.00    -0.271 OA
ENDROOT
BRANCH  13  15
ATOM     15  C   UNL     1       2.237  -5.904  -3.162  0.00  0.00    +0.066 C 
ATOM     16  C   UNL     1       2.856  -7.018  -3.540  0.00  0.00    -0.065 C 
ATOM     17  C   UNL     1       4.338  -7.202  -3.300  0.00  0.00    +0.031 C 
ATOM     18  C   UNL     1       4.555  -8.548  -2.599  0.00  0.00    +0.004 C 
ATOM     19  C   UNL     1       3.907  -9.661  -3.424  0.00  0.00    +0.001 C 
ATOM     20  C   UNL     1       2.394  -9.446  -3.487  0.00  0.00    +0.004 C 
ATOM     21  C   UNL     1       2.095  -8.137  -4.217  0.00  0.00    +0.031 C 
ENDBRANCH  13  15
TORSDOF 1
