REMARK  Name = ZINC53938456
REMARK  8 active torsions:
REMARK  status: ('A' for Active; 'I' for Inactive)
REMARK    1  A    between atoms: C_6  and  C_7
REMARK    2  A    between atoms: C_7  and  C_9
REMARK    3  A    between atoms: C_7  and  N_21
REMARK    4  A    between atoms: C_9  and  C_10
REMARK    5  A    between atoms: C_10  and  N_11
REMARK    6  A    between atoms: C_16  and  C_18
REMARK    7  A    between atoms: C_18  and  C_19
REMARK    8  A    between atoms: C_19  and  O_20
REMARK                            x       y       z     vdW  Elec       q    Type
REMARK                         _______ _______ _______ _____ _____    ______ ____
ROOT
ATOM      1  C   UNL     1      -1.279  -1.654   1.686  0.00  0.00    +0.005 C 
ENDROOT
BRANCH   1   2
ATOM      2  C   UNL     1      -0.803  -1.221   0.298  0.00  0.00    +0.079 C 
BRANCH   2   8
ATOM      3  C   UNL     1       0.814   0.685   0.424  0.00  0.00    +0.006 A 
ATOM      4  C   UNL     1       2.101   1.182   0.512  0.00  0.00    +0.015 A 
ATOM      5  C   UNL     1       3.175   0.313   0.572  0.00  0.00    +0.018 A 
ATOM      6  C   UNL     1       2.961  -1.053   0.543  0.00  0.00    +0.015 A 
ATOM      7  C   UNL     1       1.674  -1.549   0.454  0.00  0.00    +0.006 A 
ATOM      8  C   UNL     1       0.600  -0.680   0.395  0.00  0.00    -0.031 A 
ATOM      9 BR   UNL     1       4.936   0.992   0.692  0.00  0.00    -0.050 Br
ENDBRANCH   2   8
BRANCH   2  10
ATOM     10  N   UNL     1      -0.821  -2.377  -0.608  0.00  0.00    -0.324 NA
ATOM     11  H   UNL     1      -0.572  -2.105  -1.547  0.00  0.00    +0.119 HD
ATOM     12  H   UNL     1      -0.214  -3.110  -0.271  0.00  0.00    +0.119 HD
ENDBRANCH   2  10
ENDBRANCH   1   2
BRANCH   1  13
ATOM     13  C   UNL     1      -2.745  -2.087   1.611  0.00  0.00    -0.077 C 
BRANCH  13  14
ATOM     14  N   UNL     1      -3.202  -2.502   2.943  0.00  0.00    +0.382 N 
ATOM     15  C   UNL     1      -3.180  -1.347   3.849  0.00  0.00    -0.078 C 
ATOM     16  C   UNL     1      -3.578  -1.790   5.258  0.00  0.00    -0.019 C 
ATOM     17  C   UNL     1      -4.989  -2.385   5.221  0.00  0.00    -0.003 C 
ATOM     18  C   UNL     1      -5.018  -3.542   4.218  0.00  0.00    -0.015 C 
ATOM     19  C   UNL     1      -4.567  -3.033   2.847  0.00  0.00    -0.066 C 
ATOM     20  H   UNL     1      -2.588  -3.218   3.301  0.00  0.00    -0.081 HD
BRANCH  19  21
ATOM     21  C   UNL     1      -4.595  -4.186   1.841  0.00  0.00    +0.012 C 
BRANCH  21  22
ATOM     22  C   UNL     1      -6.029  -4.697   1.691  0.00  0.00    +0.154 C 
BRANCH  22  23
ATOM     23  O   UNL     1      -6.041  -5.838   0.831  0.00  0.00    -0.395 OA
ATOM     24  H   UNL     1      -6.920  -6.216   0.690  0.00  0.00    +0.209 HD
ENDBRANCH  22  23
ENDBRANCH  21  22
ENDBRANCH  19  21
ENDBRANCH  13  14
ENDBRANCH   1  13
TORSDOF 8
