REMARK  Name = ZINC02294482
REMARK  7 active torsions:
REMARK  status: ('A' for Active; 'I' for Inactive)
REMARK    1  A    between atoms: C_1  and  O_2
REMARK    2  A    between atoms: O_2  and  C_3
REMARK    3  A    between atoms: C_3  and  C_5
REMARK    4  A    between atoms: C_6  and  N_16
REMARK    5  A    between atoms: C_17  and  C_19
REMARK    6  A    between atoms: C_19  and  N_52
REMARK    7  A    between atoms: C_22  and  C_25
REMARK                            x       y       z     vdW  Elec       q    Type
REMARK                         _______ _______ _______ _____ _____    ______ ____
ROOT
ATOM      1  N   UNL     1       0.035  -0.004  -0.027  0.00  0.00    -0.285 N 
ATOM      2  C   UNL     1       1.204  -0.650   0.147  0.00  0.00    +0.201 C 
ATOM      3  O   UNL     1       2.208  -0.026   0.415  0.00  0.00    -0.278 OA
ATOM      4  H   UNL     1      -0.783  -0.508  -0.163  0.00  0.00    +0.155 HD
ENDROOT
BRANCH   1   6
ATOM      5  C   UNL     1      -0.778   2.200  -0.811  0.00  0.00    +0.147 A 
ATOM      6  C   UNL     1      -0.000   1.387  -0.013  0.00  0.00    +0.073 A 
ATOM      7  C   UNL     1       0.777   2.272   0.858  0.00  0.00    +0.023 A 
ATOM      8  C   UNL     1       1.720   2.047   1.865  0.00  0.00    +0.031 A 
ATOM      9  C   UNL     1       2.286   3.107   2.515  0.00  0.00    +0.042 A 
ATOM     10  C   UNL     1       1.931   4.409   2.183  0.00  0.00    +0.022 A 
ATOM     11  C   UNL     1       1.010   4.654   1.190  0.00  0.00    +0.028 A 
ATOM     12  C   UNL     1       0.416   3.589   0.516  0.00  0.00    +0.049 A 
ATOM     13  N   UNL     1      -0.522   3.525  -0.488  0.00  0.00    -0.348 N 
ATOM     14  H   UNL     1      -0.943   4.292  -0.907  0.00  0.00    +0.166 HD
ATOM     15 CL   UNL     1       3.458   2.825   3.765  0.00  0.00    -0.084 Cl
BRANCH   5  16
ATOM     16  C   UNL     1      -1.690   1.754  -1.801  0.00  0.00    +0.357 C 
ATOM     17  O   UNL     1      -1.917   0.566  -1.928  0.00  0.00    -0.243 OA
BRANCH  16  19
ATOM     18  C   UNL     1      -3.212   2.129  -3.578  0.00  0.00    +0.280 C 
ATOM     19  O   UNL     1      -2.305   2.649  -2.603  0.00  0.00    -0.463 OA
ENDBRANCH  16  19
ENDBRANCH   5  16
ENDBRANCH   1   6
BRANCH   2  20
ATOM     20  C   UNL     1       1.264  -2.150   0.010  0.00  0.00    +0.019 C 
BRANCH  20  26
ATOM     21  C   UNL     1       2.784  -4.035  -0.089  0.00  0.00    -0.073 C 
ATOM     22  C   UNL     1       4.276  -4.376  -0.133  0.00  0.00    +0.017 C 
ATOM     23  C   UNL     1       4.950  -3.860   1.107  0.00  0.00    -0.048 C 
ATOM     24  C   UNL     1       4.399  -2.961   1.893  0.00  0.00    -0.041 C 
ATOM     25  C   UNL     1       3.043  -2.369   1.636  0.00  0.00    -0.050 C 
ATOM     26  N   UNL     1       2.657  -2.599   0.232  0.00  0.00    +0.388 N 
ATOM     27  H   UNL     1       3.283  -2.062  -0.380  0.00  0.00    -0.081 HD
BRANCH  23  28
ATOM     28  C   UNL     1       6.287  -4.383   1.457  0.00  0.00    -0.022 A 
ATOM     29  C   UNL     1       7.377  -4.137   0.621  0.00  0.00    +0.011 A 
ATOM     30  C   UNL     1       8.624  -4.623   0.956  0.00  0.00    +0.039 A 
ATOM     31  C   UNL     1       8.793  -5.365   2.114  0.00  0.00    +0.123 A 
ATOM     32  C   UNL     1       7.713  -5.618   2.944  0.00  0.00    +0.039 A 
ATOM     33  C   UNL     1       6.463  -5.131   2.622  0.00  0.00    +0.011 A 
ATOM     34  F   UNL     1      10.015  -5.843   2.434  0.00  0.00    -0.205 F 
ENDBRANCH  23  28
ENDBRANCH  20  26
ENDBRANCH   2  20
TORSDOF 6
