REMARK  Name = ZINC04200022
REMARK  7 active torsions:
REMARK  status: ('A' for Active; 'I' for Inactive)
REMARK    1  A    between atoms: C_1  and  O_2
REMARK    2  A    between atoms: O_2  and  C_3
REMARK    3  A    between atoms: C_3  and  O_22
REMARK    4  A    between atoms: C_4  and  C_20
REMARK    5  A    between atoms: C_5  and  C_12
REMARK    6  A    between atoms: C_7  and  C_10
REMARK    7  A    between atoms: O_22  and  C_23
REMARK                            x       y       z     vdW  Elec       q    Type
REMARK                         _______ _______ _______ _____ _____    ______ ____
ROOT
ATOM      1  C   UNL     1      -0.515   3.337   2.162  0.00  0.00    +0.274 C 
ATOM      2  C   UNL     1      -1.601   2.784   1.220  0.00  0.00    +0.166 C 
ATOM      3  C   UNL     1      -1.157   2.050  -0.047  0.00  0.00    +0.081 C 
ATOM      4  C   UNL     1      -1.363   3.565  -0.086  0.00  0.00    +0.144 C 
ATOM      5  C   UNL     1      -0.191   4.471   0.198  0.00  0.00    +0.092 C 
ATOM      6  N   UNL     1       0.349   5.338  -0.715  0.00  0.00    -0.347 N 
ATOM      7  H   UNL     1      -0.024   5.396  -1.609  0.00  0.00    +0.143 HD
ATOM      8  H   UNL     1       1.105   5.894  -0.468  0.00  0.00    +0.143 HD
ATOM      9  N   UNL     1       0.257   4.342   1.404  0.00  0.00    -0.324 N 
ATOM     10  H   UNL     1       1.048   4.872   1.787  0.00  0.00    +0.166 HD
ENDROOT
BRANCH   3  11
ATOM     11  C   UNL     1       0.260   1.540  -0.094  0.00  0.00    +0.013 A 
ATOM     12  C   UNL     1       1.160   2.078  -0.998  0.00  0.00    +0.128 A 
ATOM     13  C   UNL     1       2.460   1.604  -1.044  0.00  0.00    +0.039 A 
ATOM     14  C   UNL     1       2.859   0.595  -0.189  0.00  0.00    +0.004 A 
ATOM     15  C   UNL     1       1.960   0.057   0.713  0.00  0.00    +0.020 A 
ATOM     16  C   UNL     1       0.660   0.529   0.761  0.00  0.00    +0.047 A 
ATOM     17 CL   UNL     1      -0.467  -0.146   1.895  0.00  0.00    -0.083 Cl
ATOM     18  F   UNL     1       0.770   3.064  -1.835  0.00  0.00    -0.205 F 
ENDBRANCH   3  11
BRANCH   1  20
ATOM     19  C   UNL     1      -1.914   5.101   2.984  0.00  0.00    +0.199 C 
ATOM     20  O   UNL     1      -1.121   3.954   3.299  0.00  0.00    -0.334 OA
ENDBRANCH   1  20
BRANCH   4  21
ATOM     21  C   UNL     1      -2.484   4.120  -0.862  0.00  0.00    +0.079 C 
ATOM     22  N   UNL     1      -3.349   4.547  -1.461  0.00  0.00    -0.195 NA
ENDBRANCH   4  21
BRANCH   2  23
ATOM     23  C   UNL     1      -2.946   2.550   1.770  0.00  0.00    +0.079 C 
ATOM     24  N   UNL     1      -3.985   2.370   2.194  0.00  0.00    -0.196 NA
ENDBRANCH   2  23
BRANCH   1  25
ATOM     25  O   UNL     1       0.352   2.282   2.581  0.00  0.00    -0.334 OA
ATOM     26  C   UNL     1       1.416   2.708   3.435  0.00  0.00    +0.199 C 
ENDBRANCH   1  25
TORSDOF 5
