REMARK  Name = ZINC28639565
REMARK  9 active torsions:
REMARK  status: ('A' for Active; 'I' for Inactive)
REMARK    1  A    between atoms: C_1  and  C_2
REMARK    2  A    between atoms: C_2  and  C_3
REMARK    3  A    between atoms: C_3  and  C_4
REMARK    4  A    between atoms: C_8  and  C_10
REMARK    5  A    between atoms: C_10  and  C_11
REMARK    6  A    between atoms: C_11  and  C_13
REMARK    7  A    between atoms: C_11  and  N_24
REMARK    8  A    between atoms: C_19  and  C_21
REMARK    9  A    between atoms: C_25  and  C_27
REMARK                            x       y       z     vdW  Elec       q    Type
REMARK                         _______ _______ _______ _____ _____    ______ ____
ROOT
ATOM      1  C   UNL     1       0.077  -5.753   1.792  0.00  0.00    +0.165 C 
ENDROOT
BRANCH   1   2
ATOM      2  C   UNL     1       0.127  -6.786   2.888  0.00  0.00    +0.237 C 
ATOM      3  O   UNL     1       0.280  -7.957   2.611  0.00  0.00    -0.274 OA
ATOM      4  N   UNL     1       0.003  -6.409   4.176  0.00  0.00    -0.288 N 
ATOM      5  C   UNL     1      -0.292  -5.043   4.646  0.00  0.00    +0.109 C 
ATOM      6  C   UNL     1      -0.931  -5.235   6.045  0.00  0.00    +0.021 C 
ATOM      7  C   UNL     1      -0.112  -6.430   6.600  0.00  0.00    +0.033 C 
ATOM      8  C   UNL     1       0.133  -7.292   5.344  0.00  0.00    +0.162 C 
BRANCH   8   9
ATOM      9  C   UNL     1      -0.891  -8.395   5.269  0.00  0.00    +0.231 C 
ATOM     10  O   UNL     1      -1.660  -8.446   4.332  0.00  0.00    -0.274 OA
ATOM     11  N   UNL     1      -0.953  -9.325   6.242  0.00  0.00    -0.328 N 
ATOM     12  H   UNL     1      -0.338  -9.285   6.991  0.00  0.00    +0.145 HD
ATOM     13  H   UNL     1      -1.612 -10.035   6.194  0.00  0.00    +0.145 HD
ENDBRANCH   8   9
ENDBRANCH   1   2
BRANCH   1  14
ATOM     14  N   UNL     1       0.841  -6.230   0.636  0.00  0.00    -0.302 N 
ATOM     15  C   UNL     1       2.173  -6.035   0.582  0.00  0.00    +0.234 C 
ATOM     16  O   UNL     1       2.740  -5.465   1.490  0.00  0.00    -0.274 OA
ATOM     17  H   UNL     1       0.388  -6.686  -0.090  0.00  0.00    +0.150 HD
BRANCH  15  18
ATOM     18  C   UNL     1       2.959  -6.525  -0.607  0.00  0.00    +0.159 C 
ATOM     19  C   UNL     1       3.212  -8.027  -0.462  0.00  0.00    +0.032 C 
ATOM     20  C   UNL     1       4.195  -8.467  -1.553  0.00  0.00    +0.011 C 
ATOM     21  C   UNL     1       5.557  -7.832  -1.262  0.00  0.00    +0.096 C 
ATOM     22  C   UNL     1       5.389  -6.364  -0.995  0.00  0.00    +0.214 C 
ATOM     23  O   UNL     1       6.368  -5.652  -1.067  0.00  0.00    -0.276 OA
ATOM     24  N   UNL     1       4.223  -5.804  -0.680  0.00  0.00    -0.304 N 
ATOM     25  H   UNL     1       4.216  -4.853  -0.489  0.00  0.00    +0.149 HD
ENDBRANCH  15  18
ENDBRANCH   1  14
BRANCH   1  26
ATOM     26  C   UNL     1      -1.377  -5.517   1.380  0.00  0.00    +0.086 C 
BRANCH  26  31
ATOM     27  C   UNL     1      -1.658  -2.419  -0.462  0.00  0.00    +0.084 A 
ATOM     28  N   UNL     1      -1.404  -3.261  -1.487  0.00  0.00    -0.350 N 
ATOM     29  H   UNL     1      -1.333  -3.023  -2.424  0.00  0.00    +0.166 HD
ATOM     30  C   UNL     1      -1.265  -4.515  -0.955  0.00  0.00    +0.105 A 
ATOM     31  C   UNL     1      -1.439  -4.396   0.375  0.00  0.00    +0.036 A 
ATOM     32  N   UNL     1      -1.671  -3.104   0.648  0.00  0.00    -0.347 N 
ATOM     33  H   UNL     1      -1.828  -2.736   1.532  0.00  0.00    +0.167 HD
BRANCH  27  34
ATOM     34  C   UNL     1      -1.881  -0.934  -0.582  0.00  0.00    +0.072 C 
BRANCH  34  36
ATOM     35  C   UNL     1      -0.768   1.303  -0.586  0.00  0.00    +0.004 C 
ATOM     36  C   UNL     1      -0.541  -0.205  -0.465  0.00  0.00    +0.004 C 
ENDBRANCH  34  36
ENDBRANCH  27  34
ENDBRANCH  26  31
ENDBRANCH   1  26
TORSDOF 8
