REMARK  Name = ZINC64590524
REMARK  9 active torsions:
REMARK  status: ('A' for Active; 'I' for Inactive)
REMARK    1  A    between atoms: C_1  and  C_2
REMARK    2  A    between atoms: N_8  and  C_13
REMARK    3  A    between atoms: C_13  and  C_14
REMARK    4  A    between atoms: C_14  and  C_15
REMARK    5  A    between atoms: C_15  and  C_16
REMARK    6  A    between atoms: N_18  and  C_19
REMARK    7  A    between atoms: C_23  and  C_25
REMARK    8  A    between atoms: C_25  and  C_26
REMARK    9  A    between atoms: C_26  and  C_27
REMARK                            x       y       z     vdW  Elec       q    Type
REMARK                         _______ _______ _______ _____ _____    ______ ____
ROOT
ATOM      1  C   UNL     1      -3.632  -1.710   5.468  0.00  0.00    +0.217 C 
ATOM      2  O   UNL     1      -4.336  -2.276   4.659  0.00  0.00    -0.275 OA
ATOM      3  N   UNL     1      -4.175  -1.180   6.582  0.00  0.00    -0.285 N 
ATOM      4  H   UNL     1      -3.605  -0.787   7.261  0.00  0.00    +0.155 HD
ENDROOT
BRANCH   3   5
ATOM      5  C   UNL     1      -5.563  -1.196   6.758  0.00  0.00    +0.034 A 
ATOM      6  C   UNL     1      -6.311  -2.273   6.299  0.00  0.00    +0.023 A 
ATOM      7  C   UNL     1      -7.681  -2.286   6.475  0.00  0.00    +0.002 A 
ATOM      8  C   UNL     1      -8.308  -1.228   7.107  0.00  0.00    +0.004 A 
ATOM      9  C   UNL     1      -7.567  -0.154   7.565  0.00  0.00    -0.045 A 
ATOM     10  C   UNL     1      -6.196  -0.138   7.398  0.00  0.00    +0.027 A 
BRANCH   9  11
ATOM     11  C   UNL     1      -8.255   0.997   8.253  0.00  0.00    +0.039 C 
BRANCH  11  12
ATOM     12  C   UNL     1      -8.318   0.727   9.758  0.00  0.00    +0.051 C 
BRANCH  12  13
ATOM     13  C   UNL     1      -9.017   1.896  10.456  0.00  0.00    +0.174 C 
ATOM     14  N   UNL     1      -8.236   3.127  10.281  0.00  0.00    -0.363 N 
ATOM     15  C   UNL     1      -7.894   3.544  11.466  0.00  0.00    +0.060 A 
ATOM     16  C   UNL     1      -7.120   4.703  11.932  0.00  0.00    +0.027 A 
ATOM     17  C   UNL     1      -6.923   4.883  13.253  0.00  0.00    +0.002 A 
ATOM     18  C   UNL     1      -7.431   4.000  14.223  0.00  0.00    +0.002 A 
ATOM     19  C   UNL     1      -8.153   2.907  13.904  0.00  0.00    +0.027 A 
ATOM     20  C   UNL     1      -8.432   2.610  12.492  0.00  0.00    +0.060 A 
ATOM     21  N   UNL     1      -9.085   1.651  11.902  0.00  0.00    -0.363 N 
ATOM     22  H   UNL     1      -8.015   3.551   9.437  0.00  0.00    +0.162 HD
ATOM     23  H   UNL     1      -9.535   0.910  12.338  0.00  0.00    +0.162 HD
ENDBRANCH  12  13
ENDBRANCH  11  12
ENDBRANCH   9  11
ENDBRANCH   3   5
BRANCH   1  24
ATOM     24  C   UNL     1      -2.148  -1.600   5.229  0.00  0.00    +0.097 C 
BRANCH  24  25
ATOM     25  C   UNL     1      -1.794  -2.279   3.904  0.00  0.00    +0.029 C 
BRANCH  25  26
ATOM     26  C   UNL     1      -0.287  -2.167   3.660  0.00  0.00    +0.114 C 
BRANCH  26  34
ATOM     27  C   UNL     1       0.012   1.504   0.030  0.00  0.00    +0.044 C 
ATOM     28  C   UNL     1       0.025  -0.003   0.017  0.00  0.00    -0.048 A 
ATOM     29  C   UNL     1       0.028  -0.681  -1.188  0.00  0.00    +0.007 A 
ATOM     30  C   UNL     1       0.039  -2.064  -1.210  0.00  0.00    +0.048 A 
ATOM     31  C   UNL     1       0.048  -2.772  -0.020  0.00  0.00    +0.143 A 
ATOM     32  C   UNL     1       0.045  -2.088   1.194  0.00  0.00    +0.079 A 
ATOM     33  C   UNL     1       0.039  -0.703   1.209  0.00  0.00    +0.030 A 
ATOM     34  N   UNL     1       0.052  -2.817   2.392  0.00  0.00    -0.265 N 
ATOM     35  C   UNL     1       0.376  -4.128   2.358  0.00  0.00    +0.258 C 
ATOM     36  O   UNL     1       0.358  -4.786   3.377  0.00  0.00    -0.272 OA
ATOM     37  C   UNL     1       0.760  -4.770   1.049  0.00  0.00    +0.325 C 
ATOM     38  O   UNL     1       0.061  -4.131  -0.022  0.00  0.00    -0.481 OA
ENDBRANCH  26  34
ENDBRANCH  25  26
ENDBRANCH  24  25
ENDBRANCH   1  24
TORSDOF 8
