REMARK  Name = ZINC43265896
REMARK  7 active torsions:
REMARK  status: ('A' for Active; 'I' for Inactive)
REMARK    1  A    between atoms: C_1  and  O_2
REMARK    2  A    between atoms: O_2  and  C_3
REMARK    3  A    between atoms: C_6  and  C_9
REMARK    4  A    between atoms: C_9  and  C_11
REMARK    5  A    between atoms: C_9  and  N_24
REMARK    6  A    between atoms: C_11  and  N_12
REMARK    7  A    between atoms: N_15  and  C_16
REMARK                            x       y       z     vdW  Elec       q    Type
REMARK                         _______ _______ _______ _____ _____    ______ ____
ROOT
ATOM      1  C   UNL     1       1.855  -2.236   3.671  0.00  0.00    -0.020 C 
ENDROOT
BRANCH   1   5
ATOM      2  C   UNL     1       1.054   1.301   1.410  0.00  0.00    +0.120 A 
ATOM      3  C   UNL     1       1.913   1.352   2.498  0.00  0.00    +0.046 A 
ATOM      4  C   UNL     1       2.170   0.207   3.228  0.00  0.00    +0.005 A 
ATOM      5  C   UNL     1       1.572  -0.988   2.874  0.00  0.00    -0.059 A 
ATOM      6  C   UNL     1       0.716  -1.042   1.790  0.00  0.00    +0.005 A 
ATOM      7  C   UNL     1       0.451   0.101   1.060  0.00  0.00    +0.046 A 
BRANCH   2   9
ATOM      8  C   UNL     1       1.455   3.625   1.108  0.00  0.00    +0.277 C 
ATOM      9  O   UNL     1       0.799   2.426   0.691  0.00  0.00    -0.495 OA
ENDBRANCH   2   9
ENDBRANCH   1   5
BRANCH   1  10
ATOM     10  N   UNL     1       1.990  -3.379   2.760  0.00  0.00    +0.385 N 
ATOM     11  C   UNL     1       3.199  -3.218   1.912  0.00  0.00    -0.078 C 
ATOM     12  C   UNL     1       3.511  -4.667   1.460  0.00  0.00    -0.020 C 
ATOM     13  C   UNL     1       3.168  -5.502   2.715  0.00  0.00    -0.020 C 
ATOM     14  C   UNL     1       2.201  -4.624   3.531  0.00  0.00    -0.078 C 
ATOM     15  H   UNL     1       1.167  -3.464   2.182  0.00  0.00    -0.081 HD
ENDBRANCH   1  10
BRANCH   1  16
ATOM     16  C   UNL     1       0.701  -2.492   4.643  0.00  0.00    +0.095 C 
BRANCH  16  17
ATOM     17  N   UNL     1       0.632  -1.401   5.619  0.00  0.00    -0.300 N 
ATOM     18  C   UNL     1      -0.249  -1.461   6.636  0.00  0.00    +0.304 C 
ATOM     19  O   UNL     1      -0.988  -2.421   6.745  0.00  0.00    -0.253 OA
ATOM     20  N   UNL     1      -0.312  -0.457   7.534  0.00  0.00    -0.265 N 
ATOM     21  H   UNL     1       1.222  -0.635   5.532  0.00  0.00    +0.150 HD
ATOM     22  H   UNL     1       0.330   0.269   7.495  0.00  0.00    +0.157 HD
BRANCH  20  23
ATOM     23  C   UNL     1      -1.305  -0.463   8.524  0.00  0.00    +0.106 A 
ATOM     24  C   UNL     1      -2.042   0.687   8.778  0.00  0.00    +0.147 A 
ATOM     25  C   UNL     1      -3.021   0.677   9.755  0.00  0.00    +0.040 A 
ATOM     26  C   UNL     1      -3.266  -0.475  10.479  0.00  0.00    +0.006 A 
ATOM     27  C   UNL     1      -2.535  -1.622  10.229  0.00  0.00    +0.040 A 
ATOM     28  C   UNL     1      -1.558  -1.621   9.249  0.00  0.00    +0.147 A 
ATOM     29  F   UNL     1      -0.848  -2.743   9.002  0.00  0.00    -0.203 F 
ATOM     30  F   UNL     1      -1.803   1.814   8.072  0.00  0.00    -0.203 F 
ENDBRANCH  20  23
ENDBRANCH  16  17
ENDBRANCH   1  16
TORSDOF 6
