REMARK  Name = ZINC40601431
REMARK  6 active torsions:
REMARK  status: ('A' for Active; 'I' for Inactive)
REMARK    1  A    between atoms: C_1  and  C_2
REMARK    2  A    between atoms: C_2  and  C_4
REMARK    3  A    between atoms: C_2  and  N_10
REMARK    4  A    between atoms: C_14  and  C_17
REMARK    5  A    between atoms: C_17  and  N_18
REMARK    6  A    between atoms: N_18  and  C_19
REMARK                            x       y       z     vdW  Elec       q    Type
REMARK                         _______ _______ _______ _____ _____    ______ ____
ROOT
ATOM      1  C   UNL     1       1.012  -0.325   1.106  0.00  0.00    +0.034 C 
ATOM      2  C   UNL     1       0.002  -0.004   0.002  0.00  0.00    +0.140 C 
ENDROOT
BRANCH   2   3
ATOM      3  C   UNL     1      -0.141   1.490  -0.128  0.00  0.00    +0.237 C 
ATOM      4  O   UNL     1       0.366   2.069  -1.065  0.00  0.00    -0.274 OA
ATOM      5  N   UNL     1      -0.833   2.184   0.797  0.00  0.00    -0.239 N 
ATOM      6  C   UNL     1      -0.961   3.521   0.681  0.00  0.00    +0.303 C 
ATOM      7  O   UNL     1      -0.453   4.101  -0.259  0.00  0.00    -0.253 OA
ATOM      8  N   UNL     1      -1.653   4.215   1.606  0.00  0.00    -0.313 N 
ATOM      9  H   UNL     1      -1.239   1.722   1.547  0.00  0.00    +0.159 HD
ATOM     10  H   UNL     1      -2.059   3.752   2.356  0.00  0.00    +0.146 HD
ATOM     11  H   UNL     1      -1.746   5.177   1.522  0.00  0.00    +0.146 HD
ENDBRANCH   2   3
BRANCH   2  12
ATOM     12  N   UNL     1       0.474  -0.564  -1.272  0.00  0.00    -0.292 NA
ATOM     13  C   UNL     1       0.259  -2.015  -1.321  0.00  0.00    +0.085 C 
ATOM     14  C   UNL     1       0.626  -2.540  -2.710  0.00  0.00    +0.016 C 
ATOM     15  C   UNL     1       2.093  -2.212  -3.003  0.00  0.00    +0.004 C 
ATOM     16  C   UNL     1       2.300  -0.699  -2.899  0.00  0.00    -0.014 C 
ATOM     17  C   UNL     1       1.885  -0.228  -1.503  0.00  0.00    +0.086 C 
BRANCH  16  18
ATOM     18  C   UNL     1       3.776  -0.368  -3.132  0.00  0.00    -0.078 C 
BRANCH  18  19
ATOM     19  N   UNL     1       4.143  -0.716  -4.511  0.00  0.00    +0.377 N 
ATOM     20  C   UNL     1       5.560  -0.398  -4.735  0.00  0.00    -0.100 C 
ATOM     21  H   UNL     1       3.992  -1.702  -4.661  0.00  0.00    -0.086 HD
ATOM     22  H   UNL     1       3.574  -0.186  -5.154  0.00  0.00    -0.086 HD
ENDBRANCH  18  19
ENDBRANCH  16  18
ENDBRANCH   2  12
TORSDOF 4
