REMARK  Name = ZINC09008880
REMARK  10 active torsions:
REMARK  status: ('A' for Active; 'I' for Inactive)
REMARK    1  A    between atoms: C_1  and  O_2
REMARK    2  A    between atoms: O_2  and  C_3
REMARK    3  A    between atoms: C_6  and  C_11
REMARK    4  A    between atoms: C_7  and  O_9
REMARK    5  A    between atoms: O_9  and  C_10
REMARK    6  A    between atoms: C_20  and  C_27
REMARK    7  A    between atoms: C_22  and  C_23
REMARK    8  A    between atoms: C_22  and  N_57
REMARK    9  A    between atoms: C_23  and  O_25
REMARK   10  A    between atoms: O_25  and  C_26
REMARK                            x       y       z     vdW  Elec       q    Type
REMARK                         _______ _______ _______ _____ _____    ______ ____
ROOT
ATOM      1  C   UNL     1      -1.754   2.932   3.191  0.00  0.00    +0.053 C 
ATOM      2  N   UNL     1      -2.181   1.812   2.338  0.00  0.00    -0.353 N 
ATOM      3  C   UNL     1      -3.474   1.847   1.801  0.00  0.00    +0.028 A 
ATOM      4  C   UNL     1      -3.826   0.965   0.787  0.00  0.00    +0.024 A 
ATOM      5  C   UNL     1      -5.102   0.998   0.260  0.00  0.00    +0.017 A 
ATOM      6  C   UNL     1      -6.026   1.909   0.741  0.00  0.00    +0.018 A 
ATOM      7  C   UNL     1      -5.676   2.788   1.750  0.00  0.00    +0.019 A 
ATOM      8  C   UNL     1      -4.400   2.761   2.283  0.00  0.00    -0.035 A 
ATOM      9  C   UNL     1      -4.032   3.727   3.378  0.00  0.00    -0.001 C 
ATOM     10 BR   UNL     1      -7.773   1.952   0.018  0.00  0.00    -0.050 Br
ATOM     11  H   UNL     1      -1.584   1.071   2.152  0.00  0.00    +0.145 HD
ATOM     12  N   UNL     1      -2.866   3.220   4.126  0.00  0.00    +0.409 N 
ATOM     13  H   UNL     1      -3.130   2.354   4.610  0.00  0.00    -0.076 HD
ENDROOT
BRANCH   1  17
ATOM     14  C   UNL     1      -0.883   6.347   0.769  0.00  0.00    +0.124 A 
ATOM     15  C   UNL     1      -1.763   5.375   0.314  0.00  0.00    +0.046 A 
ATOM     16  C   UNL     1      -2.042   4.273   1.099  0.00  0.00    +0.010 A 
ATOM     17  C   UNL     1      -1.447   4.135   2.338  0.00  0.00    -0.002 A 
ATOM     18  C   UNL     1      -0.567   5.104   2.798  0.00  0.00    +0.127 A 
ATOM     19  C   UNL     1      -0.289   6.214   2.015  0.00  0.00    +0.091 A 
BRANCH  14  21
ATOM     20  C   UNL     1      -1.262   7.506  -1.272  0.00  0.00    +0.277 C 
ATOM     21  O   UNL     1      -0.609   7.432  -0.003  0.00  0.00    -0.495 OA
ENDBRANCH  14  21
BRANCH  18  22
ATOM     22  O   UNL     1       0.018   4.969   4.017  0.00  0.00    -0.495 OA
ATOM     23  C   UNL     1       0.913   6.005   4.426  0.00  0.00    +0.277 C 
ENDBRANCH  18  22
ENDBRANCH   1  17
BRANCH   9  24
ATOM     24  C   UNL     1      -5.193   3.868   4.328  0.00  0.00    -0.057 A 
ATOM     25  C   UNL     1      -5.419   2.903   5.292  0.00  0.00    +0.002 A 
ATOM     26  C   UNL     1      -6.482   3.035   6.167  0.00  0.00    +0.000 A 
ATOM     27  C   UNL     1      -7.324   4.127   6.071  0.00  0.00    +0.000 A 
ATOM     28  C   UNL     1      -7.101   5.089   5.104  0.00  0.00    +0.000 A 
ATOM     29  C   UNL     1      -6.036   4.960   4.232  0.00  0.00    +0.002 A 
ENDBRANCH   9  24
BRANCH  12  30
ATOM     30  C   UNL     1      -2.436   4.218   5.130  0.00  0.00    +0.048 C 
BRANCH  30  31
ATOM     31  C   UNL     1      -1.366   3.608   5.997  0.00  0.00    +0.290 C 
ATOM     32  O   UNL     1      -1.062   2.447   5.855  0.00  0.00    -0.253 OA
BRANCH  31  33
ATOM     33  O   UNL     1      -0.750   4.353   6.928  0.00  0.00    -0.469 OA
ATOM     34  C   UNL     1       0.271   3.699   7.727  0.00  0.00    +0.280 C 
ENDBRANCH  31  33
ENDBRANCH  30  31
ENDBRANCH  12  30
TORSDOF 7
