REMARK  Name = ZINC20213787
REMARK  11 active torsions:
REMARK  status: ('A' for Active; 'I' for Inactive)
REMARK    1  A    between atoms: C_1  and  C_2
REMARK    2  A    between atoms: C_2  and  O_3
REMARK    3  A    between atoms: O_3  and  C_4
REMARK    4  A    between atoms: C_4  and  C_6
REMARK    5  A    between atoms: C_7  and  C_21
REMARK    6  A    between atoms: C_12  and  C_14
REMARK    7  A    between atoms: C_17  and  C_20
REMARK    8  A    between atoms: C_21  and  N_22
REMARK    9  A    between atoms: N_22  and  C_23
REMARK   10  A    between atoms: C_23  and  C_24
REMARK   11  A    between atoms: C_24  and  C_25
REMARK                            x       y       z     vdW  Elec       q    Type
REMARK                         _______ _______ _______ _____ _____    ______ ____
ROOT
ATOM      1  C   UNL     1      -3.333  -3.053  -1.087  0.00  0.00    +0.076 C 
ATOM      2  C   UNL     1      -2.768  -2.696   0.086  0.00  0.00    +0.007 C 
ATOM      3  N   UNL     1      -3.523  -2.537   1.212  0.00  0.00    -0.274 N 
ATOM      4  C   UNL     1      -4.851  -2.708   1.246  0.00  0.00    +0.304 C 
ATOM      5  O   UNL     1      -5.439  -2.539   2.297  0.00  0.00    -0.252 OA
ATOM      6  N   UNL     1      -5.556  -3.065   0.155  0.00  0.00    -0.288 N 
ATOM      7  C   UNL     1      -4.833  -3.267  -1.112  0.00  0.00    +0.143 C 
ATOM      8  H   UNL     1      -3.044  -2.255   2.161  0.00  0.00    +0.156 HD
ATOM      9  H   UNL     1      -6.647  -3.206   0.194  0.00  0.00    +0.151 HD
ENDROOT
BRANCH   7  10
ATOM     10  C   UNL     1      -5.419  -2.328  -2.135  0.00  0.00    -0.022 A 
ATOM     11  C   UNL     1      -5.634  -1.001  -1.813  0.00  0.00    +0.006 A 
ATOM     12  C   UNL     1      -6.167  -0.139  -2.753  0.00  0.00    +0.004 A 
ATOM     13  C   UNL     1      -6.495  -0.607  -4.012  0.00  0.00    -0.050 A 
ATOM     14  C   UNL     1      -6.285  -1.935  -4.332  0.00  0.00    +0.004 A 
ATOM     15  C   UNL     1      -5.747  -2.795  -3.394  0.00  0.00    +0.006 A 
ATOM     16  C   UNL     1      -7.082   0.332  -5.035  0.00  0.00    +0.044 C 
ENDBRANCH   7  10
BRANCH   1  17
ATOM     17  C   UNL     1      -2.551  -3.223  -2.254  0.00  0.00    +0.339 C 
ATOM     18  O   UNL     1      -1.373  -2.920  -2.246  0.00  0.00    -0.245 OA
BRANCH  17  19
ATOM     19  O   UNL     1      -3.112  -3.721  -3.376  0.00  0.00    -0.462 OA
BRANCH  19  21
ATOM     20  C   UNL     1      -3.070  -4.441  -5.682  0.00  0.00    +0.048 C 
ATOM     21  C   UNL     1      -2.264  -3.866  -4.516  0.00  0.00    +0.229 C 
ENDBRANCH  19  21
ENDBRANCH  17  19
ENDBRANCH   1  17
BRANCH   2  22
ATOM     22  C   UNL     1      -1.279  -2.474   0.154  0.00  0.00    -0.030 C 
BRANCH  22  23
ATOM     23  N   UNL     1      -0.964  -1.118  -0.314  0.00  0.00    +0.383 N 
ATOM     24  H   UNL     1      -1.305  -1.000  -1.353  0.00  0.00    -0.085 HD
ATOM     25  H   UNL     1      -1.474  -0.382   0.325  0.00  0.00    -0.085 HD
BRANCH  23  26
ATOM     26  C   UNL     1       0.482  -0.865  -0.261  0.00  0.00    -0.077 C 
BRANCH  26  27
ATOM     27  C   UNL     1       0.771   0.554  -0.755  0.00  0.00    +0.016 C 
BRANCH  27  28
ATOM     28  C   UNL     1       2.254   0.813  -0.701  0.00  0.00    -0.049 A 
ATOM     29  C   UNL     1       2.821   1.349   0.440  0.00  0.00    +0.003 A 
ATOM     30  C   UNL     1       4.183   1.582   0.492  0.00  0.00    +0.000 A 
ATOM     31  C   UNL     1       4.976   1.288  -0.601  0.00  0.00    +0.000 A 
ATOM     32  C   UNL     1       4.408   0.757  -1.744  0.00  0.00    +0.000 A 
ATOM     33  C   UNL     1       3.048   0.519  -1.794  0.00  0.00    +0.003 A 
ENDBRANCH  27  28
ENDBRANCH  26  27
ENDBRANCH  23  26
ENDBRANCH  22  23
ENDBRANCH   2  22
TORSDOF 9
