REMARK  Name = ZINC39532660
REMARK  9 active torsions:
REMARK  status: ('A' for Active; 'I' for Inactive)
REMARK    1  A    between atoms: C_1  and  C_2
REMARK    2  A    between atoms: C_2  and  C_3
REMARK    3  A    between atoms: C_3  and  C_4
REMARK    4  A    between atoms: C_7  and  C_10
REMARK    5  A    between atoms: C_10  and  C_12
REMARK    6  A    between atoms: C_10  and  N_15
REMARK    7  A    between atoms: C_12  and  N_13
REMARK    8  A    between atoms: C_19  and  C_22
REMARK    9  A    between atoms: C_27  and  O_28
REMARK                            x       y       z     vdW  Elec       q    Type
REMARK                         _______ _______ _______ _____ _____    ______ ____
ROOT
ATOM      1  N   UNL     1       0.329  -6.782  -2.529  0.00  0.00    -0.297 NA
ATOM      2  C   UNL     1      -1.141  -6.793  -2.541  0.00  0.00    +0.066 C 
ATOM      3  C   UNL     1      -1.633  -7.259  -3.913  0.00  0.00    -0.066 C 
ATOM      4  N   UNL     1      -1.114  -8.605  -4.189  0.00  0.00    +0.385 N 
ATOM      5  C   UNL     1       0.355  -8.572  -4.198  0.00  0.00    -0.023 C 
ATOM      6  C   UNL     1       0.863  -8.118  -2.828  0.00  0.00    +0.074 C 
ATOM      7  H   UNL     1      -1.432  -9.241  -3.473  0.00  0.00    -0.085 HD
ATOM      8  H   UNL     1      -1.449  -8.917  -5.088  0.00  0.00    -0.085 HD
ENDROOT
BRANCH   5   9
ATOM      9  C   UNL     1       0.886  -9.950  -4.499  0.00  0.00    -0.019 A 
ATOM     10  C   UNL     1       0.080 -11.057  -4.314  0.00  0.00    +0.005 A 
ATOM     11  C   UNL     1       0.566 -12.322  -4.589  0.00  0.00    +0.000 A 
ATOM     12  C   UNL     1       1.860 -12.482  -5.050  0.00  0.00    +0.004 A 
ATOM     13  C   UNL     1       2.670 -11.379  -5.237  0.00  0.00    +0.045 A 
ATOM     14  C   UNL     1       2.182 -10.108  -4.966  0.00  0.00    +0.118 A 
BRANCH  14  15
ATOM     15  O   UNL     1       2.974  -9.020  -5.155  0.00  0.00    -0.507 OA
ATOM     16  H   UNL     1       3.495  -8.774  -4.378  0.00  0.00    +0.292 HD
ENDBRANCH  14  15
ENDBRANCH   5   9
BRANCH   1  17
ATOM     17  C   UNL     1       0.841  -6.285  -1.245  0.00  0.00    +0.101 C 
BRANCH  17  21
ATOM     18  C   UNL     1       0.975  -2.016  -1.321  0.00  0.00    -0.047 A 
ATOM     19  C   UNL     1       1.730  -2.715  -0.398  0.00  0.00    +0.004 A 
ATOM     20  C   UNL     1       1.687  -4.096  -0.373  0.00  0.00    +0.005 A 
ATOM     21  C   UNL     1       0.887  -4.779  -1.271  0.00  0.00    -0.029 A 
ATOM     22  C   UNL     1       0.131  -4.080  -2.194  0.00  0.00    +0.005 A 
ATOM     23  C   UNL     1       0.171  -2.699  -2.216  0.00  0.00    +0.004 A 
BRANCH  18  24
ATOM     24  C   UNL     1       1.022  -0.510  -1.348  0.00  0.00    +0.035 C 
BRANCH  24  26
ATOM     25  C   UNL     1      -0.006   1.580  -0.443  0.00  0.00    +0.004 C 
ATOM     26  C   UNL     1      -0.054   0.051  -0.416  0.00  0.00    +0.001 C 
ENDBRANCH  24  26
ENDBRANCH  18  24
ENDBRANCH  17  21
BRANCH  17  27
ATOM     27  C   UNL     1      -0.082  -6.747  -0.115  0.00  0.00    +0.117 C 
BRANCH  27  28
ATOM     28  N   UNL     1      -0.123  -8.215  -0.086  0.00  0.00    -0.254 NA
ATOM     29 BR   UNL     1      -1.044  -8.823   1.399  0.00  0.00    +0.010 Br
ATOM     30  H   UNL     1      -0.524  -8.583  -0.936  0.00  0.00    +0.135 HD
ENDBRANCH  27  28
ENDBRANCH  17  27
ENDBRANCH   1  17
TORSDOF 8
