REMARK  Name = ZINC38672917
REMARK  12 active torsions:
REMARK  status: ('A' for Active; 'I' for Inactive)
REMARK    1  A    between atoms: C_1  and  C_2
REMARK    2  A    between atoms: C_2  and  C_3
REMARK    3  A    between atoms: C_2  and  S_4
REMARK    4  A    between atoms: S_4  and  C_5
REMARK    5  A    between atoms: C_8  and  C_11
REMARK    6  A    between atoms: C_11  and  C_12
REMARK    7  A    between atoms: N_14  and  C_15
REMARK    8  A    between atoms: C_15  and  C_16
REMARK    9  A    between atoms: C_16  and  C_18
REMARK   10  A    between atoms: C_16  and  N_29
REMARK   11  A    between atoms: N_27  and  C_28
REMARK   12  A    between atoms: N_32  and  C_35
REMARK                            x       y       z     vdW  Elec       q    Type
REMARK                         _______ _______ _______ _____ _____    ______ ____
ROOT
ATOM      1  C   UNL     1      -0.750 -10.378   1.596  0.00  0.00    +0.104 C 
ENDROOT
BRANCH   1   2
ATOM      2  C   UNL     1      -1.005 -10.819   3.014  0.00  0.00    -0.028 A 
ATOM      3  C   UNL     1      -2.288 -10.780   3.529  0.00  0.00    +0.007 A 
ATOM      4  C   UNL     1      -2.520 -11.183   4.829  0.00  0.00    +0.024 A 
ATOM      5  C   UNL     1      -1.466 -11.628   5.619  0.00  0.00    +0.033 A 
ATOM      6  C   UNL     1      -0.181 -11.670   5.101  0.00  0.00    -0.026 A 
ATOM      7  C   UNL     1       0.043 -11.267   3.795  0.00  0.00    +0.010 A 
ATOM      8  C   UNL     1       0.983 -12.157   5.924  0.00  0.00    +0.038 C 
ATOM      9  C   UNL     1       0.656 -12.075   7.415  0.00  0.00    +0.024 C 
ATOM     10  C   UNL     1      -0.688 -12.771   7.666  0.00  0.00    +0.105 C 
ATOM     11  N   UNL     1      -1.723 -12.027   6.935  0.00  0.00    -0.333 N 
ATOM     12  C   UNL     1      -3.002 -11.708   7.574  0.00  0.00    +0.129 C 
ENDBRANCH   1   2
BRANCH   1  13
ATOM     13  N   UNL     1      -1.843 -10.848   0.734  0.00  0.00    -0.297 NA
ATOM     14  C   UNL     1      -1.914 -12.316   0.727  0.00  0.00    +0.066 C 
ATOM     15  C   UNL     1      -3.099 -12.762  -0.133  0.00  0.00    -0.064 C 
ATOM     16  N   UNL     1      -2.928 -12.257  -1.502  0.00  0.00    +0.379 N 
ATOM     17  C   UNL     1      -2.883 -10.789  -1.481  0.00  0.00    -0.064 C 
ATOM     18  C   UNL     1      -1.697 -10.326  -0.633  0.00  0.00    +0.066 C 
ATOM     19  C   UNL     1      -4.056 -12.700  -2.332  0.00  0.00    -0.096 C 
ATOM     20  H   UNL     1      -2.067 -12.614  -1.887  0.00  0.00    -0.082 HD
ENDBRANCH   1  13
BRANCH   1  21
ATOM     21  C   UNL     1      -0.678  -8.851   1.542  0.00  0.00    +0.127 C 
BRANCH  21  24
ATOM     22  C   UNL     1       0.662  -7.067   2.522  0.00  0.00    +0.217 C 
ATOM     23  O   UNL     1      -0.104  -6.264   2.034  0.00  0.00    -0.275 OA
ATOM     24  N   UNL     1       0.463  -8.387   2.335  0.00  0.00    -0.313 N 
ATOM     25  H   UNL     1       1.076  -9.030   2.725  0.00  0.00    +0.149 HD
BRANCH  22  26
ATOM     26  C   UNL     1       1.836  -6.591   3.338  0.00  0.00    +0.130 C 
BRANCH  26  30
ATOM     27  C   UNL     1       1.819  -2.319   3.496  0.00  0.00    +0.008 A 
ATOM     28  C   UNL     1       1.147  -3.055   4.465  0.00  0.00    +0.015 A 
ATOM     29  C   UNL     1       1.155  -4.435   4.410  0.00  0.00    +0.005 A 
ATOM     30  C   UNL     1       1.830  -5.085   3.394  0.00  0.00    -0.039 A 
ATOM     31  C   UNL     1       2.501  -4.356   2.428  0.00  0.00    +0.005 A 
ATOM     32  C   UNL     1       2.492  -2.976   2.473  0.00  0.00    +0.015 A 
BRANCH  27  33
ATOM     33  S   UNL     1       1.813  -0.559   3.561  0.00  0.00    -0.122 S 
BRANCH  33  35
ATOM     34  C   UNL     1       1.905  -0.605   6.295  0.00  0.00    +0.019 C 
ATOM     35  C   UNL     1       0.998  -0.181   5.138  0.00  0.00    +0.045 C 
ATOM     36  C   UNL     1       0.729   1.323   5.225  0.00  0.00    +0.019 C 
ENDBRANCH  33  35
ENDBRANCH  27  33
ENDBRANCH  26  30
ENDBRANCH  22  26
ENDBRANCH  21  24
ENDBRANCH   1  21
TORSDOF 8
