REMARK  Name = ZINC67035065
REMARK  8 active torsions:
REMARK  status: ('A' for Active; 'I' for Inactive)
REMARK    1  A    between atoms: C_1  and  C_2
REMARK    2  A    between atoms: N_8  and  C_9
REMARK    3  A    between atoms: C_9  and  C_10
REMARK    4  A    between atoms: C_10  and  N_11
REMARK    5  A    between atoms: N_14  and  N_15
REMARK    6  A    between atoms: C_16  and  C_18
REMARK    7  A    between atoms: C_18  and  C_19
REMARK    8  A    between atoms: C_19  and  C_20
REMARK                            x       y       z     vdW  Elec       q    Type
REMARK                         _______ _______ _______ _____ _____    ______ ____
ROOT
ATOM      1  N   UNL     1       0.236   0.185   4.834  0.00  0.00    -0.300 N 
ATOM      2  C   UNL     1       0.777  -0.045   6.046  0.00  0.00    +0.316 C 
ATOM      3  O   UNL     1       1.797  -0.699   6.143  0.00  0.00    -0.251 OA
ATOM      4  N   UNL     1       0.186   0.450   7.152  0.00  0.00    -0.218 N 
ATOM      5  H   UNL     1      -0.578   0.707   4.757  0.00  0.00    +0.150 HD
ATOM      6  H   UNL     1       0.576   0.285   8.025  0.00  0.00    +0.174 HD
ENDROOT
BRANCH   4   7
ATOM      7  N   UNL     1      -0.990   1.204   7.041  0.00  0.00    -0.233 N 
ATOM      8  C   UNL     1      -1.580   1.698   8.147  0.00  0.00    +0.229 C 
ATOM      9  O   UNL     1      -1.093   1.492   9.239  0.00  0.00    -0.274 OA
ATOM     10  H   UNL     1      -1.379   1.369   6.168  0.00  0.00    +0.173 HD
BRANCH   8  11
ATOM     11  C   UNL     1      -2.845   2.509   8.028  0.00  0.00    +0.097 C 
BRANCH  11  12
ATOM     12  C   UNL     1      -3.303   2.947   9.420  0.00  0.00    +0.013 C 
BRANCH  12  13
ATOM     13  C   UNL     1      -4.587   3.770   9.299  0.00  0.00    -0.011 C 
ATOM     14  C   UNL     1      -4.293   5.067   8.543  0.00  0.00    +0.003 C 
ATOM     15  C   UNL     1      -5.577   5.890   8.422  0.00  0.00    +0.000 C 
ATOM     16  C   UNL     1      -6.104   6.222   9.819  0.00  0.00    +0.000 C 
ATOM     17  C   UNL     1      -6.398   4.925  10.575  0.00  0.00    +0.000 C 
ATOM     18  C   UNL     1      -5.114   4.102  10.696  0.00  0.00    +0.003 C 
ENDBRANCH  12  13
ENDBRANCH  11  12
ENDBRANCH   8  11
ENDBRANCH   4   7
BRANCH   1  19
ATOM     19  C   UNL     1       0.877  -0.353   3.631  0.00  0.00    +0.087 C 
BRANCH  19  20
ATOM     20  C   UNL     1       0.067   0.050   2.397  0.00  0.00    -0.059 C 
BRANCH  20  27
ATOM     21  C   UNL     1      -0.019   1.526   0.010  0.00  0.00    -0.013 C 
ATOM     22  C   UNL     1       0.002  -0.004   0.002  0.00  0.00    -0.072 C 
ATOM     23  C   UNL     1       0.717  -0.497  -1.258  0.00  0.00    -0.016 C 
ATOM     24  C   UNL     1       0.735  -2.028  -1.262  0.00  0.00    -0.003 C 
ATOM     25  C   UNL     1       1.410  -2.524   0.020  0.00  0.00    -0.019 C 
ATOM     26  C   UNL     1       0.669  -1.956   1.232  0.00  0.00    -0.078 C 
ATOM     27  N   UNL     1       0.711  -0.490   1.192  0.00  0.00    +0.382 N 
ATOM     28  H   UNL     1       1.671  -0.182   1.159  0.00  0.00    -0.081 HD
ENDBRANCH  20  27
ENDBRANCH  19  20
ENDBRANCH   1  19
TORSDOF 7
