REMARK  Name = ZINC02977795
REMARK  6 active torsions:
REMARK  status: ('A' for Active; 'I' for Inactive)
REMARK    1  A    between atoms: C_1  and  C_2
REMARK    2  A    between atoms: C_8  and  C_13
REMARK    3  A    between atoms: C_9  and  O_12
REMARK    4  A    between atoms: C_13  and  C_15
REMARK    5  A    between atoms: C_13  and  N_22
REMARK    6  A    between atoms: N_22  and  C_23
REMARK                            x       y       z     vdW  Elec       q    Type
REMARK                         _______ _______ _______ _____ _____    ______ ____
ROOT
ATOM      1  C   UNL     1       4.796   4.115  -0.022  0.00  0.00    +0.136 C 
ENDROOT
BRANCH   1   9
ATOM      2  C   UNL     1      -2.485   3.614  -0.207  0.00  0.00    +0.065 C 
ATOM      3  C   UNL     1      -1.143   2.931  -0.262  0.00  0.00    +0.039 A 
ATOM      4  C   UNL     1      -1.091   1.548  -0.424  0.00  0.00    +0.023 A 
ATOM      5  C   UNL     1       0.116   0.912  -0.471  0.00  0.00    +0.012 A 
ATOM      6  C   UNL     1       1.282   1.693  -0.361  0.00  0.00    +0.004 A 
ATOM      7  C   UNL     1       2.559   1.110  -0.407  0.00  0.00    +0.010 A 
ATOM      8  C   UNL     1       3.665   1.897  -0.297  0.00  0.00    +0.010 A 
ATOM      9  C   UNL     1       3.550   3.275  -0.140  0.00  0.00    +0.021 A 
ATOM     10  C   UNL     1       2.326   3.878  -0.092  0.00  0.00    +0.148 A 
ATOM     11  C   UNL     1       1.158   3.095  -0.202  0.00  0.00    +0.113 A 
ATOM     12  N   UNL     1      -0.055   3.654  -0.159  0.00  0.00    -0.248 NA
BRANCH  10  13
ATOM     13  O   UNL     1       2.233   5.225   0.062  0.00  0.00    -0.504 OA
ATOM     14  H   UNL     1       2.222   5.716  -0.771  0.00  0.00    +0.292 HD
ENDBRANCH  10  13
ENDBRANCH   1   9
BRANCH   1  15
ATOM     15  C   UNL     1       5.202   4.607  -1.387  0.00  0.00    -0.023 A 
ATOM     16  C   UNL     1       5.894   3.772  -2.245  0.00  0.00    +0.008 A 
ATOM     17  C   UNL     1       6.261   4.221  -3.499  0.00  0.00    +0.038 A 
ATOM     18  C   UNL     1       5.946   5.510  -3.893  0.00  0.00    +0.123 A 
ATOM     19  C   UNL     1       5.258   6.348  -3.031  0.00  0.00    +0.038 A 
ATOM     20  C   UNL     1       4.886   5.895  -1.779  0.00  0.00    +0.008 A 
ATOM     21  F   UNL     1       6.311   5.952  -5.117  0.00  0.00    -0.205 F 
ENDBRANCH   1  15
BRANCH   1  22
ATOM     22  N   UNL     1       5.878   3.307   0.547  0.00  0.00    -0.320 N 
ATOM     23  H   UNL     1       5.861   2.342   0.457  0.00  0.00    +0.148 HD
BRANCH  22  24
ATOM     24  C   UNL     1       6.928   3.924   1.216  0.00  0.00    +0.097 A 
ATOM     25  C   UNL     1       6.946   5.310   1.342  0.00  0.00    +0.041 A 
ATOM     26  C   UNL     1       7.998   5.911   2.010  0.00  0.00    +0.005 A 
ATOM     27  C   UNL     1       8.999   5.103   2.532  0.00  0.00    +0.018 A 
ATOM     28  C   UNL     1       8.918   3.735   2.370  0.00  0.00    +0.084 A 
ATOM     29  N   UNL     1       7.897   3.110   1.725  0.00  0.00    -0.350 N 
ATOM     30  H   UNL     1       7.857   2.088   1.627  0.00  0.00    +0.166 HD
ENDBRANCH  22  24
ENDBRANCH   1  22
TORSDOF 5
