REMARK  Name = ZINC06410210
REMARK  12 active torsions:
REMARK  status: ('A' for Active; 'I' for Inactive)
REMARK    1  A    between atoms: C_1  and  C_2
REMARK    2  A    between atoms: C_7  and  C_15
REMARK    3  A    between atoms: C_13  and  C_14
REMARK    4  A    between atoms: C_15  and  N_16
REMARK    5  A    between atoms: N_16  and  C_17
REMARK    6  A    between atoms: N_16  and  C_24
REMARK    7  A    between atoms: C_17  and  C_18
REMARK    8  A    between atoms: C_24  and  N_26
REMARK    9  A    between atoms: N_26  and  C_27
REMARK   10  A    between atoms: C_27  and  C_28
REMARK   11  A    between atoms: C_28  and  C_29
REMARK   12  A    between atoms: C_29  and  N_69
REMARK                            x       y       z     vdW  Elec       q    Type
REMARK                         _______ _______ _______ _____ _____    ______ ____
ROOT
ATOM      1  N   UNL     1      -3.396   4.391  -0.757  0.00  0.00    -0.306 N 
ENDROOT
BRANCH   1   2
ATOM      2  C   UNL     1      -4.667   4.118  -1.112  0.00  0.00    +0.133 C 
ATOM      3  S   UNL     1      -5.962   4.969  -0.383  0.00  0.00    -0.019 S 
BRANCH   2   4
ATOM      4  N   UNL     1      -4.920   3.174  -2.041  0.00  0.00    -0.326 N 
ATOM      5  H   UNL     1      -4.186   2.692  -2.454  0.00  0.00    +0.148 HD
BRANCH   4   6
ATOM      6  C   UNL     1      -6.301   2.877  -2.427  0.00  0.00    +0.101 C 
BRANCH   6   7
ATOM      7  C   UNL     1      -6.308   1.777  -3.490  0.00  0.00    +0.000 C 
BRANCH   7   8
ATOM      8  C   UNL     1      -7.751   1.467  -3.893  0.00  0.00    -0.077 C 
BRANCH   8  14
ATOM      9  C   UNL     1      -7.146   0.881  -6.164  0.00  0.00    -0.050 C 
ATOM     10  C   UNL     1      -7.120  -0.266  -7.177  0.00  0.00    +0.141 C 
ATOM     11  O   UNL     1      -8.451  -0.751  -7.375  0.00  0.00    -0.383 OA
ATOM     12  C   UNL     1      -9.077  -1.219  -6.177  0.00  0.00    +0.141 C 
ATOM     13  C   UNL     1      -9.123  -0.081  -5.154  0.00  0.00    -0.050 C 
ATOM     14  N   UNL     1      -7.743   0.389  -4.905  0.00  0.00    +0.383 N 
ATOM     15  H   UNL     1      -7.182  -0.396  -4.554  0.00  0.00    -0.082 HD
ENDBRANCH   8  14
ENDBRANCH   7   8
ENDBRANCH   6   7
ENDBRANCH   4   6
ENDBRANCH   2   4
ENDBRANCH   1   2
BRANCH   1  16
ATOM     16  C   UNL     1      -3.122   5.416   0.253  0.00  0.00    +0.147 C 
BRANCH  16  23
ATOM     17  C   UNL     1      -3.185  12.642  -3.125  0.00  0.00    +0.044 C 
ATOM     18  C   UNL     1      -3.399  11.316  -2.442  0.00  0.00    -0.046 A 
ATOM     19  C   UNL     1      -4.654  10.995  -1.942  0.00  0.00    +0.004 A 
ATOM     20  C   UNL     1      -4.869   9.799  -1.319  0.00  0.00    +0.010 A 
ATOM     21  C   UNL     1      -3.816   8.887  -1.185  0.00  0.00    -0.001 A 
ATOM     22  C   UNL     1      -4.012   7.596  -0.524  0.00  0.00    +0.020 A 
ATOM     23  C   UNL     1      -2.954   6.753  -0.422  0.00  0.00    +0.035 A 
ATOM     24  C   UNL     1      -1.696   7.127  -0.941  0.00  0.00    +0.254 A 
ATOM     25  O   UNL     1      -0.757   6.356  -0.834  0.00  0.00    -0.268 OA
ATOM     26  N   UNL     1      -1.508   8.308  -1.554  0.00  0.00    -0.322 N 
ATOM     27  H   UNL     1      -0.630   8.531  -1.903  0.00  0.00    +0.169 HD
ATOM     28  C   UNL     1      -2.542   9.209  -1.690  0.00  0.00    +0.052 A 
ATOM     29  C   UNL     1      -2.347  10.434  -2.320  0.00  0.00    -0.024 A 
ATOM     30  C   UNL     1      -0.990  10.795  -2.866  0.00  0.00    +0.046 C 
ENDBRANCH  16  23
ENDBRANCH   1  16
BRANCH   1  31
ATOM     31  C   UNL     1      -2.289   3.662  -1.380  0.00  0.00    +0.138 C 
BRANCH  31  32
ATOM     32  C   UNL     1      -1.978   2.408  -0.561  0.00  0.00    +0.136 C 
ATOM     33  C   UNL     1      -0.811   1.623  -1.201  0.00  0.00    +0.035 C 
ATOM     34  C   UNL     1      -0.013   1.086   0.008  0.00  0.00    +0.031 C 
ATOM     35  C   UNL     1      -0.788   1.610   1.237  0.00  0.00    +0.160 C 
ATOM     36  O   UNL     1      -1.501   2.772   0.753  0.00  0.00    -0.375 OA
ENDBRANCH  31  32
ENDBRANCH   1  31
TORSDOF 10
