REMARK  Name = ZINC39465973
REMARK  7 active torsions:
REMARK  status: ('A' for Active; 'I' for Inactive)
REMARK    1  A    between atoms: C_1  and  C_2
REMARK    2  A    between atoms: C_2  and  C_3
REMARK    3  A    between atoms: C_2  and  S_4
REMARK    4  A    between atoms: S_4  and  C_7
REMARK    5  A    between atoms: P_21  and  S_24
REMARK    6  A    between atoms: S_24  and  O_27
REMARK    7  A    between atoms: O_27  and  C_28
REMARK                            x       y       z     vdW  Elec       q    Type
REMARK                         _______ _______ _______ _____ _____    ______ ____
ROOT
ATOM      1  C   UNL     1      -1.536  -2.381   0.152  0.00  0.00    +0.124 A 
ATOM      2  C   UNL     1      -2.002  -3.033   1.276  0.00  0.00    +0.035 A 
ATOM      3  C   UNL     1      -1.877  -4.410   1.393  0.00  0.00    -0.022 A 
ATOM      4  C   UNL     1      -1.283  -5.129   0.378  0.00  0.00    -0.038 A 
ATOM      5  C   UNL     1      -0.815  -4.477  -0.752  0.00  0.00    +0.044 A 
ATOM      6  C   UNL     1      -0.945  -3.105  -0.869  0.00  0.00    +0.148 A 
ATOM      7  F   UNL     1      -0.493  -2.473  -1.974  0.00  0.00    -0.203 F 
ATOM      8  C   UNL     1      -1.129  -6.626   0.461  0.00  0.00    +0.052 C 
ATOM      9  C   UNL     1      -1.267  -7.077   1.915  0.00  0.00    +0.108 C 
ATOM     10  N   UNL     1      -2.510  -6.518   2.468  0.00  0.00    -0.224 NA
ATOM     11  C   UNL     1      -2.401  -5.070   2.641  0.00  0.00    +0.130 C 
ATOM     12  C   UNL     1      -3.757  -4.455   3.000  0.00  0.00    +0.195 C 
ATOM     13  O   UNL     1      -4.196  -5.006   4.257  0.00  0.00    -0.296 OA
ATOM     14  P   UNL     1      -4.175  -6.622   4.439  0.00  0.00    +0.458 P 
ATOM     15  O   UNL     1      -5.378  -7.222   3.819  0.00  0.00    -0.243 OA
ATOM     16  N   UNL     1      -2.812  -7.141   3.658  0.00  0.00    -0.158 NA
ATOM     17  H   UNL     1      -2.254  -7.847   4.021  0.00  0.00    +0.152 HD
ENDROOT
BRANCH   1  18
ATOM     18  S   UNL     1      -1.700  -0.632   0.015  0.00  0.00    +0.002 S 
ATOM     19  O   UNL     1      -2.359  -0.234   1.209  0.00  0.00    -0.169 OA
ATOM     20  O   UNL     1      -2.308  -0.423  -1.252  0.00  0.00    -0.169 OA
BRANCH  18  22
ATOM     21  C   UNL     1      -0.019   1.526   0.010  0.00  0.00    +0.032 C 
ATOM     22  C   UNL     1       0.002  -0.004   0.002  0.00  0.00    +0.130 C 
ATOM     23  C   UNL     1       0.742  -0.511   1.242  0.00  0.00    +0.032 C 
ENDBRANCH  18  22
ENDBRANCH   1  18
BRANCH  14  24
ATOM     24  S   UNL     1      -4.082  -7.127   6.495  0.00  0.00    +0.211 S 
ATOM     25  O   UNL     1      -4.214  -8.540   6.573  0.00  0.00    -0.126 OA
ATOM     26  O   UNL     1      -2.964  -6.435   7.034  0.00  0.00    -0.126 OA
BRANCH  24  27
ATOM     27  O   UNL     1      -5.319  -6.538   7.159  0.00  0.00    -0.339 OA
BRANCH  27  28
ATOM     28  C   UNL     1      -6.465  -7.219   6.896  0.00  0.00    +0.157 A 
ATOM     29  C   UNL     1      -7.237  -6.881   5.794  0.00  0.00    +0.048 A 
ATOM     30  C   UNL     1      -8.401  -7.575   5.528  0.00  0.00    +0.004 A 
ATOM     31  C   UNL     1      -8.798  -8.606   6.359  0.00  0.00    +0.000 A 
ATOM     32  C   UNL     1      -8.031  -8.945   7.458  0.00  0.00    +0.004 A 
ATOM     33  C   UNL     1      -6.862  -8.258   7.725  0.00  0.00    +0.048 A 
ENDBRANCH  27  28
ENDBRANCH  24  27
ENDBRANCH  14  24
TORSDOF 5
