REMARK  Name = ZINC07002254
REMARK  12 active torsions:
REMARK  status: ('A' for Active; 'I' for Inactive)
REMARK    1  A    between atoms: C_1  and  C_2
REMARK    2  A    between atoms: C_2  and  C_3
REMARK    3  A    between atoms: C_2  and  C_4
REMARK    4  A    between atoms: C_4  and  N_5
REMARK    5  A    between atoms: C_6  and  N_31
REMARK    6  A    between atoms: C_7  and  N_14
REMARK    7  A    between atoms: N_14  and  C_15
REMARK    8  A    between atoms: C_15  and  C_16
REMARK    9  A    between atoms: C_16  and  C_17
REMARK   10  A    between atoms: C_16  and  C_18
REMARK   11  A    between atoms: C_19  and  C_21
REMARK   12  A    between atoms: C_21  and  N_64
REMARK                            x       y       z     vdW  Elec       q    Type
REMARK                         _______ _______ _______ _____ _____    ______ ____
ROOT
ATOM      1  N   UNL     1      -0.428   1.130   1.222  0.00  0.00    -0.266 N 
ATOM      2  C   UNL     1      -0.196   2.340   1.772  0.00  0.00    +0.203 C 
ATOM      3  O   UNL     1      -0.673   2.616   2.853  0.00  0.00    -0.277 OA
ENDROOT
BRANCH   1   6
ATOM      4  N   UNL     1      -1.258  -1.987   2.982  0.00  0.00    -0.280 N 
ATOM      5  C   UNL     1      -0.542  -1.053   2.269  0.00  0.00    +0.127 A 
ATOM      6  C   UNL     1      -1.138   0.149   1.947  0.00  0.00    +0.140 A 
ATOM      7  C   UNL     1      -2.467   0.379   2.349  0.00  0.00    +0.277 A 
ATOM      8  O   UNL     1      -3.019   1.431   2.073  0.00  0.00    -0.266 OA
ATOM      9  N   UNL     1      -3.126  -0.572   3.041  0.00  0.00    -0.273 N 
ATOM     10  H   UNL     1      -4.070  -0.409   3.327  0.00  0.00    +0.173 HD
ATOM     11  C   UNL     1      -2.527  -1.736   3.350  0.00  0.00    +0.331 A 
ATOM     12  O   UNL     1      -3.145  -2.576   3.975  0.00  0.00    -0.246 OA
BRANCH   5  13
ATOM     13  N   UNL     1       0.752  -1.313   1.887  0.00  0.00    -0.343 N 
ATOM     14  H   UNL     1       1.272  -0.627   1.440  0.00  0.00    +0.144 HD
ATOM     15  H   UNL     1       1.145  -2.181   2.066  0.00  0.00    +0.144 HD
ENDBRANCH   5  13
BRANCH   4  16
ATOM     16  C   UNL     1      -0.637  -3.265   3.336  0.00  0.00    +0.131 C 
BRANCH  16  18
ATOM     17  C   UNL     1      -0.184  -3.829   0.944  0.00  0.00    +0.009 C 
ATOM     18  C   UNL     1      -0.893  -4.283   2.222  0.00  0.00    +0.003 C 
ATOM     19  C   UNL     1      -0.353  -5.650   2.646  0.00  0.00    +0.009 C 
ENDBRANCH  16  18
ENDBRANCH   4  16
ENDBRANCH   1   6
BRANCH   1  20
ATOM     20  C   UNL     1       0.057   0.834  -0.129  0.00  0.00    +0.117 C 
BRANCH  20  21
ATOM     21  C   UNL     1      -0.952   1.349  -1.157  0.00  0.00    +0.001 C 
ATOM     22  C   UNL     1      -0.380   1.174  -2.565  0.00  0.00    +0.009 C 
ATOM     23  C   UNL     1      -2.255   0.556  -1.034  0.00  0.00    +0.009 C 
ENDBRANCH  20  21
ENDBRANCH   1  20
BRANCH   2  24
ATOM     24  C   UNL     1       0.657   3.347   1.045  0.00  0.00    +0.020 C 
BRANCH  24  34
ATOM     25  C   UNL     1      -0.631   5.233   1.855  0.00  0.00    -0.073 C 
ATOM     26  C   UNL     1      -0.622   6.306   2.944  0.00  0.00    +0.017 C 
ATOM     27  C   UNL     1       0.572   7.208   2.768  0.00  0.00    -0.048 A 
ATOM     28  C   UNL     1       0.578   8.432   3.420  0.00  0.00    +0.004 A 
ATOM     29  C   UNL     1       1.654   9.287   3.289  0.00  0.00    +0.000 A 
ATOM     30  C   UNL     1       2.732   8.921   2.504  0.00  0.00    +0.000 A 
ATOM     31  C   UNL     1       2.726   7.703   1.853  0.00  0.00    +0.002 A 
ATOM     32  C   UNL     1       1.645   6.843   1.983  0.00  0.00    -0.061 A 
ATOM     33  C   UNL     1       1.683   5.528   1.251  0.00  0.00    -0.042 C 
ATOM     34  N   UNL     1       0.702   4.598   1.835  0.00  0.00    +0.388 N 
ATOM     35  H   UNL     1       0.982   4.376   2.797  0.00  0.00    -0.081 HD
ENDBRANCH  24  34
ENDBRANCH   2  24
TORSDOF 8
