REMARK  Name = ZINC43287115
REMARK  9 active torsions:
REMARK  status: ('A' for Active; 'I' for Inactive)
REMARK    1  A    between atoms: C_1  and  C_2
REMARK    2  A    between atoms: C_2  and  C_3
REMARK    3  A    between atoms: C_3  and  C_5
REMARK    4  A    between atoms: C_3  and  N_22
REMARK    5  A    between atoms: C_5  and  C_7
REMARK    6  A    between atoms: C_5  and  N_13
REMARK    7  A    between atoms: N_13  and  C_14
REMARK    8  A    between atoms: N_13  and  C_15
REMARK    9  A    between atoms: C_15  and  C_16
REMARK                            x       y       z     vdW  Elec       q    Type
REMARK                         _______ _______ _______ _____ _____    ______ ____
ROOT
ATOM      1  C   UNL     1       0.787  -1.820   1.408  0.00  0.00    +0.079 C 
ENDROOT
BRANCH   1   2
ATOM      2  C   UNL     1       1.080  -2.071  -0.049  0.00  0.00    +0.006 A 
ATOM      3  C   UNL     1       0.215  -2.176  -1.088  0.00  0.00    +0.028 A 
ATOM      4  C   UNL     1       0.714  -2.411  -2.355  0.00  0.00    +0.025 A 
ATOM      5  C   UNL     1       2.055  -2.530  -2.522  0.00  0.00    +0.060 A 
ATOM      6  S   UNL     1       2.656  -2.299  -0.856  0.00  0.00    -0.099 S 
ATOM      7 BR   UNL     1      -0.454  -2.566  -3.834  0.00  0.00    -0.050 Br
ENDBRANCH   1   2
BRANCH   1   8
ATOM      8  N   UNL     1       1.490  -2.817   2.227  0.00  0.00    -0.295 NA
ATOM      9  C   UNL     1       1.039  -4.177   1.903  0.00  0.00    +0.105 C 
BRANCH   8  10
ATOM     10  C   UNL     1       2.945  -2.694   2.072  0.00  0.00    +0.127 C 
BRANCH  10  11
ATOM     11  C   UNL     1       3.633  -3.418   3.201  0.00  0.00    +0.005 A 
ATOM     12  C   UNL     1       4.041  -4.709   3.263  0.00  0.00    +0.027 A 
ATOM     13  C   UNL     1       4.659  -5.162   4.414  0.00  0.00    +0.025 A 
ATOM     14  C   UNL     1       4.837  -4.302   5.447  0.00  0.00    +0.060 A 
ATOM     15  S   UNL     1       4.129  -2.796   4.799  0.00  0.00    -0.099 S 
ATOM     16 BR   UNL     1       5.244  -6.956   4.547  0.00  0.00    -0.050 Br
ENDBRANCH  10  11
ENDBRANCH   8  10
ENDBRANCH   1   8
BRANCH   1  17
ATOM     17  C   UNL     1       1.265  -0.418   1.790  0.00  0.00    -0.053 C 
BRANCH  17  18
ATOM     18  N   UNL     1       1.130  -0.233   3.241  0.00  0.00    +0.381 N 
ATOM     19  H   UNL     1       0.174  -0.405   3.514  0.00  0.00    -0.090 HD
ATOM     20  H   UNL     1       1.739  -0.879   3.720  0.00  0.00    -0.090 HD
ATOM     21  H   UNL     1       1.384   0.713   3.484  0.00  0.00    -0.090 HD
ENDBRANCH  17  18
BRANCH  17  23
ATOM     22  C   UNL     1       0.972   2.023   1.345  0.00  0.00    +0.002 C 
ATOM     23  C   UNL     1       0.416   0.626   1.061  0.00  0.00    -0.018 C 
ENDBRANCH  17  23
ENDBRANCH   1  17
TORSDOF 7
