REMARK  Name = ZINC13174412
REMARK  8 active torsions:
REMARK  status: ('A' for Active; 'I' for Inactive)
REMARK    1  A    between atoms: C_1  and  C_2
REMARK    2  A    between atoms: C_2  and  C_4
REMARK    3  A    between atoms: C_7  and  N_10
REMARK    4  A    between atoms: C_11  and  C_13
REMARK    5  A    between atoms: C_13  and  S_14
REMARK    6  A    between atoms: S_14  and  C_15
REMARK    7  A    between atoms: C_16  and  C_36
REMARK    8  A    between atoms: C_17  and  C_27
REMARK                            x       y       z     vdW  Elec       q    Type
REMARK                         _______ _______ _______ _____ _____    ______ ____
ROOT
ATOM      1  C   UNL     1      -7.356  -7.509  -0.419  0.00  0.00    +0.112 C 
ATOM      2  C   UNL     1      -7.445  -8.886  -0.524  0.00  0.00    +0.073 C 
ATOM      3  C   UNL     1      -8.835  -9.488  -0.620  0.00  0.00    +0.097 C 
ATOM      4  C   UNL     1      -9.986  -8.501  -0.590  0.00  0.00    +0.029 C 
ATOM      5  C   UNL     1     -11.252  -8.944  -0.666  0.00  0.00    +0.162 C 
ATOM      6  C   UNL     1     -12.417  -7.991  -0.640  0.00  0.00    +0.080 C 
ATOM      7  C   UNL     1     -12.038  -6.750   0.173  0.00  0.00    +0.014 C 
ATOM      8  C   UNL     1     -10.791  -6.114  -0.447  0.00  0.00    +0.056 C 
ATOM      9  C   UNL     1      -9.677  -7.133  -0.479  0.00  0.00    +0.050 C 
ATOM     10  N   UNL     1      -8.435  -6.724  -0.397  0.00  0.00    -0.244 NA
ATOM     11  O   UNL     1     -11.483 -10.268  -0.769  0.00  0.00    -0.292 OA
ENDROOT
BRANCH   3  12
ATOM     12  C   UNL     1      -9.013 -10.449   0.527  0.00  0.00    -0.031 A 
ATOM     13  C   UNL     1      -8.920  -9.993   1.829  0.00  0.00    +0.008 A 
ATOM     14  C   UNL     1      -9.083 -10.870   2.885  0.00  0.00    +0.050 A 
ATOM     15  C   UNL     1      -9.340 -12.209   2.641  0.00  0.00    +0.166 A 
ATOM     16  C   UNL     1      -9.434 -12.668   1.329  0.00  0.00    +0.167 A 
ATOM     17  C   UNL     1      -9.275 -11.783   0.276  0.00  0.00    +0.054 A 
ATOM     18  O   UNL     1      -9.690 -14.009   1.354  0.00  0.00    -0.453 OA
ATOM     19  C   UNL     1      -9.347 -14.442   2.684  0.00  0.00    +0.466 C 
ATOM     20  O   UNL     1      -9.537 -13.262   3.487  0.00  0.00    -0.453 OA
ENDBRANCH   3  12
BRANCH   2  21
ATOM     21  C   UNL     1      -6.273  -9.710  -0.541  0.00  0.00    +0.098 C 
ATOM     22  N   UNL     1      -5.344 -10.363  -0.554  0.00  0.00    -0.191 NA
ENDBRANCH   2  21
BRANCH   1  23
ATOM     23  S   UNL     1      -5.763  -6.766  -0.304  0.00  0.00    -0.096 S 
BRANCH  23  24
ATOM     24  C   UNL     1      -6.114  -4.991  -0.178  0.00  0.00    +0.172 C 
BRANCH  24  26
ATOM     25  N   UNL     1      -4.834  -2.885   0.031  0.00  0.00    -0.285 N 
ATOM     26  C   UNL     1      -4.819  -4.228  -0.073  0.00  0.00    +0.227 C 
ATOM     27  O   UNL     1      -3.762  -4.824  -0.081  0.00  0.00    -0.275 OA
ATOM     28  H   UNL     1      -5.678  -2.414   0.115  0.00  0.00    +0.155 HD
BRANCH  25  32
ATOM     29  C   UNL     1      -1.260  -0.754  -0.007  0.00  0.00    +0.017 A 
ATOM     30  C   UNL     1      -1.388  -1.926  -0.763  0.00  0.00    +0.013 A 
ATOM     31  C   UNL     1      -2.567  -2.625  -0.748  0.00  0.00    +0.024 A 
ATOM     32  C   UNL     1      -3.637  -2.171   0.018  0.00  0.00    +0.033 A 
ATOM     33  C   UNL     1      -3.515  -1.006   0.771  0.00  0.00    +0.024 A 
ATOM     34  C   UNL     1      -2.338  -0.304   0.766  0.00  0.00    +0.013 A 
BRANCH  29  36
ATOM     35  C   UNL     1       1.159  -0.489  -0.854  0.00  0.00    +0.091 C 
ATOM     36  C   UNL     1       0.001  -0.003  -0.021  0.00  0.00    +0.160 C 
ATOM     37  O   UNL     1       0.111   1.010   0.639  0.00  0.00    -0.292 OA
ENDBRANCH  29  36
ENDBRANCH  25  32
ENDBRANCH  24  26
ENDBRANCH  23  24
ENDBRANCH   1  23
TORSDOF 7
