REMARK  Name = ZINC39631818
REMARK  13 active torsions:
REMARK  status: ('A' for Active; 'I' for Inactive)
REMARK    1  A    between atoms: C_1  and  C_2
REMARK    2  A    between atoms: C_5  and  C_9
REMARK    3  A    between atoms: C_7  and  C_8
REMARK    4  A    between atoms: C_13  and  C_22
REMARK    5  A    between atoms: N_24  and  C_25
REMARK    6  A    between atoms: C_25  and  C_27
REMARK    7  A    between atoms: C_25  and  C_28
REMARK    8  A    between atoms: C_28  and  C_29
REMARK    9  A    between atoms: C_29  and  C_30
REMARK   10  A    between atoms: C_30  and  C_31
REMARK   11  A    between atoms: C_31  and  C_32
REMARK   12  A    between atoms: C_31  and  C_33
REMARK   13  A    between atoms: C_31  and  O_34
REMARK                            x       y       z     vdW  Elec       q    Type
REMARK                         _______ _______ _______ _____ _____    ______ ____
ROOT
ATOM      1  C   UNL     1       0.063  -4.258  -0.019  0.00  0.00    +0.247 C 
ATOM      2  O   UNL     1       0.186  -4.871   1.023  0.00  0.00    -0.270 OA
ATOM      3  N   UNL     1      -0.036  -4.924  -1.186  0.00  0.00    -0.296 N 
ATOM      4  C   UNL     1      -0.063  -4.359  -2.556  0.00  0.00    +0.121 C 
ATOM      5  C   UNL     1       0.782  -5.339  -3.399  0.00  0.00    +0.100 C 
ATOM      6  C   UNL     1       0.724  -6.670  -2.630  0.00  0.00    -0.004 C 
ATOM      7  C   UNL     1      -0.137  -6.389  -1.390  0.00  0.00    +0.115 C 
ATOM      8  C   UNL     1       2.126  -7.097  -2.206  0.00  0.00    -0.010 C 
ATOM      9  C   UNL     1       2.048  -8.450  -1.493  0.00  0.00    -0.082 C 
ATOM     10  N   UNL     1       1.463  -9.448  -2.396  0.00  0.00    +0.379 N 
ATOM     11  C   UNL     1       0.082  -9.077  -2.726  0.00  0.00    -0.082 C 
ATOM     12  C   UNL     1       0.076  -7.750  -3.491  0.00  0.00    -0.010 C 
ATOM     13  H   UNL     1       2.009  -9.494  -3.244  0.00  0.00    -0.086 HD
ATOM     14  H   UNL     1       1.469 -10.351  -1.947  0.00  0.00    -0.086 HD
ENDROOT
BRANCH   1  19
ATOM     15  C   UNL     1      -0.097   1.495   0.032  0.00  0.00    +0.044 C 
ATOM     16  C   UNL     1      -0.056  -0.012   0.019  0.00  0.00    -0.047 A 
ATOM     17  C   UNL     1      -0.643  -0.708  -1.023  0.00  0.00    +0.004 A 
ATOM     18  C   UNL     1      -0.608  -2.087  -1.041  0.00  0.00    +0.013 A 
ATOM     19  C   UNL     1       0.022  -2.780  -0.006  0.00  0.00    +0.037 A 
ATOM     20  C   UNL     1       0.612  -2.071   1.042  0.00  0.00    +0.016 A 
ATOM     21  C   UNL     1       0.575  -0.692   1.046  0.00  0.00    -0.047 A 
ATOM     22  C   UNL     1       1.216   0.074   2.173  0.00  0.00    +0.044 C 
ENDBRANCH   1  19
BRANCH   5  23
ATOM     23  C   UNL     1       2.204  -4.852  -3.502  0.00  0.00    +0.218 C 
ATOM     24  O   UNL     1       2.717  -4.275  -2.566  0.00  0.00    -0.275 OA
ATOM     25  N   UNL     1       2.907  -5.057  -4.634  0.00  0.00    -0.312 N 
ATOM     26  H   UNL     1       2.497  -5.518  -5.382  0.00  0.00    +0.149 HD
BRANCH  25  27
ATOM     27  C   UNL     1       4.290  -4.583  -4.734  0.00  0.00    +0.070 C 
ATOM     28  C   UNL     1       4.296  -3.116  -5.169  0.00  0.00    +0.028 C 
BRANCH  27  29
ATOM     29  C   UNL     1       5.044  -5.425  -5.765  0.00  0.00    +0.022 C 
BRANCH  29  30
ATOM     30  C   UNL     1       5.146  -6.868  -5.269  0.00  0.00    +0.005 C 
BRANCH  30  31
ATOM     31  C   UNL     1       5.900  -7.710  -6.301  0.00  0.00    +0.034 C 
BRANCH  31  32
ATOM     32  C   UNL     1       6.001  -9.154  -5.805  0.00  0.00    +0.061 C 
ATOM     33  C   UNL     1       6.862  -9.967  -6.774  0.00  0.00    +0.041 C 
ATOM     34  C   UNL     1       6.643  -9.172  -4.416  0.00  0.00    +0.041 C 
BRANCH  32  35
ATOM     35  O   UNL     1       4.694  -9.726  -5.733  0.00  0.00    -0.389 OA
ATOM     36  H   UNL     1       4.682 -10.643  -5.425  0.00  0.00    +0.210 HD
ENDBRANCH  32  35
ENDBRANCH  31  32
ENDBRANCH  30  31
ENDBRANCH  29  30
ENDBRANCH  27  29
ENDBRANCH  25  27
ENDBRANCH   5  23
TORSDOF 8
