REMARK  Name = ZINC51170372
REMARK  7 active torsions:
REMARK  status: ('A' for Active; 'I' for Inactive)
REMARK    1  A    between atoms: C_1  and  C_2
REMARK    2  A    between atoms: C_2  and  C_3
REMARK    3  A    between atoms: C_4  and  C_18
REMARK    4  A    between atoms: C_7  and  O_16
REMARK    5  A    between atoms: C_12  and  N_13
REMARK    6  A    between atoms: N_13  and  N_14
REMARK    7  A    between atoms: O_16  and  C_17
REMARK                            x       y       z     vdW  Elec       q    Type
REMARK                         _______ _______ _______ _____ _____    ______ ____
ROOT
ATOM      1  C   UNL     1       0.556  -0.505  -0.905  0.00  0.00    -0.006 A 
ATOM      2  C   UNL     1      -0.330  -0.756  -1.944  0.00  0.00    +0.018 A 
ATOM      3  N   UNL     1       0.078  -1.203  -3.109  0.00  0.00    -0.355 N 
ATOM      4  C   UNL     1       1.371  -1.440  -3.357  0.00  0.00    +0.092 A 
ATOM      5  C   UNL     1       1.793  -1.920  -4.614  0.00  0.00    +0.144 A 
ATOM      6  C   UNL     1       3.120  -2.153  -4.837  0.00  0.00    +0.049 A 
ATOM      7  C   UNL     1       4.066  -1.925  -3.842  0.00  0.00    +0.019 A 
ATOM      8  C   UNL     1       3.692  -1.462  -2.615  0.00  0.00    +0.029 A 
ATOM      9  C   UNL     1       2.337  -1.210  -2.350  0.00  0.00    +0.038 A 
ATOM     10  C   UNL     1       1.912  -0.723  -1.091  0.00  0.00    +0.056 A 
ATOM     11 BR   UNL     1       4.993  -1.159  -1.277  0.00  0.00    -0.050 Br
ATOM     12  C   UNL     1      -1.801  -0.509  -1.729  0.00  0.00    +0.063 C 
ATOM     13  H   UNL     1      -0.575  -1.365  -3.808  0.00  0.00    +0.166 HD
ENDROOT
BRANCH   1  15
ATOM     14  C   UNL     1       0.027   1.536   0.400  0.00  0.00    +0.009 C 
ATOM     15  C   UNL     1       0.046   0.006   0.418  0.00  0.00    +0.035 C 
ENDBRANCH   1  15
BRANCH  10  16
ATOM     16  N   UNL     1       2.822  -0.477  -0.074  0.00  0.00    -0.282 N 
ATOM     17  H   UNL     1       3.317  -1.211   0.322  0.00  0.00    +0.166 HD
BRANCH  16  18
ATOM     18  N   UNL     1       3.022   0.800   0.369  0.00  0.00    -0.256 NA
ATOM     19  H   UNL     1       3.647   0.814   1.162  0.00  0.00    +0.140 HD
ATOM     20  H   UNL     1       3.366   1.391  -0.373  0.00  0.00    +0.140 HD
ENDBRANCH  16  18
ENDBRANCH  10  16
BRANCH   5  21
ATOM     21  O   UNL     1       0.884  -2.150  -5.597  0.00  0.00    -0.493 OA
ATOM     22  C   UNL     1       1.386  -2.635  -6.844  0.00  0.00    +0.277 C 
ENDBRANCH   5  21
TORSDOF 4
