REMARK  Name = ZINC39657027
REMARK  8 active torsions:
REMARK  status: ('A' for Active; 'I' for Inactive)
REMARK    1  A    between atoms: C_1  and  C_2
REMARK    2  A    between atoms: C_2  and  C_4
REMARK    3  A    between atoms: C_2  and  N_11
REMARK    4  A    between atoms: C_12  and  C_14
REMARK    5  A    between atoms: C_25  and  C_27
REMARK    6  A    between atoms: C_31  and  N_33
REMARK    7  A    between atoms: N_33  and  C_34
REMARK    8  A    between atoms: N_33  and  C_35
REMARK                            x       y       z     vdW  Elec       q    Type
REMARK                         _______ _______ _______ _____ _____    ______ ____
ROOT
ATOM      1  C   UNL     1       1.264  -1.409   3.995  0.00  0.00    +0.100 C 
ATOM      2  C   UNL     1       2.269  -0.238   4.082  0.00  0.00    +0.121 C 
ATOM      3  N   UNL     1       1.669   0.697   5.062  0.00  0.00    -0.296 N 
ATOM      4  C   UNL     1       1.093  -0.182   6.107  0.00  0.00    +0.115 C 
ATOM      5  C   UNL     1       0.497  -1.371   5.327  0.00  0.00    -0.004 C 
ATOM      6  C   UNL     1       0.713  -2.670   6.098  0.00  0.00    -0.010 C 
ATOM      7  C   UNL     1      -0.107  -2.633   7.391  0.00  0.00    -0.082 C 
ATOM      8  N   UNL     1      -1.528  -2.462   7.067  0.00  0.00    +0.379 N 
ATOM      9  C   UNL     1      -1.740  -1.168   6.409  0.00  0.00    -0.082 C 
ATOM     10  C   UNL     1      -0.990  -1.143   5.074  0.00  0.00    -0.010 C 
ATOM     11  C   UNL     1       1.652   2.044   5.014  0.00  0.00    +0.247 C 
ATOM     12  O   UNL     1       2.055   2.623   4.024  0.00  0.00    -0.270 OA
ATOM     13  H   UNL     1      -1.823  -3.204   6.450  0.00  0.00    -0.086 HD
ATOM     14  H   UNL     1      -2.072  -2.499   7.917  0.00  0.00    -0.086 HD
ENDROOT
BRANCH  11  15
ATOM     15  C   UNL     1       1.142   2.818   6.166  0.00  0.00    +0.039 A 
ATOM     16  C   UNL     1       1.077   2.231   7.431  0.00  0.00    +0.013 A 
ATOM     17  C   UNL     1       0.601   2.955   8.505  0.00  0.00    +0.003 A 
ATOM     18  C   UNL     1       0.186   4.263   8.333  0.00  0.00    +0.023 A 
ATOM     19  C   UNL     1       0.246   4.856   7.078  0.00  0.00    +0.030 A 
ATOM     20  C   UNL     1       0.729   4.139   5.994  0.00  0.00    +0.036 A 
BRANCH  19  21
ATOM     21  N   UNL     1      -0.175   6.178   6.909  0.00  0.00    -0.336 N 
ATOM     22  C   UNL     1      -0.811   6.891   8.020  0.00  0.00    +0.129 C 
ATOM     23  C   UNL     1       0.018   6.850   5.622  0.00  0.00    +0.129 C 
ENDBRANCH  19  21
ENDBRANCH  11  15
BRANCH   1  25
ATOM     24  N   UNL     1      -0.212  -2.269   2.206  0.00  0.00    -0.308 N 
ATOM     25  C   UNL     1       0.319  -1.204   2.839  0.00  0.00    +0.219 C 
ATOM     26  O   UNL     1       0.036  -0.082   2.478  0.00  0.00    -0.275 OA
ATOM     27  H   UNL     1       0.014  -3.167   2.494  0.00  0.00    +0.149 HD
BRANCH  24  29
ATOM     28  C   UNL     1      -0.328  -1.889  -0.207  0.00  0.00    +0.033 C 
ATOM     29  C   UNL     1      -1.131  -2.070   1.082  0.00  0.00    +0.100 C 
BRANCH  29  30
ATOM     30  C   UNL     1      -2.030  -3.272   0.950  0.00  0.00    -0.027 A 
ATOM     31  C   UNL     1      -1.517  -4.543   1.137  0.00  0.00    +0.006 A 
ATOM     32  C   UNL     1      -2.342  -5.646   1.016  0.00  0.00    +0.015 A 
ATOM     33  C   UNL     1      -3.679  -5.478   0.707  0.00  0.00    +0.018 A 
ATOM     34  C   UNL     1      -4.192  -4.207   0.519  0.00  0.00    +0.015 A 
ATOM     35  C   UNL     1      -3.368  -3.105   0.646  0.00  0.00    +0.006 A 
ATOM     36 BR   UNL     1      -4.808  -6.987   0.541  0.00  0.00    -0.050 Br
ENDBRANCH  29  30
ENDBRANCH  24  29
ENDBRANCH   1  25
TORSDOF 5
