REMARK  Name = ZINC25443584
REMARK  13 active torsions:
REMARK  status: ('A' for Active; 'I' for Inactive)
REMARK    1  A    between atoms: C_1  and  C_2
REMARK    2  A    between atoms: C_2  and  C_3
REMARK    3  A    between atoms: C_3  and  N_4
REMARK    4  A    between atoms: C_8  and  S_29
REMARK    5  A    between atoms: C_12  and  C_13
REMARK    6  A    between atoms: C_13  and  C_14
REMARK    7  A    between atoms: C_14  and  C_15
REMARK    8  A    between atoms: N_17  and  C_18
REMARK    9  A    between atoms: C_18  and  C_19
REMARK   10  A    between atoms: C_19  and  N_26
REMARK   11  A    between atoms: N_26  and  C_27
REMARK   12  A    between atoms: N_26  and  C_28
REMARK   13  A    between atoms: S_29  and  N_32
REMARK                            x       y       z     vdW  Elec       q    Type
REMARK                         _______ _______ _______ _____ _____    ______ ____
ROOT
ATOM      1  N   UNL     1       0.649   2.287  -1.932  0.00  0.00    -0.328 N 
ATOM      2  C   UNL     1       0.849   3.650  -2.028  0.00  0.00    +0.069 A 
ATOM      3  C   UNL     1       1.891   4.444  -2.487  0.00  0.00    +0.030 A 
ATOM      4  C   UNL     1       1.773   5.817  -2.445  0.00  0.00    +0.030 A 
ATOM      5  C   UNL     1       0.621   6.408  -1.946  0.00  0.00    +0.107 A 
ATOM      6  C   UNL     1      -0.414   5.643  -1.490  0.00  0.00    +0.058 A 
ATOM      7  C   UNL     1      -0.317   4.249  -1.523  0.00  0.00    +0.091 A 
ATOM      8  N   UNL     1      -1.151   3.243  -1.153  0.00  0.00    -0.232 NA
ATOM      9  C   UNL     1      -0.585   2.096  -1.393  0.00  0.00    +0.111 A 
ENDROOT
BRANCH   5  10
ATOM     10  S   UNL     1       0.492   8.165  -1.902  0.00  0.00    +0.056 S 
ATOM     11  O   UNL     1      -0.455   8.477  -0.890  0.00  0.00    -0.153 OA
ATOM     12  O   UNL     1       1.820   8.669  -1.884  0.00  0.00    -0.153 OA
BRANCH  10  13
ATOM     13  N   UNL     1      -0.176   8.643  -3.339  0.00  0.00    -0.204 NA
ATOM     14  H   UNL     1      -0.274   9.739  -3.352  0.00  0.00    +0.144 HD
ATOM     15  H   UNL     1      -1.170   8.185  -3.452  0.00  0.00    +0.144 HD
ENDBRANCH  10  13
ENDBRANCH   5  10
BRANCH   1  16
ATOM     16  C   UNL     1       1.591   1.240  -2.337  0.00  0.00    +0.123 C 
BRANCH  16  18
ATOM     17  C   UNL     1       2.326  -0.225  -4.222  0.00  0.00    +0.005 C 
ATOM     18  C   UNL     1       1.343   0.868  -3.800  0.00  0.00    +0.018 C 
ENDBRANCH  16  18
ENDBRANCH   1  16
BRANCH   9  19
ATOM     19  C   UNL     1      -1.207   0.752  -1.113  0.00  0.00    +0.083 C 
BRANCH  19  20
ATOM     20  C   UNL     1      -1.993   0.289  -2.341  0.00  0.00    +0.103 C 
BRANCH  20  21
ATOM     21  C   UNL     1      -2.615  -1.055  -2.062  0.00  0.00    +0.213 C 
ATOM     22  O   UNL     1      -2.446  -1.590  -0.987  0.00  0.00    -0.276 OA
ATOM     23  N   UNL     1      -3.359  -1.663  -3.007  0.00  0.00    -0.317 N 
ATOM     24  H   UNL     1      -3.513  -1.178  -3.982  0.00  0.00    +0.149 HD
BRANCH  23  25
ATOM     25  C   UNL     1      -3.964  -2.970  -2.735  0.00  0.00    +0.092 C 
BRANCH  25  26
ATOM     26  C   UNL     1      -4.854  -3.374  -3.912  0.00  0.00    -0.050 C 
ATOM     27  C   UNL     1      -6.083  -4.074  -3.398  0.00  0.00    -0.010 C 
ATOM     28  C   UNL     1      -5.854  -4.739  -2.028  0.00  0.00    -0.001 C 
ATOM     29  C   UNL     1      -4.490  -5.449  -1.930  0.00  0.00    -0.000 C 
ATOM     30  C   UNL     1      -4.145  -6.210  -3.181  0.00  0.00    -0.000 C 
ATOM     31  C   UNL     1      -3.285  -5.302  -4.085  0.00  0.00    -0.001 C 
ATOM     32  C   UNL     1      -4.087  -4.345  -4.833  0.00  0.00    -0.010 C 
BRANCH  26  33
ATOM     33  N   UNL     1      -5.243  -2.178  -4.671  0.00  0.00    +0.381 N 
ATOM     34  C   UNL     1      -6.010  -2.541  -5.869  0.00  0.00    -0.096 C 
ATOM     35  C   UNL     1      -5.997  -1.241  -3.827  0.00  0.00    -0.096 C 
ATOM     36  H   UNL     1      -4.323  -1.671  -4.999  0.00  0.00    -0.082 HD
ENDBRANCH  26  33
ENDBRANCH  25  26
ENDBRANCH  23  25
ENDBRANCH  20  21
ENDBRANCH  19  20
ENDBRANCH   9  19
TORSDOF 10
