REMARK  Name = ZINC37647565
REMARK  7 active torsions:
REMARK  status: ('A' for Active; 'I' for Inactive)
REMARK    1  A    between atoms: C_1  and  N_2
REMARK    2  A    between atoms: C_5  and  C_8
REMARK    3  A    between atoms: C_8  and  N_9
REMARK    4  A    between atoms: N_9  and  S_10
REMARK    5  A    between atoms: S_10  and  C_13
REMARK    6  A    between atoms: C_14  and  N_21
REMARK    7  A    between atoms: N_21  and  N_22
REMARK                            x       y       z     vdW  Elec       q    Type
REMARK                         _______ _______ _______ _____ _____    ______ ____
ROOT
ATOM      1  S   UNL     1      -0.297  -4.453   4.460  0.00  0.00    +0.078 S 
ATOM      2  O   UNL     1      -0.824  -5.760   4.279  0.00  0.00    -0.151 OA
ATOM      3  O   UNL     1       1.019  -4.222   4.943  0.00  0.00    -0.151 OA
ENDROOT
BRANCH   1   4
ATOM      4  C   UNL     1      -1.391  -3.616   5.559  0.00  0.00    +0.222 A 
ATOM      5  C   UNL     1      -1.082  -2.562   6.342  0.00  0.00    +0.179 A 
ATOM      6  N   UNL     1      -2.182  -2.212   7.030  0.00  0.00    -0.203 NA
ATOM      7  C   UNL     1      -3.159  -3.008   6.703  0.00  0.00    +0.181 A 
ATOM      8  N   UNL     1      -2.738  -3.920   5.773  0.00  0.00    -0.276 N 
ATOM      9  C   UNL     1      -3.670  -4.830   5.324  0.00  0.00    +0.102 A 
ATOM     10  C   UNL     1      -4.921  -4.809   5.782  0.00  0.00    +0.067 A 
ATOM     11  S   UNL     1      -4.866  -3.448   6.938  0.00  0.00    -0.058 S 
BRANCH   5  12
ATOM     12  N   UNL     1       0.173  -1.938   6.423  0.00  0.00    -0.265 N 
ATOM     13  H   UNL     1       0.912  -2.263   5.885  0.00  0.00    +0.168 HD
BRANCH  12  14
ATOM     14  N   UNL     1       0.353  -0.874   7.261  0.00  0.00    -0.255 NA
ATOM     15  H   UNL     1       0.103  -1.113   8.208  0.00  0.00    +0.140 HD
ATOM     16  H   UNL     1       1.302  -0.533   7.212  0.00  0.00    +0.140 HD
ENDBRANCH  12  14
ENDBRANCH   5  12
ENDBRANCH   1   4
BRANCH   1  17
ATOM     17  N   UNL     1      -0.402  -3.693   2.992  0.00  0.00    -0.188 NA
ATOM     18  H   UNL     1      -0.758  -4.167   2.225  0.00  0.00    +0.148 HD
BRANCH  17  19
ATOM     19  C   UNL     1       0.044  -2.304   2.853  0.00  0.00    +0.107 C 
BRANCH  19  24
ATOM     20  C   UNL     1      -0.018   1.465   0.010  0.00  0.00    -0.096 C 
ATOM     21  N   UNL     1       0.002  -0.004   0.002  0.00  0.00    +0.378 N 
ATOM     22  C   UNL     1      -1.375  -0.543   0.139  0.00  0.00    -0.079 C 
ATOM     23  C   UNL     1      -1.180  -1.979   0.672  0.00  0.00    -0.016 C 
ATOM     24  C   UNL     1       0.196  -1.964   1.369  0.00  0.00    -0.014 C 
ATOM     25  C   UNL     1       0.716  -0.521   1.198  0.00  0.00    -0.075 C 
ATOM     26  H   UNL     1       0.435  -0.346  -0.843  0.00  0.00    -0.082 HD
ENDBRANCH  19  24
ENDBRANCH  17  19
ENDBRANCH   1  17
TORSDOF 6
