REMARK  Name = ZINC55888103
REMARK  8 active torsions:
REMARK  status: ('A' for Active; 'I' for Inactive)
REMARK    1  A    between atoms: C_4  and  N_23
REMARK    2  A    between atoms: C_5  and  N_7
REMARK    3  A    between atoms: N_7  and  C_8
REMARK    4  A    between atoms: C_8  and  C_9
REMARK    5  A    between atoms: N_11  and  C_12
REMARK    6  A    between atoms: C_15  and  O_18
REMARK    7  A    between atoms: O_18  and  C_19
REMARK    8  A    between atoms: C_26  and  O_29
REMARK                            x       y       z     vdW  Elec       q    Type
REMARK                         _______ _______ _______ _____ _____    ______ ____
ROOT
ATOM      1  N   UNL     1       1.290  -2.087   0.011  0.00  0.00    -0.334 N 
ATOM      2  H   UNL     1       2.128  -2.572  -0.034  0.00  0.00    +0.147 HD
ENDROOT
BRANCH   1   7
ATOM      3  C   UNL     1       0.074   1.372  -0.243  0.00  0.00    +0.002 A 
ATOM      4  C   UNL     1       1.227   2.025  -0.641  0.00  0.00    +0.002 A 
ATOM      5  C   UNL     1       2.400   1.316  -0.823  0.00  0.00    +0.023 A 
ATOM      6  C   UNL     1       2.424  -0.048  -0.607  0.00  0.00    +0.035 A 
ATOM      7  C   UNL     1       1.269  -0.708  -0.208  0.00  0.00    +0.047 A 
ATOM      8  C   UNL     1       0.092   0.008  -0.026  0.00  0.00    +0.025 A 
BRANCH   6   9
ATOM      9  N   UNL     1       3.610  -0.765  -0.792  0.00  0.00    -0.392 NA
ATOM     10  C   UNL     1       4.108  -0.541  -2.155  0.00  0.00    +0.087 C 
ATOM     11  C   UNL     1       5.362  -1.386  -2.389  0.00  0.00    +0.048 C 
ATOM     12  C   UNL     1       6.439  -0.983  -1.377  0.00  0.00    +0.117 C 
ATOM     13  C   UNL     1       5.882  -1.151   0.040  0.00  0.00    +0.048 C 
ATOM     14  C   UNL     1       4.609  -0.314   0.184  0.00  0.00    +0.087 C 
ATOM     15  H   UNL     1       3.432  -1.749  -0.659  0.00  0.00    +0.126 HD
BRANCH  12  16
ATOM     16  O   UNL     1       7.586  -1.819  -1.542  0.00  0.00    -0.392 OA
ATOM     17  H   UNL     1       8.309  -1.620  -0.932  0.00  0.00    +0.210 HD
ENDBRANCH  12  16
ENDBRANCH   6   9
ENDBRANCH   1   7
BRANCH   1  18
ATOM     18  C   UNL     1       0.045  -2.801   0.308  0.00  0.00    +0.198 C 
BRANCH  18  19
ATOM     19  C   UNL     1       0.340  -4.266   0.500  0.00  0.00    +0.234 C 
ATOM     20  O   UNL     1       1.478  -4.674   0.399  0.00  0.00    -0.274 OA
ATOM     21  N   UNL     1      -0.660  -5.123   0.784  0.00  0.00    -0.284 N 
ATOM     22  H   UNL     1      -1.579  -4.811   0.791  0.00  0.00    +0.155 HD
BRANCH  21  23
ATOM     23  C   UNL     1      -0.374  -6.465   1.070  0.00  0.00    +0.034 A 
ATOM     24  C   UNL     1      -1.266  -7.460   0.695  0.00  0.00    +0.027 A 
ATOM     25  C   UNL     1      -0.982  -8.782   0.976  0.00  0.00    +0.048 A 
ATOM     26  C   UNL     1       0.193  -9.115   1.634  0.00  0.00    +0.130 A 
ATOM     27  C   UNL     1       1.084  -8.121   2.009  0.00  0.00    +0.048 A 
ATOM     28  C   UNL     1       0.805  -6.799   1.723  0.00  0.00    +0.027 A 
BRANCH  26  29
ATOM     29  O   UNL     1       0.471 -10.417   1.911  0.00  0.00    -0.406 OA
BRANCH  29  30
ATOM     30  C   UNL     1       1.699 -10.688   2.590  0.00  0.00    +0.575 C 
ATOM     31  F   UNL     1       1.703 -10.031   3.826  0.00  0.00    -0.133 F 
ATOM     32  F   UNL     1       1.825 -12.066   2.794  0.00  0.00    -0.133 F 
ATOM     33  F   UNL     1       2.771 -10.231   1.816  0.00  0.00    -0.133 F 
ENDBRANCH  29  30
ENDBRANCH  26  29
ENDBRANCH  21  23
ENDBRANCH  18  19
ENDBRANCH   1  18
TORSDOF 8
