REMARK  Name = ZINC27237393
REMARK  14 active torsions:
REMARK  status: ('A' for Active; 'I' for Inactive)
REMARK    1  A    between atoms: C_1  and  C_2
REMARK    2  A    between atoms: C_2  and  O_3
REMARK    3  A    between atoms: O_3  and  C_4
REMARK    4  A    between atoms: C_7  and  C_10
REMARK    5  A    between atoms: C_10  and  C_11
REMARK    6  A    between atoms: C_10  and  C_28
REMARK    7  A    between atoms: C_10  and  O_31
REMARK    8  A    between atoms: C_11  and  C_13
REMARK    9  A    between atoms: C_11  and  O_19
REMARK   10  A    between atoms: C_13  and  N_14
REMARK   11  A    between atoms: O_19  and  C_20
REMARK   12  A    between atoms: C_25  and  C_26
REMARK   13  A    between atoms: C_28  and  C_29
REMARK   14  A    between atoms: C_28  and  C_30
REMARK                            x       y       z     vdW  Elec       q    Type
REMARK                         _______ _______ _______ _____ _____    ______ ____
ROOT
ATOM      1  C   UNL     1      -3.102  -6.592   0.340  0.00  0.00    +0.193 C 
ENDROOT
BRANCH   1   2
ATOM      2  C   UNL     1      -2.172  -5.850  -0.623  0.00  0.00    +0.128 C 
BRANCH   2   6
ATOM      3  C   UNL     1      -2.846  -1.643  -0.297  0.00  0.00    +0.121 A 
ATOM      4  C   UNL     1      -1.590  -2.121  -0.642  0.00  0.00    +0.046 A 
ATOM      5  C   UNL     1      -1.375  -3.481  -0.746  0.00  0.00    +0.010 A 
ATOM      6  C   UNL     1      -2.410  -4.367  -0.507  0.00  0.00    -0.012 A 
ATOM      7  C   UNL     1      -3.662  -3.893  -0.164  0.00  0.00    +0.010 A 
ATOM      8  C   UNL     1      -3.881  -2.534  -0.052  0.00  0.00    +0.046 A 
BRANCH   3   9
ATOM      9  O   UNL     1      -3.060  -0.305  -0.193  0.00  0.00    -0.492 OA
BRANCH   9  11
ATOM     10  C   UNL     1      -2.379   2.012  -0.294  0.00  0.00    +0.048 C 
ATOM     11  C   UNL     1      -1.949   0.553  -0.459  0.00  0.00    +0.225 C 
ENDBRANCH   9  11
ENDBRANCH   3   9
ENDBRANCH   2   6
BRANCH   2  12
ATOM     12  C   UNL     1      -2.456  -6.303  -2.056  0.00  0.00    +0.023 C 
ATOM     13  C   UNL     1      -3.911  -5.990  -2.411  0.00  0.00    +0.010 C 
ATOM     14  C   UNL     1      -1.526  -5.561  -3.018  0.00  0.00    +0.010 C 
ENDBRANCH   2  12
BRANCH   2  15
ATOM     15  O   UNL     1      -0.813  -6.142  -0.291  0.00  0.00    -0.380 OA
ATOM     16  H   UNL     1      -0.562  -5.882   0.606  0.00  0.00    +0.211 HD
ENDBRANCH   2  15
ENDBRANCH   1   2
BRANCH   1  17
ATOM     17  C   UNL     1      -2.818  -6.140   1.774  0.00  0.00    -0.030 C 
BRANCH  17  18
ATOM     18  N   UNL     1      -3.817  -6.725   2.678  0.00  0.00    +0.382 N 
ATOM     19  C   UNL     1      -3.581  -8.184   2.826  0.00  0.00    -0.079 C 
ATOM     20  C   UNL     1      -4.285  -8.522   4.164  0.00  0.00    -0.020 C 
ATOM     21  C   UNL     1      -3.988  -7.280   5.035  0.00  0.00    -0.020 C 
ATOM     22  C   UNL     1      -3.673  -6.153   4.035  0.00  0.00    -0.079 C 
ATOM     23  H   UNL     1      -4.747  -6.556   2.326  0.00  0.00    -0.082 HD
ENDBRANCH  17  18
ENDBRANCH   1  17
BRANCH   1  24
ATOM     24  O   UNL     1      -2.877  -7.999   0.231  0.00  0.00    -0.487 OA
BRANCH  24  25
ATOM     25  C   UNL     1      -3.960  -8.779  -0.025  0.00  0.00    +0.124 A 
ATOM     26  C   UNL     1      -5.230  -8.223  -0.034  0.00  0.00    +0.047 A 
ATOM     27  C   UNL     1      -6.330  -9.017  -0.294  0.00  0.00    +0.023 A 
ATOM     28  C   UNL     1      -6.164 -10.368  -0.545  0.00  0.00    +0.041 A 
ATOM     29  C   UNL     1      -4.898 -10.925  -0.536  0.00  0.00    +0.027 A 
ATOM     30  C   UNL     1      -3.795 -10.132  -0.283  0.00  0.00    -0.007 A 
ATOM     31  C   UNL     1      -2.416 -10.738  -0.281  0.00  0.00    +0.047 C 
ATOM     32 CL   UNL     1      -7.548 -11.365  -0.871  0.00  0.00    -0.084 Cl
ENDBRANCH  24  25
ENDBRANCH   1  24
TORSDOF 10
