REMARK  Name = ZINC38959021
REMARK  7 active torsions:
REMARK  status: ('A' for Active; 'I' for Inactive)
REMARK    1  A    between atoms: C_1  and  C_2
REMARK    2  A    between atoms: C_8  and  C_14
REMARK    3  A    between atoms: C_14  and  N_15
REMARK    4  A    between atoms: N_15  and  C_16
REMARK    5  A    between atoms: C_19  and  O_22
REMARK    6  A    between atoms: O_22  and  C_23
REMARK    7  A    between atoms: C_24  and  C_26
REMARK                            x       y       z     vdW  Elec       q    Type
REMARK                         _______ _______ _______ _____ _____    ______ ____
ROOT
ATOM      1  N   UNL     1       2.000  -2.154   6.029  0.00  0.00    -0.266 N 
ATOM      2  C   UNL     1       1.987  -0.807   5.986  0.00  0.00    +0.252 C 
ATOM      3  O   UNL     1       1.454  -0.176   6.877  0.00  0.00    -0.270 OA
ENDROOT
BRANCH   2   4
ATOM      4  C   UNL     1       2.622  -0.098   4.856  0.00  0.00    +0.051 A 
ATOM      5  C   UNL     1       2.572  -0.640   3.570  0.00  0.00    +0.014 A 
ATOM      6  C   UNL     1       3.166   0.027   2.520  0.00  0.00    +0.001 A 
ATOM      7  C   UNL     1       3.811   1.232   2.737  0.00  0.00    +0.001 A 
ATOM      8  C   UNL     1       3.865   1.776   4.007  0.00  0.00    +0.016 A 
ATOM      9  C   UNL     1       3.270   1.121   5.067  0.00  0.00    +0.030 A 
ATOM     10 BR   UNL     1       3.338   1.870   6.803  0.00  0.00    -0.050 Br
ENDBRANCH   2   4
BRANCH   1  11
ATOM     11  C   UNL     1       1.341  -2.828   7.064  0.00  0.00    +0.037 A 
ATOM     12  C   UNL     1       1.508  -4.198   7.218  0.00  0.00    +0.027 A 
ATOM     13  C   UNL     1       0.858  -4.862   8.239  0.00  0.00    +0.047 A 
ATOM     14  C   UNL     1       0.039  -4.161   9.113  0.00  0.00    +0.120 A 
ATOM     15  C   UNL     1      -0.127  -2.792   8.960  0.00  0.00    +0.047 A 
ATOM     16  C   UNL     1       0.526  -2.126   7.942  0.00  0.00    +0.027 A 
BRANCH  14  17
ATOM     17  O   UNL     1      -0.601  -4.815  10.118  0.00  0.00    -0.495 OA
ATOM     18  C   UNL     1      -1.428  -4.031  10.980  0.00  0.00    +0.277 C 
ENDBRANCH  14  17
ENDBRANCH   1  11
BRANCH   1  19
ATOM     19  C   UNL     1       2.703  -2.914   4.992  0.00  0.00    +0.131 C 
BRANCH  19  27
ATOM     20  C   UNL     1      -0.480  -2.974  -0.256  0.00  0.00    +0.045 C 
ATOM     21  C   UNL     1       0.666  -3.826   0.225  0.00  0.00    -0.029 A 
ATOM     22  C   UNL     1       1.361  -4.585  -0.662  0.00  0.00    +0.005 A 
ATOM     23  C   UNL     1       2.432  -5.395  -0.283  0.00  0.00    +0.001 A 
ATOM     24  C   UNL     1       2.841  -5.468   1.010  0.00  0.00    +0.009 A 
ATOM     25  C   UNL     1       2.135  -4.677   2.018  0.00  0.00    -0.007 A 
ATOM     26  C   UNL     1       2.510  -4.719   3.329  0.00  0.00    -0.003 C 
ATOM     27  C   UNL     1       1.723  -3.867   4.304  0.00  0.00    +0.116 C 
ATOM     28  C   UNL     1       0.587  -3.040   3.746  0.00  0.00    +0.226 C 
ATOM     29  O   UNL     1      -0.077  -2.337   4.484  0.00  0.00    -0.275 OA
ATOM     30  N   UNL     1       0.319  -3.083   2.452  0.00  0.00    -0.284 N 
ATOM     31  C   UNL     1       1.012  -3.826   1.589  0.00  0.00    +0.043 A 
ATOM     32  H   UNL     1      -0.414  -2.544   2.113  0.00  0.00    +0.155 HD
ENDBRANCH  19  27
ENDBRANCH   1  19
TORSDOF 5
