REMARK  Name = ZINC09101429
REMARK  12 active torsions:
REMARK  status: ('A' for Active; 'I' for Inactive)
REMARK    1  A    between atoms: C_1  and  C_2
REMARK    2  A    between atoms: C_4  and  C_31
REMARK    3  A    between atoms: C_5  and  N_9
REMARK    4  A    between atoms: C_10  and  C_12
REMARK    5  A    between atoms: C_12  and  S_13
REMARK    6  A    between atoms: S_13  and  C_14
REMARK    7  A    between atoms: C_17  and  C_26
REMARK    8  A    between atoms: N_18  and  C_19
REMARK    9  A    between atoms: C_26  and  C_28
REMARK   10  A    between atoms: C_26  and  N_56
REMARK   11  A    between atoms: C_29  and  N_56
REMARK   12  A    between atoms: C_30  and  N_56
REMARK                            x       y       z     vdW  Elec       q    Type
REMARK                         _______ _______ _______ _____ _____    ______ ____
ROOT
ATOM      1  C   UNL     1      -4.817   5.648   3.338  0.00  0.00    +0.197 A 
ATOM      2  N   UNL     1      -4.345   4.425   3.407  0.00  0.00    -0.122 NA
ATOM      3  N   UNL     1      -4.162   3.959   2.223  0.00  0.00    -0.135 NA
ATOM      4  C   UNL     1      -4.496   4.851   1.333  0.00  0.00    +0.125 A 
ATOM      5  N   UNL     1      -4.929   5.960   2.011  0.00  0.00    -0.275 N 
ENDROOT
BRANCH   5   6
ATOM      6  C   UNL     1      -5.391   7.164   1.458  0.00  0.00    +0.050 A 
ATOM      7  C   UNL     1      -4.528   7.970   0.729  0.00  0.00    +0.028 A 
ATOM      8  C   UNL     1      -4.986   9.152   0.181  0.00  0.00    +0.022 A 
ATOM      9  C   UNL     1      -6.302   9.539   0.369  0.00  0.00    +0.041 A 
ATOM     10  C   UNL     1      -7.162   8.739   1.100  0.00  0.00    +0.022 A 
ATOM     11  C   UNL     1      -6.710   7.553   1.645  0.00  0.00    +0.028 A 
ATOM     12 CL   UNL     1      -6.873  11.028  -0.314  0.00  0.00    -0.084 Cl
ENDBRANCH   5   6
BRANCH   4  13
ATOM     13  C   UNL     1      -4.425   4.689  -0.163  0.00  0.00    -0.003 C 
ATOM     14  C   UNL     1      -5.566   3.786  -0.634  0.00  0.00    -0.005 C 
BRANCH  13  17
ATOM     15  C   UNL     1      -3.033   3.910  -1.985  0.00  0.00    -0.096 C 
ATOM     16  C   UNL     1      -2.015   4.876  -0.011  0.00  0.00    -0.096 C 
ATOM     17  N   UNL     1      -3.136   4.057  -0.518  0.00  0.00    +0.382 N 
ATOM     18  H   UNL     1      -3.091   3.127  -0.085  0.00  0.00    -0.082 HD
ENDBRANCH  13  17
ENDBRANCH   4  13
BRANCH   1  19
ATOM     19  S   UNL     1      -5.228   6.691   4.697  0.00  0.00    -0.076 S 
BRANCH  19  20
ATOM     20  C   UNL     1      -4.813   5.591   6.074  0.00  0.00    +0.173 C 
BRANCH  20  22
ATOM     21  N   UNL     1      -4.856   5.662   8.546  0.00  0.00    -0.283 N 
ATOM     22  C   UNL     1      -5.091   6.292   7.378  0.00  0.00    +0.228 C 
ATOM     23  O   UNL     1      -5.529   7.424   7.378  0.00  0.00    -0.275 OA
ATOM     24  H   UNL     1      -4.576   4.733   8.548  0.00  0.00    +0.155 HD
BRANCH  21  29
ATOM     25  C   UNL     1      -5.497   8.441  13.451  0.00  0.00    +0.044 C 
ATOM     26  C   UNL     1      -5.326   7.703  12.149  0.00  0.00    -0.049 A 
ATOM     27  C   UNL     1      -6.370   6.954  11.638  0.00  0.00    +0.008 A 
ATOM     28  C   UNL     1      -6.217   6.276  10.444  0.00  0.00    -0.028 A 
ATOM     29  C   UNL     1      -5.013   6.348   9.756  0.00  0.00    +0.055 A 
ATOM     30  C   UNL     1      -3.964   7.097  10.274  0.00  0.00    +0.063 A 
ATOM     31  C   UNL     1      -4.126   7.777  11.466  0.00  0.00    +0.025 A 
ATOM     32 CL   UNL     1      -2.454   7.184   9.421  0.00  0.00    -0.082 Cl
ATOM     33  C   UNL     1      -7.356   5.460   9.889  0.00  0.00    +0.046 C 
ENDBRANCH  21  29
ENDBRANCH  20  22
ENDBRANCH  19  20
ENDBRANCH   1  19
TORSDOF 7
