REMARK  Name = ZINC50035539
REMARK  6 active torsions:
REMARK  status: ('A' for Active; 'I' for Inactive)
REMARK    1  A    between atoms: C_3  and  C_19
REMARK    2  A    between atoms: C_5  and  O_7
REMARK    3  A    between atoms: O_7  and  C_8
REMARK    4  A    between atoms: C_10  and  C_16
REMARK    5  A    between atoms: C_11  and  N_15
REMARK    6  A    between atoms: C_19  and  O_20
REMARK                            x       y       z     vdW  Elec       q    Type
REMARK                         _______ _______ _______ _____ _____    ______ ____
ROOT
ATOM      1  C   UNL     1       0.063  -2.716   0.115  0.00  0.00    +0.164 A 
ATOM      2  C   UNL     1      -1.109  -1.985   0.107  0.00  0.00    +0.064 A 
ATOM      3  C   UNL     1      -2.340  -2.640   0.198  0.00  0.00    +0.061 A 
ATOM      4  C   UNL     1      -2.377  -4.040   0.296  0.00  0.00    +0.040 A 
ATOM      5  C   UNL     1      -1.191  -4.762   0.303  0.00  0.00    +0.065 A 
ATOM      6  C   UNL     1       0.021  -4.105   0.208  0.00  0.00    +0.167 A 
ATOM      7  F   UNL     1       1.171  -4.814   0.209  0.00  0.00    -0.202 F 
ENDROOT
BRANCH   3   8
ATOM      8  C   UNL     1      -3.593  -1.866   0.190  0.00  0.00    +0.243 C 
ATOM      9  O   UNL     1      -4.656  -2.426   0.380  0.00  0.00    -0.270 OA
ATOM     10  N   UNL     1      -3.562  -0.536  -0.027  0.00  0.00    -0.325 N 
ATOM     11  H   UNL     1      -2.715  -0.089  -0.179  0.00  0.00    +0.145 HD
ATOM     12  H   UNL     1      -4.387  -0.026  -0.032  0.00  0.00    +0.145 HD
ENDBRANCH   3   8
BRANCH   4  13
ATOM     13  N   UNL     1      -3.597  -4.702   0.387  0.00  0.00    -0.357 N 
ATOM     14  H   UNL     1      -4.420  -4.193   0.465  0.00  0.00    +0.142 HD
ATOM     15  H   UNL     1      -3.625  -5.671   0.373  0.00  0.00    +0.142 HD
ENDBRANCH   4  13
BRANCH   1  16
ATOM     16  O   UNL     1       1.261  -2.079   0.026  0.00  0.00    -0.453 OA
BRANCH  16  21
ATOM     17  C   UNL     1       0.907   1.328   1.254  0.00  0.00    +0.004 A 
ATOM     18  C   UNL     1       1.271   2.046   0.129  0.00  0.00    +0.006 A 
ATOM     19  C   UNL     1       1.631   1.383  -1.030  0.00  0.00    -0.019 A 
ATOM     20  C   UNL     1       1.629   0.002  -1.067  0.00  0.00    +0.052 A 
ATOM     21  C   UNL     1       1.265  -0.720   0.060  0.00  0.00    +0.129 A 
ATOM     22  C   UNL     1       0.904  -0.053   1.223  0.00  0.00    +0.046 A 
BRANCH  19  23
ATOM     23  C   UNL     1       2.027   2.169  -2.253  0.00  0.00    +0.191 C 
BRANCH  23  24
ATOM     24  O   UNL     1       3.436   2.404  -2.234  0.00  0.00    -0.390 OA
ATOM     25  H   UNL     1       3.762   2.906  -2.993  0.00  0.00    +0.210 HD
ENDBRANCH  23  24
ENDBRANCH  19  23
ENDBRANCH  16  21
ENDBRANCH   1  16
TORSDOF 6
