REMARK  Name = ZINC09502554
REMARK  7 active torsions:
REMARK  status: ('A' for Active; 'I' for Inactive)
REMARK    1  A    between atoms: C_1  and  O_2
REMARK    2  A    between atoms: O_2  and  C_3
REMARK    3  A    between atoms: C_6  and  C_9
REMARK    4  A    between atoms: C_14  and  C_15
REMARK    5  A    between atoms: C_14  and  N_46
REMARK    6  A    between atoms: N_17  and  C_18
REMARK    7  A    between atoms: C_19  and  C_23
REMARK                            x       y       z     vdW  Elec       q    Type
REMARK                         _______ _______ _______ _____ _____    ______ ____
ROOT
ATOM      1  C   UNL     1      -4.961   2.003   0.040  0.00  0.00    +0.020 C 
ENDROOT
BRANCH   1   6
ATOM      2  C   UNL     1      -7.267   2.672  -0.306  0.00  0.00    -0.037 C 
ATOM      3  C   UNL     1      -8.201   3.076   0.854  0.00  0.00    -0.013 C 
ATOM      4  C   UNL     1      -7.428   4.233   1.539  0.00  0.00    -0.020 C 
ATOM      5  C   UNL     1      -5.960   3.765   1.380  0.00  0.00    -0.077 C 
ATOM      6  N   UNL     1      -5.915   3.143   0.044  0.00  0.00    +0.390 N 
ATOM      7  H   UNL     1      -5.608   3.839  -0.645  0.00  0.00    -0.080 HD
BRANCH   2  11
ATOM      8  C   UNL     1      -7.304  -1.574  -0.791  0.00  0.00    +0.120 A 
ATOM      9  C   UNL     1      -7.037  -1.019   0.452  0.00  0.00    +0.046 A 
ATOM     10  C   UNL     1      -7.025   0.354   0.606  0.00  0.00    +0.005 A 
ATOM     11  C   UNL     1      -7.280   1.175  -0.477  0.00  0.00    -0.061 A 
ATOM     12  C   UNL     1      -7.552   0.624  -1.716  0.00  0.00    +0.005 A 
ATOM     13  C   UNL     1      -7.559  -0.748  -1.877  0.00  0.00    +0.046 A 
BRANCH   8  15
ATOM     14  C   UNL     1      -7.599  -3.425  -2.253  0.00  0.00    +0.277 C 
ATOM     15  O   UNL     1      -7.316  -2.924  -0.945  0.00  0.00    -0.495 OA
ENDBRANCH   8  15
ENDBRANCH   2  11
ENDBRANCH   1   6
BRANCH   1  16
ATOM     16  C   UNL     1      -3.552   2.536   0.022  0.00  0.00    +0.201 C 
ATOM     17  O   UNL     1      -3.357   3.733   0.018  0.00  0.00    -0.278 OA
ATOM     18  N   UNL     1      -2.509   1.683   0.012  0.00  0.00    -0.281 N 
ATOM     19  H   UNL     1      -2.665   0.726   0.016  0.00  0.00    +0.155 HD
BRANCH  18  20
ATOM     20  C   UNL     1      -1.212   2.174  -0.004  0.00  0.00    +0.084 A 
ATOM     21  C   UNL     1      -0.019   1.460  -0.016  0.00  0.00    +0.065 A 
ATOM     22  C   UNL     1       1.200   2.234  -0.038  0.00  0.00    +0.022 A 
ATOM     23  C   UNL     1       1.077   3.574  -0.040  0.00  0.00    +0.048 A 
ATOM     24  S   UNL     1      -0.686   3.823  -0.011  0.00  0.00    -0.081 S 
BRANCH  21  25
ATOM     25  C   UNL     1       0.001  -0.006  -0.013  0.00  0.00    +0.244 C 
ATOM     26  O   UNL     1      -1.045  -0.628   0.005  0.00  0.00    -0.270 OA
ATOM     27  N   UNL     1       1.177  -0.664  -0.031  0.00  0.00    -0.325 N 
ATOM     28  H   UNL     1       2.010  -0.168  -0.046  0.00  0.00    +0.145 HD
ATOM     29  H   UNL     1       1.190  -1.634  -0.029  0.00  0.00    +0.145 HD
ENDBRANCH  21  25
ENDBRANCH  18  20
ENDBRANCH   1  16
TORSDOF 6
