REMARK  Name = ZINC32424849
REMARK  12 active torsions:
REMARK  status: ('A' for Active; 'I' for Inactive)
REMARK    1  A    between atoms: C_1  and  C_2
REMARK    2  A    between atoms: C_2  and  C_3
REMARK    3  A    between atoms: C_6  and  C_9
REMARK    4  A    between atoms: C_9  and  C_11
REMARK    5  A    between atoms: C_9  and  N_30
REMARK    6  A    between atoms: C_11  and  N_12
REMARK    7  A    between atoms: C_13  and  C_15
REMARK    8  A    between atoms: C_15  and  C_16
REMARK    9  A    between atoms: C_16  and  N_17
REMARK   10  A    between atoms: C_18  and  C_20
REMARK   11  A    between atoms: N_30  and  C_31
REMARK   12  A    between atoms: N_30  and  C_32
REMARK                            x       y       z     vdW  Elec       q    Type
REMARK                         _______ _______ _______ _____ _____    ______ ____
ROOT
ATOM      1  N   UNL     1      -1.258   1.249  -0.786  0.00  0.00    -0.316 N 
ATOM      2  C   UNL     1      -1.018   0.887  -2.062  0.00  0.00    +0.214 C 
ATOM      3  O   UNL     1       0.091   0.522  -2.390  0.00  0.00    -0.276 OA
ATOM      4  H   UNL     1      -2.264   1.580  -0.489  0.00  0.00    +0.149 HD
ENDROOT
BRANCH   1   5
ATOM      5  C   UNL     1      -0.179   1.203   0.204  0.00  0.00    +0.093 C 
BRANCH   5   6
ATOM      6  C   UNL     1      -0.666   1.819   1.517  0.00  0.00    -0.021 C 
BRANCH   6  10
ATOM      7  C   UNL     1       2.411   1.502   4.463  0.00  0.00    -0.048 A 
ATOM      8  C   UNL     1       1.319   0.656   4.511  0.00  0.00    +0.004 A 
ATOM      9  C   UNL     1       0.323   0.758   3.558  0.00  0.00    +0.002 A 
ATOM     10  C   UNL     1       0.419   1.707   2.557  0.00  0.00    -0.059 A 
ATOM     11  C   UNL     1       1.514   2.549   2.506  0.00  0.00    +0.002 A 
ATOM     12  C   UNL     1       2.507   2.450   3.462  0.00  0.00    +0.004 A 
BRANCH   7  14
ATOM     13  C   UNL     1       4.563   0.403   5.022  0.00  0.00    +0.009 C 
ATOM     14  C   UNL     1       3.497   1.390   5.502  0.00  0.00    +0.032 C 
ENDBRANCH   7  14
ENDBRANCH   6  10
BRANCH   6  15
ATOM     15  N   UNL     1      -0.995   3.234   1.302  0.00  0.00    +0.382 N 
ATOM     16  C   UNL     1      -0.207   3.796   0.197  0.00  0.00    -0.096 C 
ATOM     17  C   UNL     1      -2.434   3.410   1.067  0.00  0.00    -0.096 C 
ATOM     18  H   UNL     1      -0.732   3.784   2.218  0.00  0.00    -0.082 HD
ENDBRANCH   6  15
ENDBRANCH   5   6
ENDBRANCH   1   5
BRANCH   2  19
ATOM     19  C   UNL     1      -2.127   0.934  -3.081  0.00  0.00    +0.114 C 
BRANCH  19  20
ATOM     20  C   UNL     1      -1.593   0.476  -4.439  0.00  0.00    +0.113 C 
BRANCH  20  21
ATOM     21  N   UNL     1      -2.671   0.522  -5.429  0.00  0.00    -0.314 N 
ATOM     22  C   UNL     1      -2.431   0.159  -6.705  0.00  0.00    +0.219 C 
ATOM     23  O   UNL     1      -1.322  -0.205  -7.033  0.00  0.00    -0.275 OA
ATOM     24  H   UNL     1      -3.678   0.853  -5.132  0.00  0.00    +0.149 HD
BRANCH  22  25
ATOM     25  C   UNL     1      -3.541   0.207  -7.723  0.00  0.00    +0.048 C 
ATOM     26  C   UNL     1      -4.677  -0.719  -7.284  0.00  0.00    +0.019 C 
ATOM     27  C   UNL     1      -5.803  -0.670  -8.318  0.00  0.00    -0.009 C 
ATOM     28  C   UNL     1      -5.269  -1.129  -9.676  0.00  0.00    +0.007 C 
ATOM     29  C   UNL     1      -4.133  -0.203 -10.116  0.00  0.00    -0.009 C 
ATOM     30  C   UNL     1      -3.006  -0.251  -9.082  0.00  0.00    +0.019 C 
ATOM     31  C   UNL     1      -4.658   1.229 -10.231  0.00  0.00    +0.007 C 
ATOM     32  C   UNL     1      -5.192   1.688  -8.873  0.00  0.00    -0.009 C 
ATOM     33  C   UNL     1      -6.329   0.762  -8.433  0.00  0.00    +0.007 C 
ATOM     34  C   UNL     1      -4.066   1.639  -7.839  0.00  0.00    +0.019 C 
ENDBRANCH  22  25
ENDBRANCH  20  21
ENDBRANCH  19  20
ENDBRANCH   2  19
TORSDOF 9
