REMARK  Name = ZINC45842378
REMARK  10 active torsions:
REMARK  status: ('A' for Active; 'I' for Inactive)
REMARK    1  A    between atoms: C_1  and  C_2
REMARK    2  A    between atoms: C_11  and  N_34
REMARK    3  A    between atoms: C_13  and  C_15
REMARK    4  A    between atoms: C_15  and  S_16
REMARK    5  A    between atoms: S_16  and  C_17
REMARK    6  A    between atoms: C_20  and  C_29
REMARK    7  A    between atoms: N_21  and  C_22
REMARK    8  A    between atoms: C_22  and  C_23
REMARK    9  A    between atoms: C_29  and  C_30
REMARK   10  A    between atoms: C_30  and  C_31
REMARK                            x       y       z     vdW  Elec       q    Type
REMARK                         _______ _______ _______ _____ _____    ______ ____
ROOT
ATOM      1  S   UNL     1       0.481  -9.171   1.466  0.00  0.00    -0.078 S 
ENDROOT
BRANCH   1   2
ATOM      2  C   UNL     1       0.318 -10.745   2.240  0.00  0.00    +0.192 A 
ATOM      3  N   UNL     1      -0.374 -11.015   3.323  0.00  0.00    -0.122 NA
ATOM      4  N   UNL     1      -0.273 -12.264   3.606  0.00  0.00    -0.134 NA
ATOM      5  C   UNL     1       0.483 -12.862   2.729  0.00  0.00    +0.135 A 
ATOM      6  N   UNL     1       0.881 -11.917   1.824  0.00  0.00    -0.303 N 
BRANCH   6   7
ATOM      7  C   UNL     1       1.738 -12.120   0.653  0.00  0.00    +0.157 C 
BRANCH   7   8
ATOM      8  C   UNL     1       3.201 -11.917   1.050  0.00  0.00    +0.138 C 
ATOM      9  C   UNL     1       4.131 -12.215  -0.153  0.00  0.00    +0.035 C 
ATOM     10  C   UNL     1       5.378 -11.368   0.221  0.00  0.00    +0.031 C 
ATOM     11  C   UNL     1       4.746 -10.150   0.930  0.00  0.00    +0.160 C 
ATOM     12  O   UNL     1       3.442 -10.540   1.380  0.00  0.00    -0.375 OA
ENDBRANCH   7   8
ENDBRANCH   6   7
BRANCH   5  13
ATOM     13  C   UNL     1       0.845 -14.325   2.711  0.00  0.00    +0.085 C 
BRANCH  13  14
ATOM     14  C   UNL     1      -0.193 -15.097   1.894  0.00  0.00    +0.103 C 
BRANCH  14  15
ATOM     15  C   UNL     1       0.170 -16.560   1.877  0.00  0.00    +0.211 C 
ATOM     16  O   UNL     1       1.160 -16.946   2.460  0.00  0.00    -0.276 OA
ATOM     17  N   UNL     1      -0.607 -17.439   1.212  0.00  0.00    -0.329 N 
ATOM     18  H   UNL     1      -1.399 -17.130   0.746  0.00  0.00    +0.145 HD
ATOM     19  H   UNL     1      -0.374 -18.380   1.201  0.00  0.00    +0.145 HD
ENDBRANCH  14  15
ENDBRANCH  13  14
ENDBRANCH   5  13
ENDBRANCH   1   2
BRANCH   1  20
ATOM     20  C   UNL     1      -0.502  -8.063   2.513  0.00  0.00    +0.153 C 
BRANCH  20  32
ATOM     21  C   UNL     1       0.591   1.266  -0.734  0.00  0.00    +0.008 C 
ATOM     22  C   UNL     1       0.464  -0.251  -0.580  0.00  0.00    -0.009 C 
ATOM     23  C   UNL     1      -1.014  -0.634  -0.460  0.00  0.00    +0.008 C 
ATOM     24  C   UNL     1      -1.166  -2.152  -0.556  0.00  0.00    +0.037 C 
ATOM     25  C   UNL     1      -0.236  -2.807   0.463  0.00  0.00    -0.025 A 
ATOM     26  C   UNL     1       0.801  -2.118   0.989  0.00  0.00    -0.004 A 
ATOM     27  S   UNL     1       1.596  -3.248   2.103  0.00  0.00    -0.073 S 
ATOM     28  C   UNL     1       0.540  -4.640   1.865  0.00  0.00    +0.114 A 
ATOM     29  C   UNL     1      -0.407  -4.177   0.916  0.00  0.00    +0.051 A 
ATOM     30  C   UNL     1      -1.416  -5.098   0.513  0.00  0.00    +0.128 A 
ATOM     31  N   UNL     1      -1.360  -6.304   1.076  0.00  0.00    -0.216 NA
ATOM     32  C   UNL     1      -0.446  -6.664   1.955  0.00  0.00    +0.143 A 
ATOM     33  N   UNL     1       0.521  -5.856   2.373  0.00  0.00    -0.224 NA
ATOM     34  C   UNL     1       1.197  -0.704   0.691  0.00  0.00    +0.046 C 
BRANCH  30  35
ATOM     35  N   UNL     1      -2.393  -4.761  -0.406  0.00  0.00    -0.343 N 
ATOM     36  H   UNL     1      -2.279  -3.981  -0.971  0.00  0.00    +0.144 HD
ATOM     37  H   UNL     1      -3.193  -5.304  -0.484  0.00  0.00    +0.144 HD
ENDBRANCH  30  35
ENDBRANCH  20  32
ENDBRANCH   1  20
TORSDOF 9
