REMARK  Name = ZINC20759847
REMARK  8 active torsions:
REMARK  status: ('A' for Active; 'I' for Inactive)
REMARK    1  A    between atoms: C_1  and  C_2
REMARK    2  A    between atoms: C_2  and  C_4
REMARK    3  A    between atoms: C_2  and  N_21
REMARK    4  A    between atoms: C_22  and  C_24
REMARK    5  A    between atoms: C_26  and  O_32
REMARK    6  A    between atoms: C_28  and  O_30
REMARK    7  A    between atoms: O_30  and  C_31
REMARK    8  A    between atoms: O_32  and  C_33
REMARK                            x       y       z     vdW  Elec       q    Type
REMARK                         _______ _______ _______ _____ _____    ______ ____
ROOT
ATOM      1  C   UNL     1       0.609  -0.451  -1.303  0.00  0.00    +0.236 C 
ATOM      2  O   UNL     1       1.567  -1.195  -1.302  0.00  0.00    -0.274 OA
ATOM      3  N   UNL     1       0.088  -0.024  -2.470  0.00  0.00    -0.300 N 
ATOM      4  C   UNL     1      -0.997   0.967  -2.488  0.00  0.00    +0.110 C 
ATOM      5  C   UNL     1      -0.582   2.136  -3.387  0.00  0.00    +0.047 C 
ATOM      6  C   UNL     1      -0.194   1.602  -4.766  0.00  0.00    +0.064 C 
ATOM      7  C   UNL     1       0.992   0.645  -4.636  0.00  0.00    +0.047 C 
ATOM      8  C   UNL     1       0.598  -0.535  -3.750  0.00  0.00    +0.110 C 
ATOM      9  C   UNL     1       0.174   2.748  -5.670  0.00  0.00    +0.057 A 
ATOM     10  C   UNL     1      -0.244   2.857  -6.951  0.00  0.00    +0.039 A 
ATOM     11  N   UNL     1       0.259   3.984  -7.455  0.00  0.00    -0.349 N 
ATOM     12  C   UNL     1       0.977   4.580  -6.538  0.00  0.00    +0.171 A 
ATOM     13  N   UNL     1       0.947   3.835  -5.408  0.00  0.00    -0.348 N 
ATOM     14  H   UNL     1       1.392   4.039  -4.571  0.00  0.00    +0.166 HD
ATOM     15  C   UNL     1      -1.126   1.831  -7.618  0.00  0.00    +0.070 C 
ATOM     16  C   UNL     1      -1.090   0.553  -6.768  0.00  0.00    +0.088 C 
ATOM     17  N   UNL     1      -1.338   0.890  -5.358  0.00  0.00    -0.305 NA
ATOM     18  H   UNL     1      -1.566   0.065  -4.824  0.00  0.00    +0.123 HD
ATOM     19  H   UNL     1       0.117   4.309  -8.358  0.00  0.00    +0.166 HD
ENDROOT
BRANCH   1  21
ATOM     20  C   UNL     1       0.621   1.331   0.422  0.00  0.00    +0.038 C 
ATOM     21  C   UNL     1       0.002  -0.004   0.002  0.00  0.00    +0.156 C 
BRANCH  21  22
ATOM     22  N   UNL     1       0.266  -1.011   1.033  0.00  0.00    -0.300 N 
ATOM     23  C   UNL     1      -0.553  -1.114   2.099  0.00  0.00    +0.245 C 
ATOM     24  O   UNL     1      -1.510  -0.372   2.204  0.00  0.00    -0.270 OA
ATOM     25  H   UNL     1       1.030  -1.603   0.949  0.00  0.00    +0.150 HD
BRANCH  23  26
ATOM     26  C   UNL     1      -0.287  -2.130   3.140  0.00  0.00    +0.044 A 
ATOM     27  C   UNL     1       0.815  -2.978   3.024  0.00  0.00    +0.059 A 
ATOM     28  C   UNL     1       1.060  -3.928   4.002  0.00  0.00    +0.124 A 
ATOM     29  C   UNL     1       0.213  -4.037   5.095  0.00  0.00    +0.091 A 
ATOM     30  C   UNL     1      -0.883  -3.195   5.214  0.00  0.00    +0.124 A 
ATOM     31  C   UNL     1      -1.133  -2.239   4.244  0.00  0.00    +0.059 A 
BRANCH  30  32
ATOM     32  O   UNL     1      -1.710  -3.306   6.287  0.00  0.00    -0.495 OA
ATOM     33  C   UNL     1      -1.390  -4.310   7.252  0.00  0.00    +0.277 C 
ENDBRANCH  30  32
BRANCH  28  34
ATOM     34  O   UNL     1       2.133  -4.755   3.890  0.00  0.00    -0.495 OA
ATOM     35  C   UNL     1       2.327  -5.712   4.934  0.00  0.00    +0.277 C 
ENDBRANCH  28  34
ENDBRANCH  23  26
ENDBRANCH  21  22
ENDBRANCH   1  21
TORSDOF 5
