REMARK  Name = ZINC42117441
REMARK  8 active torsions:
REMARK  status: ('A' for Active; 'I' for Inactive)
REMARK    1  A    between atoms: C_1  and  C_2
REMARK    2  A    between atoms: C_11  and  N_13
REMARK    3  A    between atoms: N_13  and  C_14
REMARK    4  A    between atoms: C_14  and  C_15
REMARK    5  A    between atoms: C_15  and  C_16
REMARK    6  A    between atoms: C_16  and  O_17
REMARK    7  A    between atoms: O_17  and  C_18
REMARK    8  A    between atoms: C_18  and  C_19
REMARK                            x       y       z     vdW  Elec       q    Type
REMARK                         _______ _______ _______ _____ _____    ______ ____
ROOT
ATOM      1  C   UNL     1      -0.018   1.503   0.010  0.00  0.00    +0.046 C 
ATOM      2  C   UNL     1       0.002  -0.004   0.002  0.00  0.00    -0.028 A 
ATOM      3  C   UNL     1       0.006  -0.686  -1.198  0.00  0.00    +0.020 A 
ATOM      4  C   UNL     1       0.024  -2.069  -1.216  0.00  0.00    +0.018 A 
ATOM      5  C   UNL     1       0.039  -2.773  -0.023  0.00  0.00    +0.019 A 
ATOM      6  C   UNL     1       0.036  -2.095   1.175  0.00  0.00    -0.030 A 
ATOM      7  C   UNL     1       0.023  -0.706   1.206  0.00  0.00    +0.038 A 
ATOM      8  N   UNL     1       0.029  -0.253   2.526  0.00  0.00    -0.286 N 
ATOM      9  C   UNL     1       0.051  -1.264   3.410  0.00  0.00    +0.208 C 
ATOM     10  O   UNL     1       0.061  -1.163   4.619  0.00  0.00    -0.277 OA
ATOM     11  C   UNL     1       0.049  -2.552   2.615  0.00  0.00    +0.049 C 
ATOM     12 BR   UNL     1       0.028  -2.996  -2.864  0.00  0.00    -0.050 Br
ATOM     13  H   UNL     1       0.019   0.685   2.776  0.00  0.00    +0.155 HD
ENDROOT
BRANCH  11  14
ATOM     14  N   UNL     1      -1.146  -3.352   2.912  0.00  0.00    +0.389 N 
ATOM     15  H   UNL     1      -1.968  -2.772   2.832  0.00  0.00    -0.084 HD
ATOM     16  H   UNL     1      -1.210  -4.117   2.257  0.00  0.00    -0.084 HD
BRANCH  14  17
ATOM     17  C   UNL     1      -1.053  -3.884   4.278  0.00  0.00    -0.079 C 
BRANCH  17  18
ATOM     18  C   UNL     1      -2.298  -4.718   4.587  0.00  0.00    +0.009 C 
BRANCH  18  19
ATOM     19  C   UNL     1      -2.201  -5.271   6.010  0.00  0.00    +0.158 C 
BRANCH  19  20
ATOM     20  O   UNL     1      -3.364  -6.050   6.299  0.00  0.00    -0.380 OA
BRANCH  20  21
ATOM     21  C   UNL     1      -3.373  -6.616   7.611  0.00  0.00    +0.163 C 
BRANCH  21  22
ATOM     22  C   UNL     1      -4.658  -7.424   7.808  0.00  0.00    +0.015 C 
ATOM     23  C   UNL     1      -5.635  -6.945   8.884  0.00  0.00    +0.006 C 
ATOM     24  C   UNL     1      -4.804  -8.209   9.113  0.00  0.00    +0.006 C 
ENDBRANCH  21  22
ENDBRANCH  20  21
ENDBRANCH  19  20
ENDBRANCH  18  19
ENDBRANCH  17  18
ENDBRANCH  14  17
ENDBRANCH  11  14
TORSDOF 7
