REMARK  Name = ZINC09199409
REMARK  6 active torsions:
REMARK  status: ('A' for Active; 'I' for Inactive)
REMARK    1  A    between atoms: C_6  and  C_7
REMARK    2  A    between atoms: N_9  and  C_10
REMARK    3  A    between atoms: C_10  and  N_12
REMARK    4  A    between atoms: N_12  and  C_13
REMARK    5  A    between atoms: C_16  and  S_19
REMARK    6  A    between atoms: S_19  and  N_22
REMARK                            x       y       z     vdW  Elec       q    Type
REMARK                         _______ _______ _______ _____ _____    ______ ____
ROOT
ATOM      1  C   UNL     1      -2.392   3.574   3.810  0.00  0.00    +0.033 A 
ATOM      2  C   UNL     1      -2.135   2.211   3.740  0.00  0.00    +0.025 A 
ATOM      3  C   UNL     1      -1.310   1.716   2.750  0.00  0.00    +0.031 A 
ATOM      4  C   UNL     1      -0.740   2.575   1.828  0.00  0.00    +0.111 A 
ATOM      5  C   UNL     1      -0.991   3.934   1.898  0.00  0.00    +0.031 A 
ATOM      6  C   UNL     1      -1.819   4.435   2.883  0.00  0.00    +0.025 A 
ENDROOT
BRANCH   4   7
ATOM      7  S   UNL     1       0.312   1.940   0.566  0.00  0.00    +0.080 S 
ATOM      8  O   UNL     1       0.827   0.707   1.050  0.00  0.00    -0.148 OA
ATOM      9  O   UNL     1       1.154   3.011   0.162  0.00  0.00    -0.148 OA
BRANCH   7  10
ATOM     10  N   UNL     1      -0.647   1.574  -0.733  0.00  0.00    -0.228 N 
ATOM     11  C   UNL     1      -1.308   2.577  -1.403  0.00  0.00    +0.186 C 
ATOM     12  N   UNL     1      -2.104   2.273  -2.482  0.00  0.00    -0.370 N 
ATOM     13  H   UNL     1      -0.742   0.653  -1.022  0.00  0.00    +0.191 HD
ATOM     14  H   UNL     1      -1.607   4.591  -1.422  0.00  0.00    +0.159 HD
ATOM     15  H   UNL     1      -2.200   1.352  -2.771  0.00  0.00    +0.159 HD
ATOM     16  H   UNL     1      -2.571   2.981  -2.954  0.00  0.00    +0.159 HD
ATOM     17  N   UNL     1      -1.137   3.813  -0.959  0.00  0.00    -0.370 N 
ATOM     18  H   UNL     1      -0.531   3.989  -0.148  0.00  0.00    +0.159 HD
ENDBRANCH   7  10
ENDBRANCH   4   7
BRANCH   1  19
ATOM     19  N   UNL     1      -3.228   4.079   4.812  0.00  0.00    -0.297 N 
ATOM     20  H   UNL     1      -3.879   4.766   4.600  0.00  0.00    +0.154 HD
BRANCH  19  21
ATOM     21  C   UNL     1      -3.128   3.611   6.072  0.00  0.00    +0.141 C 
ATOM     22  S   UNL     1      -1.887   2.504   6.478  0.00  0.00    -0.018 S 
BRANCH  21  25
ATOM     23  C   UNL     1      -3.906   3.546   8.272  0.00  0.00    +0.250 C 
ATOM     24  O   UNL     1      -3.025   2.760   8.560  0.00  0.00    -0.270 OA
ATOM     25  N   UNL     1      -4.006   4.014   7.012  0.00  0.00    -0.264 N 
ATOM     26  H   UNL     1      -4.709   4.641   6.782  0.00  0.00    +0.157 HD
BRANCH  23  32
ATOM     27  C   UNL     1      -5.878   4.896   8.976  0.00  0.00    +0.014 A 
ATOM     28  C   UNL     1      -6.776   5.300   9.941  0.00  0.00    +0.016 A 
ATOM     29  C   UNL     1      -6.671   4.817  11.234  0.00  0.00    +0.018 A 
ATOM     30  C   UNL     1      -5.668   3.922  11.566  0.00  0.00    +0.016 A 
ATOM     31  C   UNL     1      -4.767   3.505  10.609  0.00  0.00    +0.014 A 
ATOM     32  C   UNL     1      -4.868   3.988   9.303  0.00  0.00    +0.037 A 
ATOM     33 BR   UNL     1      -7.903   5.382  12.553  0.00  0.00    -0.050 Br
ENDBRANCH  23  32
ENDBRANCH  21  25
ENDBRANCH  19  21
ENDBRANCH   1  19
TORSDOF 6
