REMARK  Name = ZINC06863822
REMARK  1 active torsions:
REMARK  status: ('A' for Active; 'I' for Inactive)
REMARK    1  A    between atoms: C_5  and  C_7
REMARK                            x       y       z     vdW  Elec       q    Type
REMARK                         _______ _______ _______ _____ _____    ______ ____
ROOT
ATOM      1  C   UNL     1       2.470   1.368  -0.014  0.00  0.00    +0.094 C 
ATOM      2  C   UNL     1       2.329  -0.063  -0.443  0.00  0.00    +0.067 A 
ATOM      3  C   UNL     1       1.118  -0.686  -0.414  0.00  0.00    +0.113 A 
ATOM      4  N   UNL     1       1.021  -2.001  -0.801  0.00  0.00    -0.295 N 
ATOM      5  H   UNL     1       0.135  -2.463  -0.778  0.00  0.00    +0.172 HD
ATOM      6  C   UNL     1       2.114  -2.670  -1.213  0.00  0.00    +0.328 A 
ATOM      7  O   UNL     1       2.012  -3.833  -1.552  0.00  0.00    -0.247 OA
ATOM      8  N   UNL     1       3.318  -2.071  -1.254  0.00  0.00    -0.275 N 
ATOM      9  H   UNL     1       4.117  -2.585  -1.564  0.00  0.00    +0.173 HD
ATOM     10  C   UNL     1       3.456  -0.783  -0.880  0.00  0.00    +0.260 A 
ATOM     11  O   UNL     1       4.549  -0.246  -0.921  0.00  0.00    -0.267 OA
ATOM     12  N   UNL     1       0.002  -0.004   0.002  0.00  0.00    -0.303 N 
ATOM     13  C   UNL     1      -0.017   1.365   0.009  0.00  0.00    +0.017 C 
ATOM     14  C   UNL     1       1.135   2.068   0.002  0.00  0.00    +0.024 C 
ATOM     15  C   UNL     1       1.126   3.474   0.015  0.00  0.00    +0.162 C 
ATOM     16  O   UNL     1       2.181   4.077  -0.010  0.00  0.00    -0.292 OA
ATOM     17  C   UNL     1      -0.165   4.245   0.057  0.00  0.00    +0.080 C 
ATOM     18  C   UNL     1      -1.229   3.398   0.762  0.00  0.00    +0.014 C 
ATOM     19  C   UNL     1      -1.354   2.064   0.020  0.00  0.00    +0.051 C 
ATOM     20  H   UNL     1      -0.781  -0.497   0.293  0.00  0.00    +0.153 HD
ENDROOT
BRANCH   1  25
ATOM     21  C   UNL     1       2.961   0.844   3.693  0.00  0.00    +0.000 A 
ATOM     22  C   UNL     1       4.163   1.492   3.907  0.00  0.00    +0.001 A 
ATOM     23  C   UNL     1       4.819   2.100   2.853  0.00  0.00    +0.020 A 
ATOM     24  C   UNL     1       4.271   2.059   1.582  0.00  0.00    +0.045 A 
ATOM     25  C   UNL     1       3.068   1.411   1.369  0.00  0.00    -0.017 A 
ATOM     26  C   UNL     1       2.410   0.809   2.425  0.00  0.00    +0.006 A 
ATOM     27 CL   UNL     1       5.094   2.822   0.258  0.00  0.00    -0.083 Cl
ENDBRANCH   1  25
TORSDOF 1
