REMARK  Name = ZINC09524084
REMARK  8 active torsions:
REMARK  status: ('A' for Active; 'I' for Inactive)
REMARK    1  A    between atoms: C_1  and  C_2
REMARK    2  A    between atoms: N_11  and  C_12
REMARK    3  A    between atoms: C_12  and  C_13
REMARK    4  A    between atoms: C_13  and  C_14
REMARK    5  A    between atoms: C_14  and  N_57
REMARK    6  A    between atoms: C_20  and  C_22
REMARK    7  A    between atoms: C_22  and  S_23
REMARK    8  A    between atoms: S_23  and  C_24
REMARK                            x       y       z     vdW  Elec       q    Type
REMARK                         _______ _______ _______ _____ _____    ______ ____
ROOT
ATOM      1  C   UNL     1      -5.083  -0.644   4.277  0.00  0.00    +0.047 C 
ATOM      2  C   UNL     1      -5.206  -1.740   3.250  0.00  0.00    -0.006 A 
ATOM      3  C   UNL     1      -6.143  -2.727   3.420  0.00  0.00    +0.046 A 
ATOM      4  C   UNL     1      -6.288  -3.755   2.498  0.00  0.00    +0.021 A 
ATOM      5  C   UNL     1      -5.471  -3.785   1.383  0.00  0.00    +0.019 A 
ATOM      6  C   UNL     1      -4.531  -2.802   1.205  0.00  0.00    +0.041 A 
ATOM      7  C   UNL     1      -4.354  -1.740   2.122  0.00  0.00    +0.085 A 
ATOM      8  N   UNL     1      -3.387  -0.851   1.807  0.00  0.00    -0.224 NA
ATOM      9  C   UNL     1      -2.656  -0.958   0.722  0.00  0.00    +0.168 A 
ATOM     10  S   UNL     1      -3.310  -2.439  -0.034  0.00  0.00    -0.052 S 
ATOM     11  N   UNL     1      -1.640  -0.130   0.274  0.00  0.00    -0.250 N 
ATOM     12  C   UNL     1      -1.382   1.028   0.914  0.00  0.00    +0.231 C 
ATOM     13  O   UNL     1      -0.559   1.798   0.466  0.00  0.00    -0.274 OA
ATOM     14 CL   UNL     1      -7.170  -2.691   4.819  0.00  0.00    -0.083 Cl
ENDROOT
BRANCH  11  15
ATOM     15  C   UNL     1      -0.845  -0.512  -0.896  0.00  0.00    +0.114 C 
BRANCH  15  16
ATOM     16  C   UNL     1      -1.504   0.037  -2.162  0.00  0.00    +0.001 C 
BRANCH  16  17
ATOM     17  C   UNL     1      -0.674  -0.362  -3.384  0.00  0.00    -0.077 C 
BRANCH  17  23
ATOM     18  C   UNL     1      -2.605  -0.480  -4.841  0.00  0.00    -0.050 C 
ATOM     19  C   UNL     1      -3.255   0.140  -6.081  0.00  0.00    +0.141 C 
ATOM     20  O   UNL     1      -2.369   0.006  -7.195  0.00  0.00    -0.383 OA
ATOM     21  C   UNL     1      -1.095   0.625  -6.995  0.00  0.00    +0.141 C 
ATOM     22  C   UNL     1      -0.423   0.009  -5.764  0.00  0.00    -0.050 C 
ATOM     23  N   UNL     1      -1.312   0.192  -4.598  0.00  0.00    +0.383 N 
ATOM     24  H   UNL     1      -1.478   1.196  -4.458  0.00  0.00    -0.082 HD
ENDBRANCH  17  23
ENDBRANCH  16  17
ENDBRANCH  15  16
ENDBRANCH  11  15
BRANCH  12  25
ATOM     25  C   UNL     1      -2.117   1.366   2.186  0.00  0.00    +0.170 C 
BRANCH  25  26
ATOM     26  S   UNL     1      -1.484   2.929   2.853  0.00  0.00    -0.116 S 
BRANCH  26  27
ATOM     27  C   UNL     1      -2.332   3.113   4.386  0.00  0.00    +0.008 A 
ATOM     28  C   UNL     1      -3.164   2.099   4.848  0.00  0.00    +0.016 A 
ATOM     29  C   UNL     1      -3.823   2.244   6.052  0.00  0.00    +0.021 A 
ATOM     30  C   UNL     1      -3.665   3.401   6.795  0.00  0.00    +0.041 A 
ATOM     31  C   UNL     1      -2.843   4.415   6.335  0.00  0.00    +0.021 A 
ATOM     32  C   UNL     1      -2.176   4.274   5.134  0.00  0.00    +0.016 A 
ATOM     33 CL   UNL     1      -4.501   3.582   8.306  0.00  0.00    -0.084 Cl
ENDBRANCH  26  27
ENDBRANCH  25  26
ENDBRANCH  12  25
TORSDOF 7
