REMARK  Name = ZINC14157971
REMARK  10 active torsions:
REMARK  status: ('A' for Active; 'I' for Inactive)
REMARK    1  A    between atoms: C_1  and  C_2
REMARK    2  A    between atoms: C_4  and  C_31
REMARK    3  A    between atoms: N_10  and  C_11
REMARK    4  A    between atoms: C_11  and  N_13
REMARK    5  A    between atoms: N_13  and  C_14
REMARK    6  A    between atoms: N_21  and  C_22
REMARK    7  A    between atoms: C_24  and  C_29
REMARK    8  A    between atoms: C_24  and  C_30
REMARK    9  A    between atoms: C_25  and  C_27
REMARK   10  A    between atoms: C_25  and  C_28
REMARK                            x       y       z     vdW  Elec       q    Type
REMARK                         _______ _______ _______ _____ _____    ______ ____
ROOT
ATOM      1  C   UNL     1       1.642   8.134  -9.373  0.00  0.00    +0.066 C 
ATOM      2  C   UNL     1       0.423   7.726  -8.587  0.00  0.00    +0.044 A 
ATOM      3  C   UNL     1      -0.758   8.442  -8.701  0.00  0.00    +0.046 A 
ATOM      4  C   UNL     1      -1.855   8.032  -7.961  0.00  0.00    +0.044 A 
ATOM      5  N   UNL     1      -1.744   6.975  -7.173  0.00  0.00    -0.217 NA
ATOM      6  C   UNL     1      -0.600   6.313  -7.087  0.00  0.00    +0.231 A 
ATOM      7  N   UNL     1       0.468   6.681  -7.777  0.00  0.00    -0.217 NA
ATOM      8  N   UNL     1      -0.519   5.208  -6.250  0.00  0.00    -0.297 N 
ATOM      9  C   UNL     1       0.686   4.589  -6.049  0.00  0.00    +0.196 C 
ATOM     10  N   UNL     1       1.714   5.279  -5.587  0.00  0.00    -0.159 NA
ATOM     11  N   UNL     1       0.825   3.260  -6.326  0.00  0.00    -0.355 N 
ATOM     12  C   UNL     1      -3.160   8.780  -8.053  0.00  0.00    +0.066 C 
ATOM     13  H   UNL     1      -1.315   4.875  -5.807  0.00  0.00    +0.171 HD
ATOM     14  H   UNL     1       1.678   2.821  -6.183  0.00  0.00    +0.163 HD
ENDROOT
BRANCH  11  15
ATOM     15  C   UNL     1      -0.318   2.494  -6.839  0.00  0.00    +0.079 C 
ATOM     16  C   UNL     1      -0.134   1.018  -6.486  0.00  0.00    +0.011 C 
ATOM     17  C   UNL     1      -1.299   0.193  -7.027  0.00  0.00    -0.071 C 
ATOM     18  C   UNL     1      -1.537   1.820  -8.925  0.00  0.00    -0.071 C 
ATOM     19  C   UNL     1      -0.370   2.627  -8.361  0.00  0.00    +0.011 C 
ATOM     20  C   UNL     1      -1.361   1.758 -10.459  0.00  0.00    -0.010 C 
ATOM     21  C   UNL     1      -2.852   2.559  -8.649  0.00  0.00    -0.010 C 
ATOM     22  C   UNL     1      -2.539   0.423  -6.154  0.00  0.00    -0.010 C 
ATOM     23  C   UNL     1      -0.916  -1.298  -6.893  0.00  0.00    -0.010 C 
ATOM     24  N   UNL     1      -1.601   0.406  -8.468  0.00  0.00    +0.386 N 
ATOM     25  H   UNL     1      -2.550   0.056  -8.649  0.00  0.00    -0.084 HD
ATOM     26  H   UNL     1      -0.925  -0.137  -9.018  0.00  0.00    -0.084 HD
ENDBRANCH  11  15
BRANCH  10  27
ATOM     27  C   UNL     1       1.511   6.447  -4.961  0.00  0.00    +0.162 C 
ATOM     28  S   UNL     1      -0.079   6.939  -4.559  0.00  0.00    -0.016 S 
BRANCH  27  29
ATOM     29  N   UNL     1       2.559   7.236  -4.649  0.00  0.00    -0.294 N 
ATOM     30  H   UNL     1       3.455   6.980  -4.918  0.00  0.00    +0.154 HD
BRANCH  29  31
ATOM     31  C   UNL     1       2.354   8.422  -3.936  0.00  0.00    +0.051 A 
ATOM     32  C   UNL     1       1.662   8.400  -2.732  0.00  0.00    +0.025 A 
ATOM     33  C   UNL     1       1.465   9.572  -2.029  0.00  0.00    +0.002 A 
ATOM     34  C   UNL     1       1.947  10.769  -2.527  0.00  0.00    +0.002 A 
ATOM     35  C   UNL     1       2.632  10.796  -3.728  0.00  0.00    +0.022 A 
ATOM     36  C   UNL     1       2.837   9.626  -4.434  0.00  0.00    +0.062 A 
ATOM     37 CL   UNL     1       3.697   9.660  -5.942  0.00  0.00    -0.082 Cl
ENDBRANCH  29  31
ENDBRANCH  27  29
ENDBRANCH  10  27
TORSDOF 4
