REMARK  Name = ZINC39675360
REMARK  12 active torsions:
REMARK  status: ('A' for Active; 'I' for Inactive)
REMARK    1  A    between atoms: C_1  and  C_2
REMARK    2  A    between atoms: C_2  and  C_4
REMARK    3  A    between atoms: C_2  and  N_14
REMARK    4  A    between atoms: C_4  and  C_5
REMARK    5  A    between atoms: C_5  and  C_6
REMARK    6  A    between atoms: C_9  and  O_12
REMARK    7  A    between atoms: O_12  and  C_13
REMARK    8  A    between atoms: C_15  and  C_17
REMARK    9  A    between atoms: C_28  and  C_30
REMARK   10  A    between atoms: C_34  and  N_36
REMARK   11  A    between atoms: N_36  and  C_37
REMARK   12  A    between atoms: N_36  and  C_38
REMARK                            x       y       z     vdW  Elec       q    Type
REMARK                         _______ _______ _______ _____ _____    ______ ____
ROOT
ATOM      1  C   UNL     1       1.265  -1.409   3.994  0.00  0.00    +0.100 C 
ATOM      2  C   UNL     1       2.269  -0.238   4.082  0.00  0.00    +0.121 C 
ATOM      3  N   UNL     1       1.669   0.697   5.062  0.00  0.00    -0.296 N 
ATOM      4  C   UNL     1       1.094  -0.183   6.107  0.00  0.00    +0.115 C 
ATOM      5  C   UNL     1       0.497  -1.371   5.327  0.00  0.00    -0.004 C 
ATOM      6  C   UNL     1      -0.990  -1.143   5.074  0.00  0.00    -0.010 C 
ATOM      7  C   UNL     1      -1.739  -1.166   6.409  0.00  0.00    -0.082 C 
ATOM      8  N   UNL     1      -1.528  -2.460   7.069  0.00  0.00    +0.379 N 
ATOM      9  C   UNL     1      -0.106  -2.632   7.392  0.00  0.00    -0.082 C 
ATOM     10  C   UNL     1       0.712  -2.670   6.098  0.00  0.00    -0.010 C 
ATOM     11  C   UNL     1       1.652   2.044   5.015  0.00  0.00    +0.247 C 
ATOM     12  O   UNL     1       2.055   2.623   4.024  0.00  0.00    -0.270 OA
ATOM     13  H   UNL     1      -2.071  -2.496   7.918  0.00  0.00    -0.086 HD
ATOM     14  H   UNL     1      -1.823  -3.202   6.452  0.00  0.00    -0.086 HD
ENDROOT
BRANCH  11  15
ATOM     15  C   UNL     1       1.142   2.818   6.167  0.00  0.00    +0.039 A 
ATOM     16  C   UNL     1       1.078   2.230   7.432  0.00  0.00    +0.013 A 
ATOM     17  C   UNL     1       0.602   2.954   8.506  0.00  0.00    +0.003 A 
ATOM     18  C   UNL     1       0.187   4.262   8.334  0.00  0.00    +0.023 A 
ATOM     19  C   UNL     1       0.246   4.856   7.079  0.00  0.00    +0.030 A 
ATOM     20  C   UNL     1       0.729   4.138   5.995  0.00  0.00    +0.036 A 
BRANCH  19  21
ATOM     21  N   UNL     1      -0.176   6.177   6.911  0.00  0.00    -0.336 N 
ATOM     22  C   UNL     1      -0.811   6.890   8.022  0.00  0.00    +0.129 C 
ATOM     23  C   UNL     1       0.018   6.849   5.624  0.00  0.00    +0.129 C 
ENDBRANCH  19  21
ENDBRANCH  11  15
BRANCH   1  25
ATOM     24  N   UNL     1      -0.208  -2.270   2.203  0.00  0.00    -0.312 N 
ATOM     25  C   UNL     1       0.319  -1.205   2.839  0.00  0.00    +0.218 C 
ATOM     26  O   UNL     1       0.033  -0.082   2.481  0.00  0.00    -0.275 OA
ATOM     27  H   UNL     1       0.021  -3.168   2.489  0.00  0.00    +0.149 HD
BRANCH  24  29
ATOM     28  C   UNL     1      -0.324  -1.884  -0.209  0.00  0.00    +0.028 C 
ATOM     29  C   UNL     1      -1.127  -2.071   1.079  0.00  0.00    +0.070 C 
BRANCH  29  30
ATOM     30  C   UNL     1      -2.035  -3.294   0.941  0.00  0.00    +0.026 C 
BRANCH  30  31
ATOM     31  C   UNL     1      -2.928  -3.409   2.179  0.00  0.00    +0.037 C 
BRANCH  31  32
ATOM     32  C   UNL     1      -3.823  -4.614   2.042  0.00  0.00    -0.047 A 
ATOM     33  C   UNL     1      -5.061  -4.489   1.439  0.00  0.00    +0.007 A 
ATOM     34  C   UNL     1      -5.883  -5.592   1.313  0.00  0.00    +0.046 A 
ATOM     35  C   UNL     1      -5.466  -6.825   1.793  0.00  0.00    +0.120 A 
ATOM     36  C   UNL     1      -4.224  -6.947   2.397  0.00  0.00    +0.046 A 
ATOM     37  C   UNL     1      -3.403  -5.843   2.516  0.00  0.00    +0.007 A 
BRANCH  35  38
ATOM     38  O   UNL     1      -6.274  -7.911   1.671  0.00  0.00    -0.495 OA
ATOM     39  C   UNL     1      -5.779  -9.149   2.187  0.00  0.00    +0.277 C 
ENDBRANCH  35  38
ENDBRANCH  31  32
ENDBRANCH  30  31
ENDBRANCH  29  30
ENDBRANCH  24  29
ENDBRANCH   1  25
TORSDOF 8
