REMARK  Name = ZINC31042434
REMARK  10 active torsions:
REMARK  status: ('A' for Active; 'I' for Inactive)
REMARK    1  A    between atoms: C_1  and  N_2
REMARK    2  A    between atoms: N_2  and  C_3
REMARK    3  A    between atoms: N_2  and  C_15
REMARK    4  A    between atoms: C_3  and  C_4
REMARK    5  A    between atoms: N_6  and  C_7
REMARK    6  A    between atoms: C_12  and  S_13
REMARK    7  A    between atoms: S_13  and  C_14
REMARK    8  A    between atoms: C_15  and  C_16
REMARK    9  A    between atoms: N_21  and  C_22
REMARK   10  A    between atoms: C_27  and  C_28
REMARK                            x       y       z     vdW  Elec       q    Type
REMARK                         _______ _______ _______ _____ _____    ______ ____
ROOT
ATOM      1  C   UNL     1       4.390   1.964   0.230  0.00  0.00    +0.019 C 
ENDROOT
BRANCH   1   2
ATOM      2  C   UNL     1       5.443   0.908   0.448  0.00  0.00    +0.204 C 
ATOM      3  O   UNL     1       5.146  -0.266   0.391  0.00  0.00    -0.277 OA
ATOM      4  N   UNL     1       6.716   1.269   0.707  0.00  0.00    -0.241 N 
ATOM      5  C   UNL     1       7.657   0.326   0.903  0.00  0.00    +0.310 C 
ATOM      6  O   UNL     1       7.359  -0.851   0.845  0.00  0.00    -0.252 OA
ATOM      7  N   UNL     1       8.930   0.687   1.162  0.00  0.00    -0.268 N 
ATOM      8  H   UNL     1       6.985   2.335   0.759  0.00  0.00    +0.159 HD
ATOM      9  H   UNL     1       9.182   1.748   1.304  0.00  0.00    +0.156 HD
BRANCH   7  10
ATOM     10  C   UNL     1       9.926  -0.285   1.250  0.00  0.00    +0.052 A 
ATOM     11  C   UNL     1       9.870  -1.416   0.448  0.00  0.00    +0.024 A 
ATOM     12  C   UNL     1      10.860  -2.374   0.533  0.00  0.00    +0.002 A 
ATOM     13  C   UNL     1      11.909  -2.221   1.425  0.00  0.00    +0.001 A 
ATOM     14  C   UNL     1      11.978  -1.107   2.234  0.00  0.00    +0.021 A 
ATOM     15  C   UNL     1      10.987  -0.127   2.155  0.00  0.00    +0.073 A 
BRANCH  15  16
ATOM     16  C   UNL     1      11.052   1.033   2.992  0.00  0.00    +0.101 C 
ATOM     17  N   UNL     1      11.104   1.953   3.657  0.00  0.00    -0.191 NA
ENDBRANCH  15  16
ENDBRANCH   7  10
ENDBRANCH   1   2
BRANCH   1  19
ATOM     18  C   UNL     1       3.124   0.583  -1.305  0.00  0.00    -0.095 C 
ATOM     19  N   UNL     1       3.097   1.318  -0.033  0.00  0.00    +0.389 N 
ATOM     20  H   UNL     1       2.912   0.593   0.773  0.00  0.00    -0.081 HD
BRANCH  19  21
ATOM     21  C   UNL     1       2.005   2.301  -0.017  0.00  0.00    +0.019 C 
BRANCH  21  22
ATOM     22  C   UNL     1       0.681   1.581  -0.043  0.00  0.00    +0.201 C 
ATOM     23  O   UNL     1       0.650   0.369  -0.073  0.00  0.00    -0.278 OA
ATOM     24  N   UNL     1      -0.468   2.284  -0.039  0.00  0.00    -0.286 N 
ATOM     25  H   UNL     1      -0.442   3.380   0.052  0.00  0.00    +0.155 HD
BRANCH  24  26
ATOM     26  C   UNL     1      -1.697   1.620  -0.151  0.00  0.00    +0.047 A 
ATOM     27  C   UNL     1      -1.812   0.299   0.255  0.00  0.00    +0.024 A 
ATOM     28  C   UNL     1      -3.027  -0.353   0.148  0.00  0.00    +0.002 A 
ATOM     29  C   UNL     1      -4.127   0.304  -0.372  0.00  0.00    +0.001 A 
ATOM     30  C   UNL     1      -4.020   1.618  -0.785  0.00  0.00    +0.016 A 
ATOM     31  C   UNL     1      -2.806   2.283  -0.677  0.00  0.00    +0.029 A 
BRANCH  31  32
ATOM     32  S   UNL     1      -2.666   3.959  -1.202  0.00  0.00    -0.127 S 
ATOM     33  C   UNL     1      -4.330   4.373  -1.795  0.00  0.00    +0.090 C 
ENDBRANCH  31  32
ENDBRANCH  24  26
ENDBRANCH  21  22
ENDBRANCH  19  21
ENDBRANCH   1  19
TORSDOF 8
