REMARK  Name = ZINC51355876
REMARK  13 active torsions:
REMARK  status: ('A' for Active; 'I' for Inactive)
REMARK    1  A    between atoms: C_1  and  C_2
REMARK    2  A    between atoms: C_2  and  N_3
REMARK    3  A    between atoms: N_3  and  C_4
REMARK    4  A    between atoms: N_3  and  C_6
REMARK    5  A    between atoms: C_4  and  C_5
REMARK    6  A    between atoms: C_6  and  C_7
REMARK    7  A    between atoms: C_7  and  N_8
REMARK    8  A    between atoms: C_9  and  C_11
REMARK    9  A    between atoms: C_14  and  N_17
REMARK   10  A    between atoms: N_20  and  C_21
REMARK   11  A    between atoms: C_24  and  O_28
REMARK   12  A    between atoms: C_26  and  C_27
REMARK   13  A    between atoms: O_28  and  C_29
REMARK                            x       y       z     vdW  Elec       q    Type
REMARK                         _______ _______ _______ _____ _____    ______ ____
ROOT
ATOM      1  C   UNL     1      -3.046  -5.853  -2.221  0.00  0.00    +0.037 A 
ATOM      2  C   UNL     1      -2.029  -6.805  -2.122  0.00  0.00    +0.015 A 
ATOM      3  C   UNL     1      -2.315  -8.139  -2.309  0.00  0.00    +0.024 A 
ATOM      4  C   UNL     1      -3.616  -8.538  -2.597  0.00  0.00    +0.035 A 
ATOM      5  C   UNL     1      -4.632  -7.593  -2.696  0.00  0.00    +0.024 A 
ATOM      6  C   UNL     1      -4.354  -6.258  -2.504  0.00  0.00    +0.015 A 
ENDROOT
BRANCH   4   7
ATOM      7  N   UNL     1      -3.903  -9.890  -2.786  0.00  0.00    -0.269 N 
ATOM      8  C   UNL     1      -3.240 -10.825  -2.077  0.00  0.00    +0.308 C 
ATOM      9  O   UNL     1      -2.459 -10.489  -1.208  0.00  0.00    -0.252 OA
ATOM     10  N   UNL     1      -3.443 -12.133  -2.332  0.00  0.00    -0.269 N 
ATOM     11  H   UNL     1      -4.580 -10.157  -3.428  0.00  0.00    +0.156 HD
ATOM     12  H   UNL     1      -4.019 -12.400  -3.065  0.00  0.00    +0.156 HD
BRANCH  10  13
ATOM     13  C   UNL     1      -2.822 -13.106  -1.538  0.00  0.00    +0.038 A 
ATOM     14  C   UNL     1      -1.635 -12.812  -0.880  0.00  0.00    +0.027 A 
ATOM     15  C   UNL     1      -1.024 -13.771  -0.097  0.00  0.00    +0.047 A 
ATOM     16  C   UNL     1      -1.595 -15.029   0.032  0.00  0.00    +0.120 A 
ATOM     17  C   UNL     1      -2.781 -15.323  -0.625  0.00  0.00    +0.050 A 
ATOM     18  C   UNL     1      -3.396 -14.363  -1.403  0.00  0.00    -0.026 A 
ATOM     19  C   UNL     1      -4.688 -14.680  -2.111  0.00  0.00    +0.046 C 
BRANCH  16  20
ATOM     20  O   UNL     1      -0.992 -15.973   0.802  0.00  0.00    -0.495 OA
ATOM     21  C   UNL     1       0.227 -15.602   1.449  0.00  0.00    +0.277 C 
ENDBRANCH  16  20
ENDBRANCH  10  13
ENDBRANCH   4   7
BRANCH   1  23
ATOM     22  N   UNL     1      -1.482  -4.033  -1.748  0.00  0.00    -0.313 N 
ATOM     23  C   UNL     1      -2.743  -4.422  -2.021  0.00  0.00    +0.244 C 
ATOM     24  O   UNL     1      -3.631  -3.595  -2.103  0.00  0.00    -0.270 OA
ATOM     25  H   UNL     1      -0.774  -4.693  -1.683  0.00  0.00    +0.149 HD
BRANCH  22  26
ATOM     26  C   UNL     1      -1.181  -2.613  -1.550  0.00  0.00    +0.086 C 
BRANCH  26  27
ATOM     27  C   UNL     1       0.311  -2.444  -1.256  0.00  0.00    -0.060 C 
BRANCH  27  28
ATOM     28  N   UNL     1       0.614  -1.021  -1.057  0.00  0.00    +0.380 N 
ATOM     29  H   UNL     1       0.299  -0.495  -1.859  0.00  0.00    -0.082 HD
BRANCH  28  31
ATOM     30  C   UNL     1       0.122   0.974   0.275  0.00  0.00    -0.017 C 
ATOM     31  C   UNL     1      -0.076  -0.537   0.146  0.00  0.00    -0.082 C 
ENDBRANCH  28  31
BRANCH  28  32
ATOM     32  C   UNL     1       2.063  -0.846  -0.894  0.00  0.00    -0.082 C 
ATOM     33  C   UNL     1       2.771  -1.215  -2.199  0.00  0.00    -0.017 C 
ENDBRANCH  28  32
ENDBRANCH  27  28
ENDBRANCH  26  27
ENDBRANCH  22  26
ENDBRANCH   1  23
TORSDOF 9
