REMARK  Name = ZINC40679612
REMARK  5 active torsions:
REMARK  status: ('A' for Active; 'I' for Inactive)
REMARK    1  A    between atoms: C_1  and  C_2
REMARK    2  A    between atoms: C_2  and  N_3
REMARK    3  A    between atoms: N_3  and  C_4
REMARK    4  A    between atoms: C_11  and  N_24
REMARK    5  A    between atoms: C_12  and  N_16
REMARK                            x       y       z     vdW  Elec       q    Type
REMARK                         _______ _______ _______ _____ _____    ______ ____
ROOT
ATOM      1  N   UNL     1       0.801  -0.527  -1.235  0.00  0.00    -0.285 N 
ATOM      2  C   UNL     1       0.045  -0.743  -2.381  0.00  0.00    +0.129 A 
ATOM      3  C   UNL     1       0.620  -1.334  -3.509  0.00  0.00    +0.104 A 
ATOM      4  C   UNL     1      -0.183  -1.529  -4.633  0.00  0.00    +0.150 A 
ATOM      5  N   UNL     1      -1.458  -1.147  -4.589  0.00  0.00    -0.221 NA
ATOM      6  C   UNL     1      -1.961  -0.592  -3.505  0.00  0.00    +0.200 A 
ATOM      7  N   UNL     1      -1.239  -0.395  -2.420  0.00  0.00    -0.332 N 
ATOM      8  H   UNL     1      -1.648   0.012  -1.641  0.00  0.00    +0.168 HD
ENDROOT
BRANCH   4   9
ATOM      9  N   UNL     1       0.339  -2.112  -5.782  0.00  0.00    -0.283 N 
ATOM     10  C   UNL     1      -0.495  -2.400  -6.858  0.00  0.00    +0.124 A 
ATOM     11  C   UNL     1       0.011  -3.080  -7.961  0.00  0.00    +0.045 A 
ATOM     12  C   UNL     1      -0.829  -3.360  -9.023  0.00  0.00    +0.020 A 
ATOM     13  C   UNL     1      -2.154  -2.948  -8.947  0.00  0.00    +0.036 A 
ATOM     14  C   UNL     1      -2.589  -2.276  -7.821  0.00  0.00    +0.128 A 
ATOM     15  N   UNL     1      -1.766  -2.029  -6.821  0.00  0.00    -0.239 NA
ATOM     16 BR   UNL     1      -3.348  -3.302 -10.370  0.00  0.00    -0.049 Br
ATOM     17  H   UNL     1       1.286  -2.319  -5.834  0.00  0.00    +0.155 HD
ENDBRANCH   4   9
BRANCH   1  18
ATOM     18  C   UNL     1       1.405   0.715  -1.020  0.00  0.00    +0.035 A 
ATOM     19  C   UNL     1       1.342   1.698  -1.999  0.00  0.00    +0.023 A 
ATOM     20  C   UNL     1       1.940   2.924  -1.783  0.00  0.00    +0.002 A 
ATOM     21  C   UNL     1       2.601   3.174  -0.594  0.00  0.00    +0.000 A 
ATOM     22  C   UNL     1       2.666   2.197   0.383  0.00  0.00    +0.002 A 
ATOM     23  C   UNL     1       2.064   0.971   0.176  0.00  0.00    +0.023 A 
ENDBRANCH   1  18
BRANCH   3  24
ATOM     24  N   UNL     1       1.969  -1.721  -3.511  0.00  0.00    -0.353 N 
ATOM     25  H   UNL     1       2.497  -1.647  -2.700  0.00  0.00    +0.143 HD
ATOM     26  H   UNL     1       2.375  -2.063  -4.323  0.00  0.00    +0.143 HD
ENDBRANCH   3  24
BRANCH   1  28
ATOM     27  C   UNL     1      -0.160  -1.520   0.783  0.00  0.00    +0.025 C 
ATOM     28  C   UNL     1       0.964  -1.601  -0.252  0.00  0.00    +0.109 C 
ENDBRANCH   1  28
TORSDOF 4
