REMARK  Name = ZINC67494420
REMARK  11 active torsions:
REMARK  status: ('A' for Active; 'I' for Inactive)
REMARK    1  A    between atoms: C_1  and  C_2
REMARK    2  A    between atoms: C_2  and  C_3
REMARK    3  A    between atoms: C_3  and  N_4
REMARK    4  A    between atoms: C_10  and  N_13
REMARK    5  A    between atoms: C_14  and  C_16
REMARK    6  A    between atoms: N_18  and  C_19
REMARK    7  A    between atoms: C_19  and  C_21
REMARK    8  A    between atoms: C_19  and  C_22
REMARK    9  A    between atoms: C_22  and  C_23
REMARK   10  A    between atoms: C_23  and  C_24
REMARK   11  A    between atoms: C_27  and  O_30
REMARK                            x       y       z     vdW  Elec       q    Type
REMARK                         _______ _______ _______ _____ _____    ______ ____
ROOT
ATOM      1  N   UNL     1      -4.774  -4.916   0.174  0.00  0.00    -0.278 N 
ATOM      2  C   UNL     1      -5.675  -5.915   0.094  0.00  0.00    +0.303 C 
ATOM      3  O   UNL     1      -5.487  -6.843  -0.666  0.00  0.00    -0.265 OA
ATOM      4  H   UNL     1      -4.883  -4.216   0.837  0.00  0.00    +0.155 HD
ENDROOT
BRANCH   1  11
ATOM      5  N   UNL     1      -0.668  -3.354   0.891  0.00  0.00    +0.385 N 
ATOM      6  C   UNL     1      -0.328  -3.409  -0.549  0.00  0.00    -0.042 C 
ATOM      7  C   UNL     1      -1.441  -4.196  -1.202  0.00  0.00    -0.061 A 
ATOM      8  C   UNL     1      -1.523  -4.832  -2.428  0.00  0.00    +0.002 A 
ATOM      9  C   UNL     1      -2.681  -5.495  -2.791  0.00  0.00    +0.002 A 
ATOM     10  C   UNL     1      -3.761  -5.525  -1.931  0.00  0.00    +0.023 A 
ATOM     11  C   UNL     1      -3.683  -4.887  -0.699  0.00  0.00    +0.035 A 
ATOM     12  C   UNL     1      -2.519  -4.222  -0.337  0.00  0.00    -0.041 A 
ATOM     13  C   UNL     1      -2.145  -3.453   0.910  0.00  0.00    -0.040 C 
ATOM     14  H   UNL     1      -0.255  -4.131   1.384  0.00  0.00    -0.081 HD
BRANCH   5  15
ATOM     15  C   UNL     1      -0.229  -2.080   1.476  0.00  0.00    -0.078 C 
BRANCH  15  17
ATOM     16  C   UNL     1       1.755  -0.729   2.167  0.00  0.00    +0.002 C 
ATOM     17  C   UNL     1       1.298  -2.056   1.558  0.00  0.00    -0.022 C 
ENDBRANCH  15  17
ENDBRANCH   5  15
ENDBRANCH   1  11
BRANCH   2  18
ATOM     18  C   UNL     1      -6.904  -5.881   0.941  0.00  0.00    +0.300 C 
ATOM     19  O   UNL     1      -7.093  -4.954   1.701  0.00  0.00    -0.265 OA
ATOM     20  N   UNL     1      -7.805  -6.881   0.862  0.00  0.00    -0.305 N 
ATOM     21  H   UNL     1      -7.655  -7.622   0.254  0.00  0.00    +0.149 HD
BRANCH  20  22
ATOM     22  C   UNL     1      -9.011  -6.847   1.692  0.00  0.00    +0.071 C 
ATOM     23  C   UNL     1      -8.699  -7.436   3.069  0.00  0.00    +0.028 C 
BRANCH  22  24
ATOM     24  C   UNL     1     -10.114  -7.671   1.024  0.00  0.00    +0.026 C 
BRANCH  24  25
ATOM     25  C   UNL     1     -10.514  -7.012  -0.297  0.00  0.00    +0.037 C 
BRANCH  25  26
ATOM     26  C   UNL     1     -11.600  -7.823  -0.956  0.00  0.00    -0.047 A 
ATOM     27  C   UNL     1     -11.267  -8.844  -1.827  0.00  0.00    +0.007 A 
ATOM     28  C   UNL     1     -12.260  -9.589  -2.432  0.00  0.00    +0.045 A 
ATOM     29  C   UNL     1     -13.593  -9.313  -2.164  0.00  0.00    +0.117 A 
ATOM     30  C   UNL     1     -13.925  -8.288  -1.290  0.00  0.00    +0.045 A 
ATOM     31  C   UNL     1     -12.927  -7.550  -0.683  0.00  0.00    +0.007 A 
BRANCH  29  32
ATOM     32  O   UNL     1     -14.572 -10.044  -2.759  0.00  0.00    -0.507 OA
ATOM     33  H   UNL     1     -14.839 -10.826  -2.256  0.00  0.00    +0.292 HD
ENDBRANCH  29  32
ENDBRANCH  25  26
ENDBRANCH  24  25
ENDBRANCH  22  24
ENDBRANCH  20  22
ENDBRANCH   2  18
TORSDOF 9
