REMARK  Name = ZINC61642140
REMARK  10 active torsions:
REMARK  status: ('A' for Active; 'I' for Inactive)
REMARK    1  A    between atoms: C_1  and  C_2
REMARK    2  A    between atoms: C_2  and  C_3
REMARK    3  A    between atoms: C_3  and  C_5
REMARK    4  A    between atoms: C_3  and  N_24
REMARK    5  A    between atoms: C_5  and  C_7
REMARK    6  A    between atoms: C_5  and  N_14
REMARK    7  A    between atoms: C_18  and  C_20
REMARK    8  A    between atoms: C_20  and  N_21
REMARK    9  A    between atoms: N_21  and  C_22
REMARK   10  A    between atoms: N_21  and  C_23
REMARK                            x       y       z     vdW  Elec       q    Type
REMARK                         _______ _______ _______ _____ _____    ______ ____
ROOT
ATOM      1  C   UNL     1       0.876  -2.490   0.082  0.00  0.00    +0.074 C 
ENDROOT
BRANCH   1   2
ATOM      2  C   UNL     1      -0.296  -3.230   0.674  0.00  0.00    -0.018 A 
ATOM      3  C   UNL     1      -0.418  -3.346   2.046  0.00  0.00    +0.006 A 
ATOM      4  C   UNL     1      -1.493  -4.025   2.588  0.00  0.00    +0.000 A 
ATOM      5  C   UNL     1      -2.446  -4.588   1.760  0.00  0.00    +0.001 A 
ATOM      6  C   UNL     1      -2.324  -4.472   0.388  0.00  0.00    +0.015 A 
ATOM      7  C   UNL     1      -1.252  -3.788  -0.156  0.00  0.00    +0.022 A 
ATOM      8 BR   UNL     1      -1.088  -3.623  -2.032  0.00  0.00    -0.050 Br
ENDBRANCH   1   2
BRANCH   1   9
ATOM      9  N   UNL     1       2.062  -2.696   0.924  0.00  0.00    -0.296 NA
ATOM     10  C   UNL     1       2.164  -4.106   1.358  0.00  0.00    +0.085 C 
ATOM     11  C   UNL     1       3.172  -4.750   0.374  0.00  0.00    +0.017 C 
ATOM     12  C   UNL     1       4.187  -3.596   0.164  0.00  0.00    +0.018 C 
ATOM     13  C   UNL     1       3.294  -2.338   0.198  0.00  0.00    +0.041 C 
BRANCH  13  14
ATOM     14  C   UNL     1       4.018  -1.205   0.929  0.00  0.00    -0.061 C 
BRANCH  14  15
ATOM     15  N   UNL     1       3.255   0.041   0.779  0.00  0.00    +0.377 N 
ATOM     16  C   UNL     1       3.854   1.087   1.619  0.00  0.00    -0.097 C 
ATOM     17  C   UNL     1       3.284   0.466  -0.627  0.00  0.00    -0.097 C 
ATOM     18  H   UNL     1       2.299  -0.113   1.064  0.00  0.00    -0.083 HD
ENDBRANCH  14  15
ENDBRANCH  13  14
ENDBRANCH   1   9
BRANCH   1  19
ATOM     19  C   UNL     1       0.553  -0.996   0.013  0.00  0.00    -0.053 C 
BRANCH  19  20
ATOM     20  N   UNL     1      -0.578  -0.780  -0.899  0.00  0.00    +0.381 N 
ATOM     21  H   UNL     1      -0.791   0.205  -0.944  0.00  0.00    -0.090 HD
ATOM     22  H   UNL     1      -0.336  -1.115  -1.820  0.00  0.00    -0.090 HD
ATOM     23  H   UNL     1      -1.384  -1.284  -0.560  0.00  0.00    -0.090 HD
ENDBRANCH  19  20
BRANCH  19  25
ATOM     24  C   UNL     1      -0.083   1.016   1.351  0.00  0.00    +0.002 C 
ATOM     25  C   UNL     1       0.186  -0.489   1.409  0.00  0.00    -0.018 C 
ENDBRANCH  19  25
ENDBRANCH   1  19
TORSDOF 7
