REMARK  Name = ZINC12194953
REMARK  6 active torsions:
REMARK  status: ('A' for Active; 'I' for Inactive)
REMARK    1  A    between atoms: C_8  and  N_10
REMARK    2  A    between atoms: C_11  and  C_13
REMARK    3  A    between atoms: C_13  and  C_14
REMARK    4  A    between atoms: C_21  and  C_22
REMARK    5  A    between atoms: C_21  and  N_55
REMARK    6  A    between atoms: C_27  and  C_28
REMARK                            x       y       z     vdW  Elec       q    Type
REMARK                         _______ _______ _______ _____ _____    ______ ____
ROOT
ATOM      1  C   UNL     1      -3.655   0.403   3.244  0.00  0.00    +0.028 C 
ATOM      2  C   UNL     1      -4.543   0.919   4.340  0.00  0.00    +0.200 C 
ATOM      3  O   UNL     1      -4.872   2.086   4.321  0.00  0.00    -0.278 OA
ATOM      4  N   UNL     1      -4.987   0.145   5.336  0.00  0.00    -0.318 N 
ATOM      5  C   UNL     1      -4.621  -1.262   5.471  0.00  0.00    +0.085 C 
ATOM      6  C   UNL     1      -4.083  -1.794   4.141  0.00  0.00    -0.058 C 
ATOM      7  H   UNL     1      -5.578   0.535   5.999  0.00  0.00    +0.149 HD
ATOM      8  N   UNL     1      -3.036  -0.867   3.668  0.00  0.00    +0.391 N 
ATOM      9  H   UNL     1      -2.381  -0.680   4.436  0.00  0.00    -0.080 HD
ENDROOT
BRANCH   1  10
ATOM     10  C   UNL     1      -2.551   1.425   2.962  0.00  0.00    +0.089 C 
BRANCH  10  12
ATOM     11  N   UNL     1      -0.633   2.416   4.169  0.00  0.00    -0.312 N 
ATOM     12  C   UNL     1      -1.731   1.635   4.208  0.00  0.00    +0.212 C 
ATOM     13  O   UNL     1      -2.058   1.101   5.247  0.00  0.00    -0.276 OA
ATOM     14  H   UNL     1      -0.371   2.843   3.338  0.00  0.00    +0.149 HD
BRANCH  11  22
ATOM     15  C   UNL     1       4.385   3.959   7.114  0.00  0.00    +0.000 A 
ATOM     16  C   UNL     1       4.537   2.591   7.248  0.00  0.00    +0.000 A 
ATOM     17  C   UNL     1       3.569   1.738   6.755  0.00  0.00    +0.004 A 
ATOM     18  C   UNL     1       2.445   2.249   6.128  0.00  0.00    -0.042 A 
ATOM     19  C   UNL     1       2.292   3.616   5.994  0.00  0.00    -0.042 A 
ATOM     20  C   UNL     1       3.265   4.470   6.488  0.00  0.00    +0.004 A 
ATOM     21  C   UNL     1       0.993   3.919   5.279  0.00  0.00    +0.058 C 
ATOM     22  C   UNL     1       0.164   2.621   5.381  0.00  0.00    +0.082 C 
ATOM     23  C   UNL     1       1.258   1.539   5.512  0.00  0.00    +0.058 C 
ENDBRANCH  11  22
ENDBRANCH  10  12
ENDBRANCH   1  10
BRANCH   8  24
ATOM     24  C   UNL     1      -2.294  -1.471   2.538  0.00  0.00    -0.041 C 
BRANCH  24  25
ATOM     25  C   UNL     1      -1.946  -2.897   2.879  0.00  0.00    -0.052 A 
ATOM     26  C   UNL     1      -2.673  -3.937   2.328  0.00  0.00    +0.002 A 
ATOM     27  C   UNL     1      -2.352  -5.245   2.638  0.00  0.00    +0.000 A 
ATOM     28  C   UNL     1      -1.310  -5.514   3.506  0.00  0.00    +0.001 A 
ATOM     29  C   UNL     1      -0.587  -4.475   4.060  0.00  0.00    +0.012 A 
ATOM     30  C   UNL     1      -0.905  -3.166   3.747  0.00  0.00    +0.056 A 
BRANCH  30  31
ATOM     31  C   UNL     1      -0.117  -2.034   4.353  0.00  0.00    +0.418 C 
ATOM     32  F   UNL     1       0.923  -2.553   5.131  0.00  0.00    -0.166 F 
ATOM     33  F   UNL     1       0.416  -1.239   3.332  0.00  0.00    -0.166 F 
ATOM     34  F   UNL     1      -0.959  -1.257   5.157  0.00  0.00    -0.166 F 
ENDBRANCH  30  31
ENDBRANCH  24  25
ENDBRANCH   8  24
TORSDOF 6
