REMARK  Name = ZINC12600975
REMARK  6 active torsions:
REMARK  status: ('A' for Active; 'I' for Inactive)
REMARK    1  A    between atoms: C_3  and  C_16
REMARK    2  A    between atoms: C_5  and  S_7
REMARK    3  A    between atoms: S_7  and  N_10
REMARK    4  A    between atoms: C_19  and  S_21
REMARK    5  A    between atoms: S_21  and  C_22
REMARK    6  A    between atoms: C_22  and  C_23
REMARK                            x       y       z     vdW  Elec       q    Type
REMARK                         _______ _______ _______ _____ _____    ______ ____
ROOT
ATOM      1  C   UNL     1       2.419   3.937  -0.000  0.00  0.00    +0.249 A 
ATOM      2  N   UNL     1       2.540   5.242   0.006  0.00  0.00    -0.106 NA
ATOM      3  N   UNL     1       3.788   5.556  -0.005  0.00  0.00    -0.101 NA
ATOM      4  C   UNL     1       4.514   4.462  -0.019  0.00  0.00    +0.278 A 
ATOM      5  O   UNL     1       3.666   3.416  -0.010  0.00  0.00    -0.411 OA
ENDROOT
BRANCH   1   8
ATOM      6  C   UNL     1      -0.013   1.076   0.008  0.00  0.00    +0.003 A 
ATOM      7  C   UNL     1       1.174   1.780   0.000  0.00  0.00    +0.013 A 
ATOM      8  C   UNL     1       1.153   3.176   0.008  0.00  0.00    +0.040 A 
ATOM      9  C   UNL     1      -0.070   3.850   0.023  0.00  0.00    +0.041 A 
ATOM     10  C   UNL     1      -1.249   3.133   0.031  0.00  0.00    +0.106 A 
ATOM     11  C   UNL     1      -1.221   1.750   0.017  0.00  0.00    +0.028 A 
BRANCH  10  12
ATOM     12  S   UNL     1      -2.793   3.981   0.050  0.00  0.00    +0.061 S 
ATOM     13  O   UNL     1      -3.743   3.082   0.605  0.00  0.00    -0.153 OA
ATOM     14  O   UNL     1      -2.544   5.266   0.605  0.00  0.00    -0.153 OA
BRANCH  12  15
ATOM     15  N   UNL     1      -3.237   4.225  -1.527  0.00  0.00    -0.172 NA
ATOM     16  C   UNL     1      -2.838   5.445  -2.247  0.00  0.00    +0.137 C 
ATOM     17  C   UNL     1      -2.205   5.027  -3.584  0.00  0.00    +0.177 C 
ATOM     18  O   UNL     1      -3.099   4.149  -4.272  0.00  0.00    -0.377 OA
ATOM     19  C   UNL     1      -3.360   2.923  -3.584  0.00  0.00    +0.177 C 
ATOM     20  C   UNL     1      -4.047   3.230  -2.248  0.00  0.00    +0.137 C 
ENDBRANCH  12  15
ENDBRANCH  10  12
ENDBRANCH   1   8
BRANCH   4  21
ATOM     21  S   UNL     1       6.274   4.378  -0.037  0.00  0.00    -0.058 S 
BRANCH  21  22
ATOM     22  C   UNL     1       6.672   6.144  -0.032  0.00  0.00    +0.153 C 
BRANCH  22  23
ATOM     23  C   UNL     1       8.169   6.321  -0.046  0.00  0.00    +0.121 A 
ATOM     24  N   UNL     1       8.670   7.584  -0.045  0.00  0.00    -0.309 N 
ATOM     25  H   UNL     1       8.072   8.348  -0.035  0.00  0.00    +0.170 HD
ATOM     26  C   UNL     1      10.012   7.766  -0.057  0.00  0.00    +0.266 A 
ATOM     27  O   UNL     1      10.494   8.886  -0.056  0.00  0.00    -0.267 OA
ATOM     28  C   UNL     1      10.829   6.635  -0.071  0.00  0.00    +0.102 A 
ATOM     29  C   UNL     1      10.285   5.338  -0.072  0.00  0.00    +0.085 A 
ATOM     30  N   UNL     1       8.914   5.262  -0.054  0.00  0.00    -0.232 NA
ATOM     31  C   UNL     1      11.218   4.293  -0.087  0.00  0.00    +0.036 A 
ATOM     32  C   UNL     1      12.541   4.562  -0.098  0.00  0.00    +0.048 A 
ATOM     33  S   UNL     1      12.579   6.347  -0.089  0.00  0.00    -0.090 S 
ENDBRANCH  22  23
ENDBRANCH  21  22
ENDBRANCH   4  21
TORSDOF 6
