REMARK  Name = ZINC55127368
REMARK  6 active torsions:
REMARK  status: ('A' for Active; 'I' for Inactive)
REMARK    1  A    between atoms: C_1  and  C_2
REMARK    2  A    between atoms: C_5  and  C_12
REMARK    3  A    between atoms: C_9  and  N_11
REMARK    4  A    between atoms: N_14  and  C_15
REMARK    5  A    between atoms: C_15  and  C_17
REMARK    6  A    between atoms: C_15  and  C_18
REMARK                            x       y       z     vdW  Elec       q    Type
REMARK                         _______ _______ _______ _____ _____    ______ ____
ROOT
ATOM      1  C   UNL     1      -0.019   1.526   0.010  0.00  0.00    +0.006 C 
ATOM      2  C   UNL     1       0.002  -0.004   0.002  0.00  0.00    -0.028 C 
ATOM      3  C   UNL     1      -1.433  -0.534   0.013  0.00  0.00    +0.014 C 
ATOM      4  C   UNL     1      -2.149  -0.040   1.272  0.00  0.00    +0.075 C 
ATOM      5  C   UNL     1      -1.409  -0.547   2.511  0.00  0.00    +0.011 C 
ATOM      6  C   UNL     1       0.026  -0.018   2.500  0.00  0.00    -0.015 C 
ATOM      7  C   UNL     1       0.742  -0.511   1.242  0.00  0.00    -0.072 C 
ENDROOT
BRANCH   7   8
ATOM      8  N   UNL     1       2.120  -0.002   1.231  0.00  0.00    +0.380 N 
ATOM      9  H   UNL     1       2.107   1.006   1.237  0.00  0.00    -0.090 HD
ATOM     10  H   UNL     1       2.608  -0.337   2.049  0.00  0.00    -0.090 HD
ATOM     11  H   UNL     1       2.592  -0.328   0.401  0.00  0.00    -0.090 HD
ENDBRANCH   7   8
BRANCH   4  12
ATOM     12  C   UNL     1      -3.563  -0.562   1.282  0.00  0.00    +0.216 C 
ATOM     13  O   UNL     1      -3.959  -1.260   0.373  0.00  0.00    -0.276 OA
ATOM     14  N   UNL     1      -4.388  -0.253   2.303  0.00  0.00    -0.310 N 
ATOM     15  H   UNL     1      -4.071   0.305   3.030  0.00  0.00    +0.149 HD
BRANCH  14  16
ATOM     16  C   UNL     1      -5.762  -0.760   2.313  0.00  0.00    +0.099 C 
ATOM     17  C   UNL     1      -5.782  -2.166   2.916  0.00  0.00    +0.030 C 
BRANCH  16  18
ATOM     18  C   UNL     1      -6.642   0.168   3.154  0.00  0.00    +0.138 C 
ATOM     19  C   UNL     1      -6.623   1.591   2.556  0.00  0.00    +0.035 C 
ATOM     20  C   UNL     1      -6.589   2.482   3.827  0.00  0.00    +0.031 C 
ATOM     21  C   UNL     1      -5.738   1.604   4.779  0.00  0.00    +0.160 C 
ATOM     22  O   UNL     1      -6.125   0.250   4.487  0.00  0.00    -0.375 OA
ENDBRANCH  16  18
ENDBRANCH  14  16
ENDBRANCH   4  12
TORSDOF 4
