REMARK  Name = ZINC45666608
REMARK  11 active torsions:
REMARK  status: ('A' for Active; 'I' for Inactive)
REMARK    1  A    between atoms: C_1  and  C_2
REMARK    2  A    between atoms: C_2  and  N_3
REMARK    3  A    between atoms: N_3  and  C_4
REMARK    4  A    between atoms: N_3  and  C_6
REMARK    5  A    between atoms: C_4  and  C_5
REMARK    6  A    between atoms: C_6  and  C_7
REMARK    7  A    between atoms: C_7  and  C_9
REMARK    8  A    between atoms: C_7  and  N_10
REMARK    9  A    between atoms: N_10  and  S_11
REMARK   10  A    between atoms: S_11  and  C_14
REMARK   11  A    between atoms: C_19  and  N_20
REMARK                            x       y       z     vdW  Elec       q    Type
REMARK                         _______ _______ _______ _____ _____    ______ ____
ROOT
ATOM      1  S   UNL     1       0.766  -1.559   3.282  0.00  0.00    +0.060 S 
ATOM      2  O   UNL     1       2.046  -0.953   3.164  0.00  0.00    -0.153 OA
ATOM      3  O   UNL     1      -0.342  -0.891   3.870  0.00  0.00    -0.153 OA
ENDROOT
BRANCH   1   4
ATOM      4  C   UNL     1       0.997  -3.050   4.192  0.00  0.00    +0.126 A 
ATOM      5  C   UNL     1       0.190  -3.329   5.278  0.00  0.00    +0.031 A 
ATOM      6  C   UNL     1       0.369  -4.498   5.993  0.00  0.00    +0.017 A 
ATOM      7  C   UNL     1       1.358  -5.394   5.624  0.00  0.00    +0.020 A 
ATOM      8  C   UNL     1       2.169  -5.120   4.539  0.00  0.00    +0.040 A 
ATOM      9  C   UNL     1       1.987  -3.949   3.815  0.00  0.00    +0.052 A 
ATOM     10 BR   UNL     1       1.600  -6.992   6.606  0.00  0.00    -0.050 Br
BRANCH   9  11
ATOM     11  N   UNL     1       2.801  -3.672   2.715  0.00  0.00    -0.356 N 
ATOM     12  H   UNL     1       2.720  -2.823   2.253  0.00  0.00    +0.142 HD
ATOM     13  H   UNL     1       3.447  -4.329   2.412  0.00  0.00    +0.142 HD
ENDBRANCH   9  11
ENDBRANCH   1   4
BRANCH   1  14
ATOM     14  N   UNL     1       0.302  -1.987   1.751  0.00  0.00    -0.189 NA
ATOM     15  H   UNL     1       0.876  -1.783   0.995  0.00  0.00    +0.148 HD
BRANCH  14  16
ATOM     16  C   UNL     1      -0.974  -2.674   1.537  0.00  0.00    +0.057 C 
ATOM     17  C   UNL     1      -0.733  -4.183   1.452  0.00  0.00    +0.024 C 
BRANCH  16  18
ATOM     18  C   UNL     1      -1.605  -2.184   0.232  0.00  0.00    -0.059 C 
BRANCH  18  19
ATOM     19  N   UNL     1      -1.962  -0.765   0.364  0.00  0.00    +0.380 N 
ATOM     20  H   UNL     1      -2.519  -0.634   1.195  0.00  0.00    -0.082 HD
BRANCH  19  22
ATOM     21  C   UNL     1       0.171  -0.264  -0.730  0.00  0.00    -0.017 C 
ATOM     22  C   UNL     1      -0.738   0.041   0.462  0.00  0.00    -0.082 C 
ENDBRANCH  19  22
BRANCH  19  23
ATOM     23  C   UNL     1      -2.733  -0.343  -0.813  0.00  0.00    -0.082 C 
ATOM     24  C   UNL     1      -3.229   1.090  -0.611  0.00  0.00    -0.017 C 
ENDBRANCH  19  23
ENDBRANCH  18  19
ENDBRANCH  16  18
ENDBRANCH  14  16
ENDBRANCH   1  14
TORSDOF 8
