REMARK  Name = ZINC04451962
REMARK  6 active torsions:
REMARK  status: ('A' for Active; 'I' for Inactive)
REMARK    1  A    between atoms: C_8  and  O_10
REMARK    2  A    between atoms: O_10  and  C_11
REMARK    3  A    between atoms: C_11  and  C_12
REMARK    4  A    between atoms: C_12  and  O_13
REMARK    5  A    between atoms: C_14  and  C_15
REMARK    6  A    between atoms: C_14  and  C_19
REMARK                            x       y       z     vdW  Elec       q    Type
REMARK                         _______ _______ _______ _____ _____    ______ ____
ROOT
ATOM      1  C   UNL     1      -0.198  -0.495   0.503  0.00  0.00    +0.034 C 
ATOM      2  C   UNL     1       1.309  -0.891   0.422  0.00  0.00    +0.014 C 
ATOM      3  C   UNL     1       1.708  -0.229  -0.945  0.00  0.00    +0.071 C 
ATOM      4  C   UNL     1       1.219   1.210  -0.554  0.00  0.00    -0.023 C 
ATOM      5  C   UNL     1      -0.254   0.913  -0.136  0.00  0.00    +0.106 C 
ATOM      6  C   UNL     1       2.009   0.083   1.421  0.00  0.00    +0.129 C 
ATOM      7 CL   UNL     1       3.486  -0.287  -1.237  0.00  0.00    -0.123 Cl
ATOM      8  N   UNL     1       1.936   1.395   0.766  0.00  0.00    +0.399 N 
ATOM      9  H   UNL     1       1.415   2.054   1.357  0.00  0.00    -0.084 HD
ATOM     10  H   UNL     1       2.882   1.758   0.602  0.00  0.00    -0.084 HD
ENDROOT
BRANCH   6  11
ATOM     11  C   UNL     1       1.260   0.104   2.755  0.00  0.00    +0.390 C 
ATOM     12  F   UNL     1       1.071  -1.208   3.204  0.00  0.00    -0.172 F 
ATOM     13  F   UNL     1       2.008   0.817   3.698  0.00  0.00    -0.172 F 
ATOM     14  F   UNL     1       0.017   0.722   2.582  0.00  0.00    -0.172 F 
ENDBRANCH   6  11
BRANCH   6  15
ATOM     15  C   UNL     1       3.466  -0.333   1.635  0.00  0.00    +0.390 C 
ATOM     16  F   UNL     1       4.275   0.295   0.682  0.00  0.00    -0.172 F 
ATOM     17  F   UNL     1       3.875   0.047   2.918  0.00  0.00    -0.172 F 
ATOM     18  F   UNL     1       3.579  -1.721   1.501  0.00  0.00    -0.172 F 
ENDBRANCH   6  15
BRANCH   5  19
ATOM     19  O   UNL     1      -0.705   1.876   0.819  0.00  0.00    -0.376 OA
BRANCH  19  20
ATOM     20  C   UNL     1      -2.120   2.077   0.818  0.00  0.00    +0.188 C 
BRANCH  20  21
ATOM     21  C   UNL     1      -2.487   3.122   1.872  0.00  0.00    +0.184 C 
BRANCH  21  22
ATOM     22  O   UNL     1      -1.926   4.385   1.507  0.00  0.00    -0.393 OA
ATOM     23  H   UNL     1      -2.120   5.097   2.133  0.00  0.00    +0.209 HD
ENDBRANCH  21  22
ENDBRANCH  20  21
ENDBRANCH  19  20
ENDBRANCH   5  19
TORSDOF 6
