REMARK  Name = ZINC62789049
REMARK  3 active torsions:
REMARK  status: ('A' for Active; 'I' for Inactive)
REMARK    1  A    between atoms: C_6  and  O_7
REMARK    2  A    between atoms: O_7  and  C_8
REMARK    3  A    between atoms: C_13  and  C_14
REMARK                            x       y       z     vdW  Elec       q    Type
REMARK                         _______ _______ _______ _____ _____    ______ ____
ROOT
ATOM      1  C   UNL     1      -1.099  -2.052  -0.225  0.00  0.00    +0.140 A 
ATOM      2  C   UNL     1       0.129  -2.694  -0.230  0.00  0.00    +0.067 A 
ATOM      3  C   UNL     1       0.188  -4.075  -0.219  0.00  0.00    +0.044 A 
ATOM      4  C   UNL     1      -0.977  -4.826  -0.202  0.00  0.00    +0.021 A 
ATOM      5  C   UNL     1      -2.206  -4.203  -0.197  0.00  0.00    +0.016 A 
ATOM      6  C   UNL     1      -2.279  -2.808  -0.203  0.00  0.00    +0.054 A 
ATOM      7 CL   UNL     1       1.730  -4.873  -0.227  0.00  0.00    -0.083 Cl
ENDROOT
BRANCH   6   8
ATOM      8  C   UNL     1      -3.592  -2.134  -0.191  0.00  0.00    +0.098 C 
ATOM      9  N   UNL     1      -4.492  -2.410  -1.135  0.00  0.00    -0.387 N 
ATOM     10  N   UNL     1      -3.879  -1.249   0.764  0.00  0.00    -0.344 N 
ATOM     11  H   UNL     1      -5.381  -2.025  -1.086  0.00  0.00    +0.157 HD
ATOM     12  H   UNL     1      -3.225  -1.048   1.451  0.00  0.00    +0.144 HD
ATOM     13  H   UNL     1      -4.742  -0.806   0.771  0.00  0.00    +0.144 HD
ATOM     14  H   UNL     1      -4.257  -2.996  -1.872  0.00  0.00    +0.157 HD
ENDBRANCH   6   8
BRANCH   1  15
ATOM     15  O   UNL     1      -1.159  -0.697  -0.237  0.00  0.00    -0.455 OA
BRANCH  15  21
ATOM     16  C   UNL     1       0.596   0.118  -1.620  0.00  0.00    +0.047 A 
ATOM     17  C   UNL     1       1.779   0.819  -1.756  0.00  0.00    +0.019 A 
ATOM     18  C   UNL     1       2.373   1.395  -0.647  0.00  0.00    +0.018 A 
ATOM     19  C   UNL     1       1.784   1.271   0.599  0.00  0.00    +0.019 A 
ATOM     20  C   UNL     1       0.602   0.571   0.739  0.00  0.00    +0.047 A 
ATOM     21  C   UNL     1       0.004  -0.008  -0.372  0.00  0.00    +0.129 A 
ATOM     22 BR   UNL     1       3.992   2.354  -0.835  0.00  0.00    -0.050 Br
ENDBRANCH  15  21
ENDBRANCH   1  15
TORSDOF 3
