REMARK  Name = ZINC66244695
REMARK  10 active torsions:
REMARK  status: ('A' for Active; 'I' for Inactive)
REMARK    1  A    between atoms: C_1  and  C_2
REMARK    2  A    between atoms: N_5  and  C_9
REMARK    3  A    between atoms: C_9  and  C_10
REMARK    4  A    between atoms: C_14  and  C_16
REMARK    5  A    between atoms: C_16  and  N_17
REMARK    6  A    between atoms: N_20  and  C_21
REMARK    7  A    between atoms: C_21  and  C_22
REMARK    8  A    between atoms: C_22  and  C_23
REMARK    9  A    between atoms: C_26  and  O_29
REMARK   10  A    between atoms: O_29  and  C_30
REMARK                            x       y       z     vdW  Elec       q    Type
REMARK                         _______ _______ _______ _____ _____    ______ ____
ROOT
ATOM      1  N   UNL     1      -2.224  -6.713  -2.825  0.00  0.00    -0.354 N 
ATOM      2  C   UNL     1      -3.425  -7.262  -3.207  0.00  0.00    +0.169 C 
ATOM      3  N   UNL     1      -3.608  -7.633  -4.443  0.00  0.00    -0.371 N 
ATOM      4  N   UNL     1      -4.434  -7.419  -2.286  0.00  0.00    -0.357 N 
ATOM      5  H   UNL     1      -2.088  -6.437  -1.905  0.00  0.00    +0.163 HD
ATOM      6  H   UNL     1      -4.455  -8.020  -4.713  0.00  0.00    +0.159 HD
ATOM      7  H   UNL     1      -4.298  -7.143  -1.366  0.00  0.00    +0.162 HD
ATOM      8  H   UNL     1      -2.896  -7.522  -5.093  0.00  0.00    +0.159 HD
ENDROOT
BRANCH   1   9
ATOM      9  C   UNL     1      -1.149  -6.545  -3.806  0.00  0.00    +0.151 C 
BRANCH   9  14
ATOM     10  C   UNL     1       1.289  -3.985  -2.484  0.00  0.00    -0.033 A 
ATOM     11  C   UNL     1       2.253  -4.793  -1.909  0.00  0.00    +0.005 A 
ATOM     12  C   UNL     1       2.116  -6.168  -1.949  0.00  0.00    +0.001 A 
ATOM     13  C   UNL     1       1.015  -6.735  -2.563  0.00  0.00    +0.005 A 
ATOM     14  C   UNL     1       0.051  -5.927  -3.137  0.00  0.00    -0.028 A 
ATOM     15  C   UNL     1       0.186  -4.552  -3.093  0.00  0.00    +0.010 A 
BRANCH  10  16
ATOM     16  C   UNL     1       1.439  -2.486  -2.440  0.00  0.00    +0.119 C 
BRANCH  16  20
ATOM     17  C   UNL     1      -0.019   1.526   0.010  0.00  0.00    +0.039 C 
ATOM     18  C   UNL     1       0.002  -0.004   0.002  0.00  0.00    +0.129 C 
ATOM     19  C   UNL     1       0.720  -0.499  -1.256  0.00  0.00    +0.116 C 
ATOM     20  N   UNL     1       0.805  -1.966  -1.221  0.00  0.00    -0.294 NA
ATOM     21  C   UNL     1       1.523  -2.417  -0.020  0.00  0.00    +0.113 C 
ATOM     22  C   UNL     1       0.797  -1.904   1.226  0.00  0.00    +0.175 C 
ATOM     23  O   UNL     1       0.695  -0.479   1.159  0.00  0.00    -0.374 OA
ENDBRANCH  16  20
ENDBRANCH  10  16
ENDBRANCH   9  14
ENDBRANCH   1   9
BRANCH   4  24
ATOM     24  C   UNL     1      -5.713  -8.004  -2.694  0.00  0.00    +0.120 C 
BRANCH  24  25
ATOM     25  C   UNL     1      -6.653  -8.066  -1.488  0.00  0.00    +0.056 C 
BRANCH  25  26
ATOM     26  C   UNL     1      -7.970  -8.667  -1.907  0.00  0.00    -0.045 A 
ATOM     27  C   UNL     1      -8.985  -7.851  -2.371  0.00  0.00    +0.007 A 
ATOM     28  C   UNL     1     -10.193  -8.399  -2.756  0.00  0.00    +0.046 A 
ATOM     29  C   UNL     1     -10.387  -9.771  -2.677  0.00  0.00    +0.120 A 
ATOM     30  C   UNL     1      -9.367 -10.588  -2.212  0.00  0.00    +0.046 A 
ATOM     31  C   UNL     1      -8.159 -10.035  -1.833  0.00  0.00    +0.007 A 
BRANCH  29  32
ATOM     32  O   UNL     1     -11.574 -10.313  -3.054  0.00  0.00    -0.495 OA
ATOM     33  C   UNL     1     -11.703 -11.732  -2.946  0.00  0.00    +0.277 C 
ENDBRANCH  29  32
ENDBRANCH  25  26
ENDBRANCH  24  25
ENDBRANCH   4  24
TORSDOF 8
