REMARK  Name = ZINC63486046
REMARK  6 active torsions:
REMARK  status: ('A' for Active; 'I' for Inactive)
REMARK    1  A    between atoms: C_1  and  C_2
REMARK    2  A    between atoms: C_7  and  N_8
REMARK    3  A    between atoms: N_8  and  C_9
REMARK    4  A    between atoms: C_9  and  N_11
REMARK    5  A    between atoms: N_11  and  C_12
REMARK    6  A    between atoms: C_12  and  C_13
REMARK                            x       y       z     vdW  Elec       q    Type
REMARK                         _______ _______ _______ _____ _____    ______ ____
ROOT
ATOM      1  C   UNL     1      -0.244  -0.766   6.006  0.00  0.00    +0.138 C 
ENDROOT
BRANCH   1   2
ATOM      2  C   UNL     1      -0.345   0.208   7.152  0.00  0.00    -0.030 A 
ATOM      3  C   UNL     1       0.830   0.668   7.762  0.00  0.00    +0.007 A 
ATOM      4  C   UNL     1       0.821   1.538   8.795  0.00  0.00    +0.026 A 
ATOM      5  C   UNL     1      -0.407   2.029   9.313  0.00  0.00    +0.043 A 
ATOM      6  N   UNL     1      -0.670   2.881  10.278  0.00  0.00    -0.378 N 
ATOM      7  C   UNL     1      -2.118   2.961  10.444  0.00  0.00    +0.106 C 
ATOM      8  C   UNL     1      -2.640   4.393  10.304  0.00  0.00    +0.029 C 
ATOM      9  C   UNL     1      -4.168   4.347  10.204  0.00  0.00    +0.003 C 
ATOM     10  C   UNL     1      -4.616   3.641   8.926  0.00  0.00    +0.004 C 
ATOM     11  C   UNL     1      -4.172   2.168   8.956  0.00  0.00    +0.033 C 
ATOM     12  C   UNL     1      -2.701   2.147   9.302  0.00  0.00    -0.038 C 
ATOM     13  C   UNL     1      -1.667   1.563   8.681  0.00  0.00    -0.001 A 
ATOM     14  C   UNL     1      -1.566   0.618   7.561  0.00  0.00    +0.015 A 
ATOM     15  H   UNL     1      -0.012   3.373  10.794  0.00  0.00    +0.160 HD
ENDBRANCH   1   2
BRANCH   1  16
ATOM     16  N   UNL     1      -0.155  -0.027   4.744  0.00  0.00    -0.322 N 
ATOM     17  H   UNL     1      -0.168   0.943   4.748  0.00  0.00    +0.148 HD
BRANCH  16  18
ATOM     18  C   UNL     1      -0.056  -0.695   3.578  0.00  0.00    +0.135 C 
ATOM     19  S   UNL     1      -0.034  -2.406   3.571  0.00  0.00    -0.019 S 
BRANCH  18  20
ATOM     20  N   UNL     1       0.026  -0.015   2.417  0.00  0.00    -0.297 N 
ATOM     21  H   UNL     1       0.076   0.954   2.425  0.00  0.00    +0.154 HD
BRANCH  20  28
ATOM     22  C   UNL     1      -1.703   0.884   0.343  0.00  0.00    +0.045 C 
ATOM     23  C   UNL     1      -0.790  -0.301   0.162  0.00  0.00    -0.029 A 
ATOM     24  C   UNL     1      -0.771  -0.982  -1.040  0.00  0.00    +0.005 A 
ATOM     25  C   UNL     1       0.066  -2.070  -1.207  0.00  0.00    +0.000 A 
ATOM     26  C   UNL     1       0.887  -2.479  -0.172  0.00  0.00    +0.002 A 
ATOM     27  C   UNL     1       0.873  -1.803   1.032  0.00  0.00    +0.023 A 
ATOM     28  C   UNL     1       0.037  -0.706   1.201  0.00  0.00    +0.036 A 
ENDBRANCH  20  28
ENDBRANCH  18  20
ENDBRANCH  16  18
ENDBRANCH   1  16
TORSDOF 5
