REMARK  Name = ZINC60343233
REMARK  11 active torsions:
REMARK  status: ('A' for Active; 'I' for Inactive)
REMARK    1  A    between atoms: C_4  and  N_16
REMARK    2  A    between atoms: C_5  and  C_7
REMARK    3  A    between atoms: N_9  and  C_10
REMARK    4  A    between atoms: C_10  and  C_11
REMARK    5  A    between atoms: C_17  and  C_19
REMARK    6  A    between atoms: C_19  and  N_20
REMARK    7  A    between atoms: N_20  and  C_21
REMARK    8  A    between atoms: N_20  and  C_29
REMARK    9  A    between atoms: C_21  and  C_22
REMARK   10  A    between atoms: C_26  and  O_28
REMARK   11  A    between atoms: C_32  and  O_35
REMARK                            x       y       z     vdW  Elec       q    Type
REMARK                         _______ _______ _______ _____ _____    ______ ____
ROOT
ATOM      1  N   UNL     1       5.047  -2.651  -1.119  0.00  0.00    -0.286 N 
ATOM      2  C   UNL     1       5.903  -1.633  -0.908  0.00  0.00    +0.201 C 
ATOM      3  O   UNL     1       6.685  -1.307  -1.777  0.00  0.00    -0.278 OA
ATOM      4  H   UNL     1       4.371  -2.862  -0.457  0.00  0.00    +0.155 HD
ENDROOT
BRANCH   1   8
ATOM      5  C   UNL     1       5.306  -4.900  -4.622  0.00  0.00    +0.001 A 
ATOM      6  C   UNL     1       6.420  -4.239  -4.132  0.00  0.00    +0.002 A 
ATOM      7  C   UNL     1       6.338  -3.494  -2.973  0.00  0.00    +0.024 A 
ATOM      8  C   UNL     1       5.132  -3.402  -2.289  0.00  0.00    +0.045 A 
ATOM      9  C   UNL     1       4.002  -4.070  -2.783  0.00  0.00    +0.058 A 
ATOM     10  C   UNL     1       4.101  -4.820  -3.957  0.00  0.00    +0.015 A 
BRANCH   9  11
ATOM     11  C   UNL     1       2.716  -3.981  -2.066  0.00  0.00    +0.246 C 
ATOM     12  O   UNL     1       2.606  -3.245  -1.104  0.00  0.00    -0.270 OA
ATOM     13  N   UNL     1       1.663  -4.714  -2.477  0.00  0.00    -0.304 N 
ATOM     14  H   UNL     1       1.750  -5.301  -3.245  0.00  0.00    +0.149 HD
BRANCH  13  15
ATOM     15  C   UNL     1       0.385  -4.626  -1.765  0.00  0.00    +0.179 C 
BRANCH  15  16
ATOM     16  C   UNL     1      -0.620  -5.538  -2.421  0.00  0.00    +0.122 A 
ATOM     17  C   UNL     1      -0.838  -6.827  -2.102  0.00  0.00    +0.046 A 
ATOM     18  C   UNL     1      -1.858  -7.294  -2.961  0.00  0.00    +0.041 A 
ATOM     19  C   UNL     1      -2.203  -6.264  -3.754  0.00  0.00    +0.195 A 
ATOM     20  O   UNL     1      -1.453  -5.201  -3.418  0.00  0.00    -0.466 OA
ENDBRANCH  15  16
ENDBRANCH  13  15
ENDBRANCH   9  11
ENDBRANCH   1   8
BRANCH   2  21
ATOM     21  C   UNL     1       5.890  -0.897   0.407  0.00  0.00    +0.020 C 
BRANCH  21  22
ATOM     22  N   UNL     1       7.002   0.062   0.443  0.00  0.00    +0.390 N 
ATOM     23  H   UNL     1       7.024   0.518   1.343  0.00  0.00    -0.080 HD
BRANCH  22  24
ATOM     24  C   UNL     1       8.269  -0.648   0.223  0.00  0.00    -0.067 C 
ATOM     25  C   UNL     1       8.395  -1.790   1.233  0.00  0.00    -0.013 C 
ATOM     26  C   UNL     1       9.714  -2.530   1.004  0.00  0.00    +0.030 C 
ATOM     27  C   UNL     1      10.882  -1.558   1.185  0.00  0.00    +0.114 C 
ATOM     28  C   UNL     1      10.756  -0.416   0.175  0.00  0.00    +0.030 C 
ATOM     29  C   UNL     1       9.436   0.324   0.404  0.00  0.00    -0.013 C 
BRANCH  27  30
ATOM     30  O   UNL     1      12.114  -2.249   0.972  0.00  0.00    -0.392 OA
ATOM     31  H   UNL     1      12.899  -1.694   1.071  0.00  0.00    +0.210 HD
ENDBRANCH  27  30
ENDBRANCH  22  24
BRANCH  22  32
ATOM     32  C   UNL     1       6.815   1.068  -0.612  0.00  0.00    -0.042 C 
BRANCH  32  33
ATOM     33  C   UNL     1       5.596   1.898  -0.304  0.00  0.00    -0.060 A 
ATOM     34  C   UNL     1       4.345   1.461  -0.699  0.00  0.00    +0.002 A 
ATOM     35  C   UNL     1       3.224   2.220  -0.418  0.00  0.00    +0.004 A 
ATOM     36  C   UNL     1       3.352   3.418   0.258  0.00  0.00    +0.045 A 
ATOM     37  C   UNL     1       4.605   3.859   0.656  0.00  0.00    +0.117 A 
ATOM     38  C   UNL     1       5.728   3.092   0.379  0.00  0.00    +0.047 A 
BRANCH  37  39
ATOM     39  O   UNL     1       4.733   5.037   1.322  0.00  0.00    -0.507 OA
ATOM     40  H   UNL     1       4.675   4.953   2.284  0.00  0.00    +0.292 HD
ENDBRANCH  37  39
ENDBRANCH  32  33
ENDBRANCH  22  32
ENDBRANCH  21  22
ENDBRANCH   2  21
TORSDOF 11
