REMARK  Name = ZINC59590040
REMARK  3 active torsions:
REMARK  status: ('A' for Active; 'I' for Inactive)
REMARK    1  A    between atoms: C_6  and  C_11
REMARK    2  A    between atoms: C_17  and  S_24
REMARK    3  A    between atoms: S_24  and  N_27
REMARK                            x       y       z     vdW  Elec       q    Type
REMARK                         _______ _______ _______ _____ _____    ______ ____
ROOT
ATOM      1  C   UNL     1       5.008  -2.700  -0.060  0.00  0.00    +0.191 C 
ATOM      2  N   UNL     1       6.002  -1.891  -0.761  0.00  0.00    -0.322 N 
ATOM      3  C   UNL     1       5.971  -1.660  -2.134  0.00  0.00    +0.057 A 
ATOM      4  C   UNL     1       6.642  -0.550  -2.643  0.00  0.00    +0.047 A 
ATOM      5  C   UNL     1       6.644  -0.303  -4.001  0.00  0.00    +0.069 A 
ATOM      6  C   UNL     1       5.981  -1.156  -4.867  0.00  0.00    +0.125 A 
ATOM      7  C   UNL     1       5.308  -2.256  -4.367  0.00  0.00    +0.060 A 
ATOM      8  C   UNL     1       5.297  -2.501  -3.009  0.00  0.00    +0.128 A 
ATOM      9  S   UNL     1       4.401  -3.885  -2.372  0.00  0.00    +0.062 S 
ATOM     10  O   UNL     1       3.025  -3.532  -2.389  0.00  0.00    -0.153 OA
ATOM     11  O   UNL     1       4.906  -5.042  -3.024  0.00  0.00    -0.153 OA
ATOM     12  N   UNL     1       4.858  -3.988  -0.768  0.00  0.00    -0.166 NA
ATOM     13 CL   UNL     1       7.481   1.083  -4.627  0.00  0.00    -0.081 Cl
ATOM     14  H   UNL     1       6.720  -1.493  -0.243  0.00  0.00    +0.148 HD
ATOM     15  H   UNL     1       5.018  -4.838  -0.329  0.00  0.00    +0.150 HD
ENDROOT
BRANCH   1  21
ATOM     16  C   UNL     1      -0.016   1.357   0.009  0.00  0.00    +0.001 A 
ATOM     17  C   UNL     1       1.169   2.091   0.002  0.00  0.00    +0.001 A 
ATOM     18  C   UNL     1       2.378   1.468  -0.013  0.00  0.00    +0.008 A 
ATOM     19  C   UNL     1       2.438   0.063  -0.021  0.00  0.00    -0.018 A 
ATOM     20  C   UNL     1       3.668  -0.615  -0.036  0.00  0.00    +0.015 A 
ATOM     21  C   UNL     1       3.687  -1.976  -0.043  0.00  0.00    -0.011 A 
ATOM     22  C   UNL     1       2.502  -2.710  -0.036  0.00  0.00    +0.007 A 
ATOM     23  C   UNL     1       1.292  -2.087  -0.021  0.00  0.00    +0.009 A 
ATOM     24  C   UNL     1       1.233  -0.683  -0.013  0.00  0.00    -0.018 A 
ATOM     25  C   UNL     1       0.002  -0.004   0.002  0.00  0.00    +0.008 A 
ENDBRANCH   1  21
BRANCH   6  26
ATOM     26  S   UNL     1       5.995  -0.842  -6.600  0.00  0.00    +0.057 S 
ATOM     27  O   UNL     1       7.349  -0.603  -6.959  0.00  0.00    -0.153 OA
ATOM     28  O   UNL     1       5.216  -1.865  -7.205  0.00  0.00    -0.153 OA
BRANCH  26  29
ATOM     29  N   UNL     1       5.182   0.580  -6.846  0.00  0.00    -0.203 NA
ATOM     30  H   UNL     1       5.420   1.151  -7.593  0.00  0.00    +0.144 HD
ATOM     31  H   UNL     1       4.468   0.841  -6.244  0.00  0.00    +0.144 HD
ENDBRANCH  26  29
ENDBRANCH   6  26
TORSDOF 3
