REMARK  Name = ZINC35911591
REMARK  10 active torsions:
REMARK  status: ('A' for Active; 'I' for Inactive)
REMARK    1  A    between atoms: C_1  and  C_2
REMARK    2  A    between atoms: C_5  and  N_8
REMARK    3  A    between atoms: C_9  and  C_36
REMARK    4  A    between atoms: C_11  and  C_13
REMARK    5  A    between atoms: C_14  and  C_35
REMARK    6  A    between atoms: C_20  and  C_23
REMARK    7  A    between atoms: C_23  and  C_24
REMARK    8  A    between atoms: N_26  and  C_27
REMARK    9  A    between atoms: C_27  and  C_28
REMARK   10  A    between atoms: C_28  and  N_29
REMARK                            x       y       z     vdW  Elec       q    Type
REMARK                         _______ _______ _______ _____ _____    ______ ____
ROOT
ATOM      1  C   UNL     1      -0.822  -7.449  -1.353  0.00  0.00    +0.088 A 
ATOM      2  C   UNL     1      -1.613  -7.309  -2.488  0.00  0.00    +0.055 A 
ATOM      3  N   UNL     1      -2.033  -8.405  -3.112  0.00  0.00    -0.227 NA
ATOM      4  C   UNL     1      -1.715  -9.599  -2.677  0.00  0.00    +0.180 A 
ATOM      5  N   UNL     1      -0.943  -9.835  -1.570  0.00  0.00    -0.258 N 
ATOM      6  C   UNL     1      -0.484  -8.736  -0.900  0.00  0.00    +0.268 A 
ATOM      7  O   UNL     1       0.214  -8.872   0.092  0.00  0.00    -0.266 OA
ATOM      8  C   UNL     1      -0.704 -11.150  -1.250  0.00  0.00    +0.044 A 
ATOM      9  C   UNL     1      -1.205 -12.140  -1.988  0.00  0.00    +0.071 A 
ATOM     10  S   UNL     1      -2.093 -11.242  -3.250  0.00  0.00    -0.057 S 
ATOM     11  C   UNL     1      -1.988  -5.942  -3.001  0.00  0.00    +0.066 C 
ENDROOT
BRANCH   1  15
ATOM     12  N   UNL     1       0.057  -4.171  -0.021  0.00  0.00    -0.236 N 
ATOM     13  C   UNL     1       0.698  -4.966   0.875  0.00  0.00    +0.042 A 
ATOM     14  C   UNL     1       0.474  -6.251   0.525  0.00  0.00    +0.053 A 
ATOM     15  C   UNL     1      -0.335  -6.250  -0.630  0.00  0.00    +0.100 A 
ATOM     16  N   UNL     1      -0.588  -4.998  -0.950  0.00  0.00    -0.166 NA
ATOM     17  C   UNL     1       1.515  -4.498   2.051  0.00  0.00    +0.066 C 
BRANCH  12  22
ATOM     18  C   UNL     1      -0.018   1.503   0.010  0.00  0.00    +0.044 C 
ATOM     19  C   UNL     1       0.002  -0.004   0.002  0.00  0.00    -0.050 A 
ATOM     20  C   UNL     1       0.006  -0.687  -1.200  0.00  0.00    +0.005 A 
ATOM     21  C   UNL     1       0.024  -2.068  -1.211  0.00  0.00    +0.028 A 
ATOM     22  C   UNL     1       0.039  -2.771  -0.013  0.00  0.00    +0.066 A 
ATOM     23  C   UNL     1       0.036  -2.081   1.192  0.00  0.00    +0.028 A 
ATOM     24  C   UNL     1       0.023  -0.700   1.197  0.00  0.00    +0.005 A 
ENDBRANCH  12  22
ENDBRANCH   1  15
BRANCH   8  25
ATOM     25  C   UNL     1       0.139 -11.477  -0.044  0.00  0.00    +0.150 C 
BRANCH  25  26
ATOM     26  C   UNL     1       1.596 -11.452  -0.428  0.00  0.00    +0.219 C 
ATOM     27  O   UNL     1       1.918 -11.193  -1.568  0.00  0.00    -0.275 OA
ATOM     28  N   UNL     1       2.541 -11.716   0.496  0.00  0.00    -0.317 N 
ATOM     29  H   UNL     1       2.283 -11.923   1.408  0.00  0.00    +0.149 HD
BRANCH  28  30
ATOM     30  C   UNL     1       3.957 -11.692   0.123  0.00  0.00    +0.085 C 
BRANCH  30  31
ATOM     31  C   UNL     1       4.813 -12.024   1.347  0.00  0.00    -0.060 C 
BRANCH  31  32
ATOM     32  N   UNL     1       6.233 -11.999   0.973  0.00  0.00    +0.381 N 
ATOM     33  C   UNL     1       6.500 -13.066   0.001  0.00  0.00    -0.079 C 
ATOM     34  C   UNL     1       7.960 -12.994  -0.453  0.00  0.00    -0.019 C 
ATOM     35  C   UNL     1       8.876 -13.167   0.762  0.00  0.00    -0.004 C 
ATOM     36  C   UNL     1       8.537 -12.095   1.801  0.00  0.00    -0.019 C 
ATOM     37  C   UNL     1       7.056 -12.200   2.172  0.00  0.00    -0.079 C 
ATOM     38  H   UNL     1       6.455 -11.107   0.559  0.00  0.00    -0.082 HD
ENDBRANCH  31  32
ENDBRANCH  30  31
ENDBRANCH  28  30
ENDBRANCH  25  26
ENDBRANCH   8  25
TORSDOF 7
