REMARK  Name = ZINC39630067
REMARK  6 active torsions:
REMARK  status: ('A' for Active; 'I' for Inactive)
REMARK    1  A    between atoms: C_6  and  C_7
REMARK    2  A    between atoms: C_11  and  C_20
REMARK    3  A    between atoms: N_22  and  C_23
REMARK    4  A    between atoms: C_23  and  C_24
REMARK    5  A    between atoms: C_24  and  C_25
REMARK    6  A    between atoms: C_25  and  N_26
REMARK                            x       y       z     vdW  Elec       q    Type
REMARK                         _______ _______ _______ _____ _____    ______ ____
ROOT
ATOM      1  C   UNL     1      -1.264  -0.763   0.011  0.00  0.00    +0.247 C 
ATOM      2  O   UNL     1      -2.322  -0.177   0.133  0.00  0.00    -0.270 OA
ATOM      3  N   UNL     1      -1.246  -2.106  -0.098  0.00  0.00    -0.296 N 
ATOM      4  C   UNL     1      -0.064  -3.000  -0.125  0.00  0.00    +0.121 C 
ATOM      5  C   UNL     1      -0.486  -4.230   0.708  0.00  0.00    +0.100 C 
ATOM      6  C   UNL     1      -2.023  -4.241   0.641  0.00  0.00    -0.004 C 
ATOM      7  C   UNL     1      -2.405  -3.023  -0.213  0.00  0.00    +0.115 C 
ATOM      8  C   UNL     1      -2.614  -4.103   2.041  0.00  0.00    -0.010 C 
ATOM      9  C   UNL     1      -4.141  -4.174   1.954  0.00  0.00    -0.082 C 
ATOM     10  N   UNL     1      -4.540  -5.454   1.357  0.00  0.00    +0.379 N 
ATOM     11  C   UNL     1      -4.045  -5.539  -0.022  0.00  0.00    -0.082 C 
ATOM     12  C   UNL     1      -2.514  -5.526  -0.019  0.00  0.00    -0.010 C 
ATOM     13  H   UNL     1      -4.153  -6.212   1.899  0.00  0.00    -0.086 HD
ATOM     14  H   UNL     1      -5.547  -5.524   1.357  0.00  0.00    -0.086 HD
ENDROOT
BRANCH   1  20
ATOM     15  C   UNL     1       1.129  -0.539  -0.644  0.00  0.00    +0.014 A 
ATOM     16  C   UNL     1       2.308   0.175  -0.667  0.00  0.00    +0.016 A 
ATOM     17  C   UNL     1       2.377   1.423  -0.070  0.00  0.00    +0.018 A 
ATOM     18  C   UNL     1       1.264   1.961   0.554  0.00  0.00    +0.016 A 
ATOM     19  C   UNL     1       0.079   1.256   0.584  0.00  0.00    +0.014 A 
ATOM     20  C   UNL     1       0.004  -0.002  -0.017  0.00  0.00    +0.037 A 
ATOM     21 BR   UNL     1       3.999   2.396  -0.106  0.00  0.00    -0.050 Br
ENDBRANCH   1  20
BRANCH   5  22
ATOM     22  C   UNL     1       0.076  -5.491   0.104  0.00  0.00    +0.218 C 
ATOM     23  O   UNL     1       0.346  -5.529  -1.078  0.00  0.00    -0.275 OA
ATOM     24  N   UNL     1       0.280  -6.576   0.877  0.00  0.00    -0.315 N 
ATOM     25  H   UNL     1       0.064  -6.546   1.822  0.00  0.00    +0.149 HD
BRANCH  24  26
ATOM     26  C   UNL     1       0.827  -7.802   0.290  0.00  0.00    +0.106 C 
BRANCH  26  27
ATOM     27  C   UNL     1       0.957  -8.873   1.375  0.00  0.00    +0.040 C 
BRANCH  27  28
ATOM     28  C   UNL     1       1.529 -10.153   0.761  0.00  0.00    +0.124 C 
BRANCH  28  29
ATOM     29  N   UNL     1       1.654 -11.178   1.800  0.00  0.00    -0.338 N 
ATOM     30  C   UNL     1       2.742 -11.394   2.602  0.00  0.00    +0.104 A 
ATOM     31  C   UNL     1       2.433 -12.426   3.410  0.00  0.00    +0.101 A 
ATOM     32  N   UNL     1       1.190 -12.830   3.109  0.00  0.00    -0.352 N 
ATOM     33  C   UNL     1       0.715 -12.084   2.149  0.00  0.00    +0.173 A 
ATOM     34  H   UNL     1       0.717 -13.559   3.539  0.00  0.00    +0.166 HD
ENDBRANCH  28  29
ENDBRANCH  27  28
ENDBRANCH  26  27
ENDBRANCH  24  26
ENDBRANCH   5  22
TORSDOF 6
