REMARK  Name = ZINC08065039
REMARK  7 active torsions:
REMARK  status: ('A' for Active; 'I' for Inactive)
REMARK    1  A    between atoms: C_1  and  N_45
REMARK    2  A    between atoms: C_2  and  C_3
REMARK    3  A    between atoms: C_2  and  N_45
REMARK    4  A    between atoms: C_11  and  C_12
REMARK    5  A    between atoms: C_11  and  N_45
REMARK    6  A    between atoms: N_14  and  C_15
REMARK    7  A    between atoms: C_16  and  C_23
REMARK                            x       y       z     vdW  Elec       q    Type
REMARK                         _______ _______ _______ _____ _____    ______ ____
ROOT
ATOM      1  C   UNL     1       1.141   2.072   0.002  0.00  0.00    +0.201 C 
ATOM      2  O   UNL     1       2.200   1.480  -0.011  0.00  0.00    -0.278 OA
ATOM      3  N   UNL     1      -0.017   1.382   0.010  0.00  0.00    -0.281 N 
ATOM      4  H   UNL     1      -0.863   1.856   0.016  0.00  0.00    +0.155 HD
ENDROOT
BRANCH   3   5
ATOM      5  C   UNL     1       0.002  -0.004   0.002  0.00  0.00    +0.084 A 
ATOM      6  C   UNL     1      -1.071  -0.879   0.013  0.00  0.00    +0.068 A 
ATOM      7  C   UNL     1      -0.776  -2.312  -0.003  0.00  0.00    -0.023 A 
ATOM      8  C   UNL     1       0.532  -2.626  -0.017  0.00  0.00    -0.004 A 
ATOM      9  S   UNL     1       1.372  -1.061  -0.016  0.00  0.00    -0.077 S 
ATOM     10  C   UNL     1       0.754  -4.114  -0.030  0.00  0.00    +0.043 C 
ATOM     11  C   UNL     1      -0.606  -4.707  -0.459  0.00  0.00    +0.010 C 
ATOM     12  C   UNL     1      -1.586  -3.609  -0.000  0.00  0.00    +0.037 C 
BRANCH   6  13
ATOM     13  C   UNL     1      -2.452  -0.388   0.036  0.00  0.00    +0.244 C 
ATOM     14  O   UNL     1      -3.041  -0.178  -1.008  0.00  0.00    -0.270 OA
ATOM     15  N   UNL     1      -3.069  -0.167   1.214  0.00  0.00    -0.325 N 
ATOM     16  H   UNL     1      -2.600  -0.334   2.046  0.00  0.00    +0.145 HD
ATOM     17  H   UNL     1      -3.983   0.158   1.229  0.00  0.00    +0.145 HD
ENDBRANCH   6  13
ENDBRANCH   3   5
BRANCH   1  18
ATOM     18  C   UNL     1       1.121   3.579   0.011  0.00  0.00    +0.019 C 
BRANCH  18  20
ATOM     19  C   UNL     1       3.174   3.754  -1.262  0.00  0.00    -0.095 C 
ATOM     20  N   UNL     1       2.513   4.075   0.021  0.00  0.00    +0.386 N 
ATOM     21  H   UNL     1       3.025   3.615   0.784  0.00  0.00    -0.081 HD
BRANCH  20  22
ATOM     22  C   UNL     1       2.528   5.535   0.246  0.00  0.00    -0.038 C 
BRANCH  22  23
ATOM     23  C   UNL     1       3.950   5.978   0.472  0.00  0.00    -0.010 A 
ATOM     24  C   UNL     1       4.730   6.379  -0.600  0.00  0.00    +0.126 A 
ATOM     25  C   UNL     1       6.036   6.786  -0.391  0.00  0.00    +0.038 A 
ATOM     26  C   UNL     1       6.562   6.792   0.887  0.00  0.00    +0.004 A 
ATOM     27  C   UNL     1       5.784   6.392   1.958  0.00  0.00    +0.020 A 
ATOM     28  C   UNL     1       4.476   5.990   1.751  0.00  0.00    +0.045 A 
ATOM     29 CL   UNL     1       3.497   5.495   3.096  0.00  0.00    -0.083 Cl
ATOM     30  F   UNL     1       4.215   6.373  -1.849  0.00  0.00    -0.205 F 
ENDBRANCH  22  23
ENDBRANCH  20  22
ENDBRANCH  18  20
ENDBRANCH   1  18
TORSDOF 6
