REMARK  Name = ZINC41027179
REMARK  6 active torsions:
REMARK  status: ('A' for Active; 'I' for Inactive)
REMARK    1  A    between atoms: C_1  and  C_2
REMARK    2  A    between atoms: C_2  and  C_4
REMARK    3  A    between atoms: C_2  and  S_11
REMARK    4  A    between atoms: C_8  and  N_10
REMARK    5  A    between atoms: S_11  and  C_12
REMARK    6  A    between atoms: C_18  and  N_20
REMARK                            x       y       z     vdW  Elec       q    Type
REMARK                         _______ _______ _______ _____ _____    ______ ____
ROOT
ATOM      1  S   UNL     1       0.879  -0.605   1.472  0.00  0.00    -0.080 S 
ENDROOT
BRANCH   1   2
ATOM      2  C   UNL     1      -0.136  -0.087   2.816  0.00  0.00    +0.171 A 
ATOM      3  N   UNL     1       0.245  -0.379   4.091  0.00  0.00    -0.302 N 
ATOM      4  H   UNL     1       1.068  -0.866   4.250  0.00  0.00    +0.171 HD
ATOM      5  C   UNL     1      -0.520   0.011   5.132  0.00  0.00    +0.254 A 
ATOM      6  O   UNL     1      -0.185  -0.246   6.278  0.00  0.00    -0.268 OA
ATOM      7  C   UNL     1      -1.701   0.713   4.876  0.00  0.00    +0.113 A 
ATOM      8  C   UNL     1      -2.045   0.985   3.559  0.00  0.00    +0.124 A 
ATOM      9  N   UNL     1      -1.245   0.579   2.567  0.00  0.00    -0.209 NA
BRANCH   8  10
ATOM     10  N   UNL     1      -3.205   1.676   3.275  0.00  0.00    -0.343 N 
ATOM     11  H   UNL     1      -3.782   1.973   3.996  0.00  0.00    +0.144 HD
ATOM     12  H   UNL     1      -3.443   1.865   2.354  0.00  0.00    +0.144 HD
ENDBRANCH   8  10
ENDBRANCH   1   2
BRANCH   1  14
ATOM     13  C   UNL     1      -0.019   1.526   0.010  0.00  0.00    +0.024 C 
ATOM     14  C   UNL     1       0.002  -0.004   0.002  0.00  0.00    +0.081 C 
BRANCH  14  15
ATOM     15  C   UNL     1       0.707  -0.490  -1.238  0.00  0.00    -0.033 A 
ATOM     16  C   UNL     1       2.026  -0.141  -1.464  0.00  0.00    +0.005 A 
ATOM     17  C   UNL     1       2.677  -0.584  -2.600  0.00  0.00    +0.002 A 
ATOM     18  C   UNL     1       2.012  -1.378  -3.514  0.00  0.00    +0.023 A 
ATOM     19  C   UNL     1       0.687  -1.731  -3.290  0.00  0.00    +0.025 A 
ATOM     20  C   UNL     1       0.038  -1.288  -2.144  0.00  0.00    +0.027 A 
BRANCH  19  21
ATOM     21  N   UNL     1       0.011  -2.534  -4.212  0.00  0.00    -0.358 N 
ATOM     22  H   UNL     1       0.467  -2.845  -5.009  0.00  0.00    +0.142 HD
ATOM     23  H   UNL     1      -0.914  -2.779  -4.054  0.00  0.00    +0.142 HD
ENDBRANCH  19  21
ENDBRANCH  14  15
ENDBRANCH   1  14
TORSDOF 5
