REMARK  Name = ZINC01409669
REMARK  6 active torsions:
REMARK  status: ('A' for Active; 'I' for Inactive)
REMARK    1  A    between atoms: C_1  and  O_2
REMARK    2  A    between atoms: O_2  and  C_3
REMARK    3  A    between atoms: C_6  and  N_9
REMARK    4  A    between atoms: C_10  and  C_28
REMARK    5  A    between atoms: C_20  and  C_21
REMARK    6  A    between atoms: C_31  and  O_34
REMARK                            x       y       z     vdW  Elec       q    Type
REMARK                         _______ _______ _______ _____ _____    ______ ____
ROOT
ATOM      1  N   UNL     1       0.604   1.776   0.636  0.00  0.00    -0.255 N 
ATOM      2  C   UNL     1       1.706   0.807   0.518  0.00  0.00    +0.146 C 
ATOM      3  C   UNL     1       1.057  -0.513   0.235  0.00  0.00    +0.027 C 
ATOM      4  C   UNL     1      -0.282  -0.302   0.167  0.00  0.00    +0.098 C 
ATOM      5  C   UNL     1      -0.554   1.115   0.433  0.00  0.00    +0.266 C 
ATOM      6  O   UNL     1      -1.660   1.620   0.462  0.00  0.00    -0.268 OA
ATOM      7  N   UNL     1      -1.169  -1.320  -0.150  0.00  0.00    -0.338 N 
ATOM      8  C   UNL     1      -1.112  -1.888  -1.502  0.00  0.00    +0.122 C 
ATOM      9  C   UNL     1       0.348  -2.043  -1.939  0.00  0.00    +0.131 C 
ATOM     10  N   UNL     1       1.211  -2.611  -0.910  0.00  0.00    -0.382 N 
ATOM     11  C   UNL     1       1.639  -1.849   0.077  0.00  0.00    +0.050 C 
ATOM     12  H   UNL     1      -1.900  -1.704   0.577  0.00  0.00    +0.146 HD
ATOM     13  H   UNL     1       1.506  -3.670  -0.954  0.00  0.00    +0.160 HD
ENDROOT
BRANCH  11  14
ATOM     14  C   UNL     1       2.687  -2.332   1.007  0.00  0.00    -0.002 A 
ATOM     15  C   UNL     1       3.373  -3.515   0.734  0.00  0.00    +0.011 A 
ATOM     16  C   UNL     1       4.350  -3.958   1.601  0.00  0.00    +0.020 A 
ATOM     17  C   UNL     1       4.643  -3.236   2.746  0.00  0.00    +0.041 A 
ATOM     18  C   UNL     1       3.961  -2.063   3.024  0.00  0.00    +0.020 A 
ATOM     19  C   UNL     1       2.985  -1.609   2.161  0.00  0.00    +0.011 A 
ATOM     20 CL   UNL     1       5.870  -3.802   3.836  0.00  0.00    -0.084 Cl
ENDBRANCH  11  14
BRANCH   1  24
ATOM     21  C   UNL     1       0.996   5.845   1.450  0.00  0.00    +0.120 A 
ATOM     22  C   UNL     1      -0.264   5.294   1.263  0.00  0.00    +0.047 A 
ATOM     23  C   UNL     1      -0.394   3.946   0.993  0.00  0.00    +0.027 A 
ATOM     24  C   UNL     1       0.736   3.142   0.909  0.00  0.00    +0.038 A 
ATOM     25  C   UNL     1       1.995   3.694   1.103  0.00  0.00    +0.027 A 
ATOM     26  C   UNL     1       2.124   5.043   1.367  0.00  0.00    +0.047 A 
BRANCH  21  28
ATOM     27  C   UNL     1       2.449   7.673   1.898  0.00  0.00    +0.277 C 
ATOM     28  O   UNL     1       1.123   7.173   1.716  0.00  0.00    -0.495 OA
ENDBRANCH  21  28
ENDBRANCH   1  24
BRANCH   2  29
ATOM     29  C   UNL     1       2.619   1.192  -0.617  0.00  0.00    -0.022 A 
ATOM     30  C   UNL     1       2.092   1.742  -1.771  0.00  0.00    +0.009 A 
ATOM     31  C   UNL     1       2.927   2.102  -2.810  0.00  0.00    +0.046 A 
ATOM     32  C   UNL     1       4.295   1.899  -2.701  0.00  0.00    +0.117 A 
ATOM     33  C   UNL     1       4.821   1.342  -1.544  0.00  0.00    +0.046 A 
ATOM     34  C   UNL     1       3.982   0.990  -0.505  0.00  0.00    +0.009 A 
BRANCH  32  35
ATOM     35  O   UNL     1       5.119   2.246  -3.725  0.00  0.00    -0.507 OA
ATOM     36  H   UNL     1       6.203   2.086  -3.637  0.00  0.00    +0.292 HD
ENDBRANCH  32  35
ENDBRANCH   2  29
TORSDOF 5
