REMARK  Name = ZINC65516996
REMARK  7 active torsions:
REMARK  status: ('A' for Active; 'I' for Inactive)
REMARK    1  A    between atoms: C_1  and  C_2
REMARK    2  A    between atoms: C_9  and  N_12
REMARK    3  A    between atoms: C_13  and  C_15
REMARK    4  A    between atoms: C_15  and  O_16
REMARK    5  A    between atoms: O_16  and  C_17
REMARK    6  A    between atoms: C_20  and  C_23
REMARK    7  A    between atoms: C_23  and  C_24
REMARK                            x       y       z     vdW  Elec       q    Type
REMARK                         _______ _______ _______ _____ _____    ______ ____
ROOT
ATOM      1  N   UNL     1      -0.147  -5.739  -1.283  0.00  0.00    -0.308 N 
ATOM      2  C   UNL     1      -1.090  -6.213  -2.121  0.00  0.00    +0.251 C 
ATOM      3  O   UNL     1      -2.124  -5.599  -2.281  0.00  0.00    -0.272 OA
ATOM      4  H   UNL     1       0.680  -6.229  -1.155  0.00  0.00    +0.149 HD
ENDROOT
BRANCH   1  13
ATOM      5  C   UNL     1      -0.018   1.503   0.010  0.00  0.00    +0.065 C 
ATOM      6  C   UNL     1       0.002  -0.004   0.002  0.00  0.00    +0.030 A 
ATOM      7  C   UNL     1       0.008  -0.790  -1.094  0.00  0.00    +0.108 A 
ATOM      8  N   UNL     1       0.027  -2.079  -0.651  0.00  0.00    -0.334 N 
ATOM      9  C   UNL     1       0.033  -2.042   0.703  0.00  0.00    +0.087 A 
ATOM     10  N   UNL     1       0.024  -0.798   1.085  0.00  0.00    -0.347 N 
ATOM     11  C   UNL     1       0.056  -3.271   1.581  0.00  0.00    +0.074 C 
ATOM     12  C   UNL     1       0.468  -4.470   0.717  0.00  0.00    +0.031 C 
ATOM     13  C   UNL     1      -0.372  -4.482  -0.564  0.00  0.00    +0.093 C 
ATOM     14  C   UNL     1       0.037  -3.304  -1.454  0.00  0.00    +0.145 C 
ATOM     15  H   UNL     1       0.028  -0.493   2.005  0.00  0.00    +0.167 HD
ENDBRANCH   1  13
BRANCH   2  16
ATOM     16  C   UNL     1      -0.859  -7.505  -2.861  0.00  0.00    +0.324 C 
BRANCH  16  17
ATOM     17  O   UNL     1      -1.993  -7.793  -3.681  0.00  0.00    -0.483 OA
BRANCH  17  18
ATOM     18  C   UNL     1      -1.946  -8.933  -4.420  0.00  0.00    +0.121 A 
ATOM     19  C   UNL     1      -0.834  -9.760  -4.353  0.00  0.00    +0.046 A 
ATOM     20  C   UNL     1      -0.789 -10.918  -5.104  0.00  0.00    +0.007 A 
ATOM     21  C   UNL     1      -1.851 -11.254  -5.924  0.00  0.00    -0.038 A 
ATOM     22  C   UNL     1      -2.960 -10.431  -5.993  0.00  0.00    +0.007 A 
ATOM     23  C   UNL     1      -3.013  -9.275  -5.239  0.00  0.00    +0.046 A 
BRANCH  21  24
ATOM     24  C   UNL     1      -1.799 -12.517  -6.743  0.00  0.00    +0.130 C 
BRANCH  24  25
ATOM     25  C   UNL     1      -2.380 -13.657  -5.946  0.00  0.00    +0.215 C 
ATOM     26  O   UNL     1      -2.796 -13.462  -4.824  0.00  0.00    -0.276 OA
ATOM     27  N   UNL     1      -2.438 -14.892  -6.481  0.00  0.00    -0.329 N 
ATOM     28  H   UNL     1      -2.106 -15.048  -7.379  0.00  0.00    +0.145 HD
ATOM     29  H   UNL     1      -2.813 -15.626  -5.968  0.00  0.00    +0.145 HD
ENDBRANCH  24  25
ENDBRANCH  21  24
ENDBRANCH  17  18
ENDBRANCH  16  17
ENDBRANCH   2  16
TORSDOF 6
