REMARK  Name = ZINC36249068
REMARK  10 active torsions:
REMARK  status: ('A' for Active; 'I' for Inactive)
REMARK    1  A    between atoms: C_1  and  N_2
REMARK    2  A    between atoms: N_2  and  C_3
REMARK    3  A    between atoms: N_2  and  C_4
REMARK    4  A    between atoms: C_4  and  C_5
REMARK    5  A    between atoms: C_5  and  N_6
REMARK    6  A    between atoms: N_6  and  C_7
REMARK    7  A    between atoms: C_7  and  C_8
REMARK    8  A    between atoms: C_9  and  C_23
REMARK    9  A    between atoms: C_12  and  N_13
REMARK   10  A    between atoms: N_31  and  C_32
REMARK                            x       y       z     vdW  Elec       q    Type
REMARK                         _______ _______ _______ _____ _____    ______ ____
ROOT
ATOM      1  C   UNL     1      -5.373  -3.867  -3.167  0.00  0.00    +0.059 A 
ATOM      2  C   UNL     1      -4.319  -4.415  -3.926  0.00  0.00    +0.120 A 
ATOM      3  N   UNL     1      -4.449  -5.721  -3.916  0.00  0.00    -0.076 NA
ATOM      4  O   UNL     1      -5.594  -6.041  -3.147  0.00  0.00    -0.339 OA
ATOM      5  C   UNL     1      -6.130  -4.893  -2.701  0.00  0.00    +0.226 A 
ENDROOT
BRANCH   5   6
ATOM      6  N   UNL     1      -7.258  -4.776  -1.909  0.00  0.00    -0.294 N 
ATOM      7  C   UNL     1      -8.453  -4.056  -2.380  0.00  0.00    +0.113 C 
ATOM      8  C   UNL     1      -9.596  -5.064  -2.489  0.00  0.00    +0.054 C 
ATOM      9  C   UNL     1      -9.684  -5.912  -1.248  0.00  0.00    -0.041 A 
ATOM     10  C   UNL     1     -10.886  -6.562  -0.995  0.00  0.00    +0.004 A 
ATOM     11  C   UNL     1     -11.031  -7.362   0.119  0.00  0.00    +0.000 A 
ATOM     12  C   UNL     1      -9.972  -7.521   0.994  0.00  0.00    +0.000 A 
ATOM     13  C   UNL     1      -8.778  -6.874   0.748  0.00  0.00    +0.005 A 
ATOM     14  C   UNL     1      -8.633  -6.064  -0.371  0.00  0.00    -0.027 A 
ATOM     15  C   UNL     1      -7.314  -5.370  -0.569  0.00  0.00    +0.143 C 
ENDBRANCH   5   6
BRANCH   2  16
ATOM     16  C   UNL     1      -3.250  -3.649  -4.616  0.00  0.00    +0.004 A 
ATOM     17  C   UNL     1      -3.566  -2.494  -5.328  0.00  0.00    +0.010 A 
ATOM     18  C   UNL     1      -2.568  -1.785  -5.966  0.00  0.00    +0.001 A 
ATOM     19  C   UNL     1      -1.257  -2.220  -5.901  0.00  0.00    +0.000 A 
ATOM     20  C   UNL     1      -0.938  -3.367  -5.196  0.00  0.00    +0.001 A 
ATOM     21  C   UNL     1      -1.927  -4.080  -4.549  0.00  0.00    +0.010 A 
ENDBRANCH   2  16
BRANCH   1  22
ATOM     22  C   UNL     1      -5.614  -2.401  -2.911  0.00  0.00    +0.151 C 
BRANCH  22  23
ATOM     23  N   UNL     1      -4.906  -1.995  -1.694  0.00  0.00    -0.283 N 
ATOM     24  C   UNL     1      -5.550  -1.988  -0.510  0.00  0.00    +0.307 C 
ATOM     25  O   UNL     1      -6.689  -2.408  -0.436  0.00  0.00    -0.252 OA
ATOM     26  N   UNL     1      -4.931  -1.517   0.591  0.00  0.00    -0.269 N 
ATOM     27  H   UNL     1      -4.025  -1.177   0.529  0.00  0.00    +0.156 HD
BRANCH  26  28
ATOM     28  C   UNL     1      -5.597  -1.519   1.822  0.00  0.00    +0.036 A 
ATOM     29  C   UNL     1      -6.476  -2.547   2.136  0.00  0.00    +0.023 A 
ATOM     30  C   UNL     1      -7.131  -2.548   3.351  0.00  0.00    +0.003 A 
ATOM     31  C   UNL     1      -6.913  -1.525   4.256  0.00  0.00    +0.020 A 
ATOM     32  C   UNL     1      -6.038  -0.499   3.947  0.00  0.00    +0.043 A 
ATOM     33  C   UNL     1      -5.375  -0.497   2.734  0.00  0.00    +0.043 A 
ATOM     34 CL   UNL     1      -5.767   0.783   5.086  0.00  0.00    -0.083 Cl
ENDBRANCH  26  28
BRANCH  23  35
ATOM     35  C   UNL     1      -3.498  -1.597  -1.764  0.00  0.00    +0.091 C 
BRANCH  35  36
ATOM     36  C   UNL     1      -3.406  -0.090  -2.014  0.00  0.00    -0.060 C 
BRANCH  36  38
ATOM     37  C   UNL     1      -1.905   1.732  -2.441  0.00  0.00    -0.097 C 
ATOM     38  N   UNL     1      -1.994   0.309  -2.084  0.00  0.00    +0.377 N 
ATOM     39  C   UNL     1      -1.358   0.092  -0.778  0.00  0.00    -0.097 C 
ATOM     40  H   UNL     1      -1.522  -0.243  -2.784  0.00  0.00    -0.083 HD
ENDBRANCH  36  38
ENDBRANCH  35  36
ENDBRANCH  23  35
ENDBRANCH  22  23
ENDBRANCH   1  22
TORSDOF 8
