REMARK  Name = ZINC39300815
REMARK  6 active torsions:
REMARK  status: ('A' for Active; 'I' for Inactive)
REMARK    1  A    between atoms: C_3  and  N_17
REMARK    2  A    between atoms: C_6  and  C_7
REMARK    3  A    between atoms: C_13  and  C_15
REMARK    4  A    between atoms: C_15  and  O_16
REMARK    5  A    between atoms: C_20  and  N_25
REMARK    6  A    between atoms: N_25  and  C_26
REMARK                            x       y       z     vdW  Elec       q    Type
REMARK                         _______ _______ _______ _____ _____    ______ ____
ROOT
ATOM      1  N   UNL     1       3.693   2.478   0.722  0.00  0.00    -0.301 N 
ATOM      2  C   UNL     1       5.013   2.058   0.812  0.00  0.00    +0.106 A 
ATOM      3  C   UNL     1       6.054   2.969   0.669  0.00  0.00    +0.085 A 
ATOM      4  C   UNL     1       7.362   2.502   0.767  0.00  0.00    +0.130 A 
ATOM      5  N   UNL     1       7.571   1.207   0.993  0.00  0.00    -0.201 NA
ATOM      6  C   UNL     1       6.555   0.368   1.124  0.00  0.00    +0.193 A 
ATOM      7  N   UNL     1       5.298   0.778   1.042  0.00  0.00    -0.316 N 
ATOM      8  N   UNL     1       6.813  -0.971   1.359  0.00  0.00    -0.329 N 
ATOM      9  H   UNL     1       3.459   3.219   0.141  0.00  0.00    +0.154 HD
ATOM     10  H   UNL     1       7.728  -1.284   1.425  0.00  0.00    +0.145 HD
ATOM     11  H   UNL     1       6.078  -1.597   1.457  0.00  0.00    +0.145 HD
ATOM     12  H   UNL     1       4.577   0.138   1.147  0.00  0.00    +0.170 HD
ENDROOT
BRANCH   1  15
ATOM     13  C   UNL     1       0.385   1.404   1.888  0.00  0.00    +0.015 A 
ATOM     14  C   UNL     1       1.364   2.037   1.155  0.00  0.00    +0.024 A 
ATOM     15  C   UNL     1       2.706   1.837   1.465  0.00  0.00    +0.032 A 
ATOM     16  C   UNL     1       3.063   0.997   2.516  0.00  0.00    +0.024 A 
ATOM     17  C   UNL     1       2.090   0.361   3.252  0.00  0.00    +0.015 A 
ATOM     18  C   UNL     1       0.741   0.560   2.944  0.00  0.00    +0.037 A 
BRANCH  18  19
ATOM     19  C   UNL     1      -0.305  -0.119   3.732  0.00  0.00    +0.247 C 
ATOM     20  O   UNL     1      -0.070  -1.188   4.262  0.00  0.00    -0.270 OA
ATOM     21  N   UNL     1      -1.523   0.444   3.863  0.00  0.00    -0.292 N 
ATOM     22  C   UNL     1      -1.964   1.695   3.220  0.00  0.00    +0.108 C 
ATOM     23  C   UNL     1      -3.109   2.221   4.122  0.00  0.00    +0.021 C 
ATOM     24  C   UNL     1      -3.808   0.901   4.540  0.00  0.00    +0.026 C 
ATOM     25  C   UNL     1      -2.632  -0.090   4.667  0.00  0.00    +0.102 C 
BRANCH  25  26
ATOM     26  C   UNL     1      -3.045  -1.464   4.135  0.00  0.00    +0.178 C 
BRANCH  26  27
ATOM     27  O   UNL     1      -3.574  -1.323   2.815  0.00  0.00    -0.393 OA
ATOM     28  H   UNL     1      -3.858  -2.157   2.414  0.00  0.00    +0.209 HD
ENDBRANCH  26  27
ENDBRANCH  25  26
ENDBRANCH  18  19
ENDBRANCH   1  15
BRANCH   4  29
ATOM     29  N   UNL     1       8.432   3.374   0.630  0.00  0.00    -0.299 N 
ATOM     30  H   UNL     1       8.273   4.328   0.552  0.00  0.00    +0.154 HD
BRANCH  29  31
ATOM     31  C   UNL     1       9.740   2.878   0.605  0.00  0.00    +0.034 A 
ATOM     32  C   UNL     1      10.010   1.629   0.046  0.00  0.00    +0.025 A 
ATOM     33  C   UNL     1      11.271   1.124   0.009  0.00  0.00    +0.031 A 
ATOM     34  C   UNL     1      12.362   1.852   0.539  0.00  0.00    +0.078 A 
ATOM     35  C   UNL     1      12.060   3.114   1.100  0.00  0.00    +0.041 A 
ATOM     36  C   UNL     1      10.785   3.624   1.131  0.00  0.00    +0.040 A 
ATOM     37  S   UNL     1      13.656   3.680   1.635  0.00  0.00    -0.075 S 
ATOM     38  C   UNL     1      14.590   2.253   1.098  0.00  0.00    +0.157 A 
ATOM     39  N   UNL     1      13.664   1.494   0.579  0.00  0.00    -0.247 NA
ENDBRANCH  29  31
ENDBRANCH   4  29
TORSDOF 6
