REMARK  Name = ZINC63557204
REMARK  9 active torsions:
REMARK  status: ('A' for Active; 'I' for Inactive)
REMARK    1  A    between atoms: C_1  and  C_2
REMARK    2  A    between atoms: C_2  and  C_3
REMARK    3  A    between atoms: C_3  and  C_4
REMARK    4  A    between atoms: C_4  and  C_5
REMARK    5  A    between atoms: C_9  and  N_12
REMARK    6  A    between atoms: C_13  and  C_15
REMARK    7  A    between atoms: N_20  and  C_22
REMARK    8  A    between atoms: C_22  and  C_23
REMARK    9  A    between atoms: C_23  and  C_24
REMARK                            x       y       z     vdW  Elec       q    Type
REMARK                         _______ _______ _______ _____ _____    ______ ____
ROOT
ATOM      1  C   UNL     1      -7.269  -5.395  -3.662  0.00  0.00    +0.101 C 
ATOM      2  C   UNL     1      -8.336  -5.177  -2.564  0.00  0.00    +0.110 C 
ATOM      3  C   UNL     1      -9.438  -6.149  -2.921  0.00  0.00    +0.216 C 
ATOM      4  O   UNL     1     -10.570  -6.107  -2.486  0.00  0.00    -0.276 OA
ATOM      5  N   UNL     1      -8.982  -7.067  -3.791  0.00  0.00    -0.300 N 
ATOM      6  C   UNL     1      -7.567  -6.843  -4.110  0.00  0.00    +0.121 C 
ENDROOT
BRANCH   1   8
ATOM      7  N   UNL     1      -5.450  -4.108  -2.588  0.00  0.00    -0.290 N 
ATOM      8  C   UNL     1      -5.878  -5.282  -3.093  0.00  0.00    +0.220 C 
ATOM      9  O   UNL     1      -5.144  -6.248  -3.089  0.00  0.00    -0.275 OA
ATOM     10  H   UNL     1      -6.037  -3.336  -2.591  0.00  0.00    +0.151 HD
BRANCH   7  14
ATOM     11  C   UNL     1      -2.848  -2.593   0.015  0.00  0.00    +0.130 C 
ATOM     12  N   UNL     1      -2.869  -4.082   0.049  0.00  0.00    -0.241 NA
ATOM     13  N   UNL     1      -4.010  -4.625  -0.678  0.00  0.00    -0.227 NA
ATOM     14  C   UNL     1      -4.098  -3.998  -2.034  0.00  0.00    +0.216 C 
ATOM     15  S   UNL     1      -3.691  -2.253  -1.588  0.00  0.00    -0.102 S 
ATOM     16  H   UNL     1      -2.002  -4.464  -0.301  0.00  0.00    +0.142 HD
ATOM     17  H   UNL     1      -4.866  -4.488  -0.161  0.00  0.00    +0.143 HD
BRANCH  11  18
ATOM     18  C   UNL     1      -1.413  -2.063   0.004  0.00  0.00    +0.031 C 
BRANCH  18  19
ATOM     19  C   UNL     1      -1.433  -0.534   0.013  0.00  0.00    +0.002 C 
BRANCH  19  21
ATOM     20  C   UNL     1      -0.019   1.526   0.010  0.00  0.00    +0.004 C 
ATOM     21  C   UNL     1       0.002  -0.004   0.002  0.00  0.00    -0.003 C 
ENDBRANCH  19  21
ENDBRANCH  18  19
ENDBRANCH  11  18
ENDBRANCH   7  14
ENDBRANCH   1   8
BRANCH   5  22
ATOM     22  C   UNL     1      -9.794  -8.152  -4.349  0.00  0.00    +0.112 C 
BRANCH  22  23
ATOM     23  C   UNL     1     -10.458  -7.678  -5.643  0.00  0.00    +0.052 C 
BRANCH  23  24
ATOM     24  C   UNL     1     -11.292  -8.793  -6.218  0.00  0.00    -0.040 C 
ATOM     25  C   UNL     1     -12.618  -8.990  -6.041  0.00  0.00    +0.002 A 
ATOM     26  C   UNL     1     -13.642  -8.254  -5.289  0.00  0.00    +0.048 A 
ATOM     27  C   UNL     1     -14.918  -8.706  -5.300  0.00  0.00    +0.124 A 
ATOM     28  C   UNL     1     -15.285  -9.860  -6.011  0.00  0.00    +0.040 A 
ATOM     29  C   UNL     1     -14.400 -10.588  -6.724  0.00  0.00    +0.029 A 
ATOM     30  C   UNL     1     -13.032 -10.203  -6.782  0.00  0.00    +0.043 A 
ATOM     31  N   UNL     1     -12.002 -10.735  -7.393  0.00  0.00    -0.380 N 
ATOM     32  C   UNL     1     -10.818  -9.915  -7.114  0.00  0.00    +0.144 C 
ATOM     33  F   UNL     1     -15.862  -8.031  -4.609  0.00  0.00    -0.205 F 
ATOM     34  H   UNL     1     -12.020 -11.535  -7.942  0.00  0.00    +0.160 HD
ENDBRANCH  23  24
ENDBRANCH  22  23
ENDBRANCH   5  22
TORSDOF 8
