REMARK  Name = ZINC37443407
REMARK  11 active torsions:
REMARK  status: ('A' for Active; 'I' for Inactive)
REMARK    1  A    between atoms: C_1  and  C_2
REMARK    2  A    between atoms: C_8  and  N_10
REMARK    3  A    between atoms: C_11  and  C_13
REMARK    4  A    between atoms: C_13  and  C_38
REMARK    5  A    between atoms: N_25  and  C_26
REMARK    6  A    between atoms: C_26  and  C_27
REMARK    7  A    between atoms: C_27  and  C_28
REMARK    8  A    between atoms: C_28  and  N_29
REMARK    9  A    between atoms: N_29  and  C_30
REMARK   10  A    between atoms: N_29  and  C_31
REMARK   11  A    between atoms: C_31  and  C_32
REMARK                            x       y       z     vdW  Elec       q    Type
REMARK                         _______ _______ _______ _____ _____    ______ ____
ROOT
ATOM      1  C   UNL     1       0.033   0.579   4.842  0.00  0.00    +0.128 C 
ATOM      2  C   UNL     1      -0.567  -0.622   5.572  0.00  0.00    +0.157 C 
ATOM      3  N   UNL     1      -1.744  -1.095   4.836  0.00  0.00    -0.331 N 
ATOM      4  C   UNL     1      -2.275  -2.346   4.745  0.00  0.00    +0.088 A 
ATOM      5  C   UNL     1      -2.156  -3.703   5.129  0.00  0.00    +0.067 A 
ATOM      6  C   UNL     1      -3.180  -4.368   4.568  0.00  0.00    +0.198 A 
ATOM      7  O   UNL     1      -3.934  -3.513   3.857  0.00  0.00    -0.461 OA
ATOM      8  C   UNL     1      -3.411  -2.271   3.939  0.00  0.00    +0.153 A 
ATOM      9  C   UNL     1      -3.557  -0.936   3.532  0.00  0.00    +0.079 A 
ATOM     10  C   UNL     1      -2.529  -0.227   4.080  0.00  0.00    +0.109 A 
ATOM     11  C   UNL     1      -2.182   1.194   3.966  0.00  0.00    +0.264 C 
ATOM     12  O   UNL     1      -2.939   2.001   3.459  0.00  0.00    -0.268 OA
ATOM     13  N   UNL     1      -0.974   1.561   4.457  0.00  0.00    -0.281 N 
ATOM     14  C   UNL     1       1.055   1.253   5.760  0.00  0.00    +0.043 C 
ENDROOT
BRANCH   1  16
ATOM     15  N   UNL     1       0.056  -0.038   2.447  0.00  0.00    -0.310 N 
ATOM     16  C   UNL     1       0.738   0.093   3.602  0.00  0.00    +0.238 C 
ATOM     17  O   UNL     1       1.919  -0.179   3.644  0.00  0.00    -0.273 OA
ATOM     18  H   UNL     1      -0.888   0.180   2.413  0.00  0.00    +0.149 HD
BRANCH  15  25
ATOM     19  C   UNL     1      -0.019   1.526   0.010  0.00  0.00    +0.009 C 
ATOM     20  C   UNL     1       0.002  -0.004   0.002  0.00  0.00    +0.006 C 
ATOM     21  C   UNL     1       0.718  -0.497  -1.257  0.00  0.00    +0.005 C 
ATOM     22  C   UNL     1       0.739  -2.027  -1.265  0.00  0.00    +0.000 C 
ATOM     23  C   UNL     1       1.479  -2.534  -0.026  0.00  0.00    +0.002 C 
ATOM     24  C   UNL     1       0.763  -2.041   1.233  0.00  0.00    +0.022 C 
ATOM     25  C   UNL     1       0.742  -0.511   1.242  0.00  0.00    +0.076 C 
ENDBRANCH  15  25
ENDBRANCH   1  16
BRANCH  13  26
ATOM     26  C   UNL     1      -0.670   2.987   4.605  0.00  0.00    +0.107 C 
BRANCH  26  27
ATOM     27  C   UNL     1      -0.028   3.508   3.318  0.00  0.00    +0.000 C 
BRANCH  27  28
ATOM     28  C   UNL     1       0.289   4.997   3.473  0.00  0.00    -0.077 C 
BRANCH  28  29
ATOM     29  N   UNL     1       0.905   5.497   2.237  0.00  0.00    +0.381 N 
ATOM     30  C   UNL     1       2.205   4.841   2.038  0.00  0.00    -0.096 C 
ATOM     31  H   UNL     1       0.302   5.294   1.454  0.00  0.00    -0.082 HD
BRANCH  29  32
ATOM     32  C   UNL     1       1.101   6.949   2.341  0.00  0.00    -0.043 C 
BRANCH  32  33
ATOM     33  C   UNL     1       1.619   7.481   1.029  0.00  0.00    -0.064 A 
ATOM     34  C   UNL     1       2.980   7.543   0.797  0.00  0.00    +0.002 A 
ATOM     35  C   UNL     1       3.455   8.030  -0.406  0.00  0.00    +0.000 A 
ATOM     36  C   UNL     1       2.569   8.457  -1.377  0.00  0.00    +0.000 A 
ATOM     37  C   UNL     1       1.207   8.395  -1.145  0.00  0.00    +0.000 A 
ATOM     38  C   UNL     1       0.732   7.903   0.056  0.00  0.00    +0.002 A 
ENDBRANCH  32  33
ENDBRANCH  29  32
ENDBRANCH  28  29
ENDBRANCH  27  28
ENDBRANCH  26  27
ENDBRANCH  13  26
TORSDOF 8
