REMARK  Name = ZINC64802070
REMARK  11 active torsions:
REMARK  status: ('A' for Active; 'I' for Inactive)
REMARK    1  A    between atoms: C_1  and  C_2
REMARK    2  A    between atoms: C_2  and  N_3
REMARK    3  A    between atoms: C_6  and  C_30
REMARK    4  A    between atoms: C_8  and  N_10
REMARK    5  A    between atoms: N_10  and  C_11
REMARK    6  A    between atoms: C_14  and  N_17
REMARK    7  A    between atoms: N_17  and  S_18
REMARK    8  A    between atoms: S_18  and  C_21
REMARK    9  A    between atoms: C_23  and  C_29
REMARK   10  A    between atoms: C_26  and  O_27
REMARK   11  A    between atoms: O_27  and  C_28
REMARK                            x       y       z     vdW  Elec       q    Type
REMARK                         _______ _______ _______ _____ _____    ______ ____
ROOT
ATOM      1  C   UNL     1       2.897  -5.301   3.876  0.00  0.00    +0.032 A 
ATOM      2  C   UNL     1       2.307  -6.177   2.974  0.00  0.00    +0.025 A 
ATOM      3  C   UNL     1       2.205  -7.519   3.282  0.00  0.00    +0.026 A 
ATOM      4  C   UNL     1       2.692  -7.993   4.493  0.00  0.00    +0.048 A 
ATOM      5  C   UNL     1       3.283  -7.117   5.394  0.00  0.00    +0.026 A 
ATOM      6  C   UNL     1       3.390  -5.775   5.084  0.00  0.00    +0.025 A 
ENDROOT
BRANCH   1   7
ATOM      7  N   UNL     1       3.001  -3.939   3.563  0.00  0.00    -0.299 N 
ATOM      8  H   UNL     1       2.955  -3.275   4.268  0.00  0.00    +0.154 HD
BRANCH   7  14
ATOM      9  N   UNL     1       3.713  -5.031  -0.945  0.00  0.00    -0.315 N 
ATOM     10  C   UNL     1       3.521  -4.067   0.029  0.00  0.00    +0.195 A 
ATOM     11  N   UNL     1       3.504  -2.789  -0.322  0.00  0.00    -0.332 N 
ATOM     12  C   UNL     1       3.322  -1.837   0.582  0.00  0.00    +0.019 A 
ATOM     13  C   UNL     1       3.148  -2.188   1.907  0.00  0.00    +0.064 A 
ATOM     14  C   UNL     1       3.171  -3.542   2.246  0.00  0.00    +0.128 A 
ATOM     15  N   UNL     1       3.353  -4.444   1.287  0.00  0.00    -0.201 NA
ATOM     16  C   UNL     1       3.305  -0.388   0.168  0.00  0.00    +0.063 C 
ATOM     17  H   UNL     1       3.724  -5.971  -0.702  0.00  0.00    +0.149 HD
ATOM     18  H   UNL     1       3.626  -2.547  -1.253  0.00  0.00    +0.168 HD
BRANCH   9  20
ATOM     19  C   UNL     1       4.091  -5.882  -3.207  0.00  0.00    +0.024 C 
ATOM     20  C   UNL     1       3.901  -4.634  -2.343  0.00  0.00    +0.101 C 
ENDBRANCH   9  20
ENDBRANCH   7  14
ENDBRANCH   1   7
BRANCH   4  21
ATOM     21  N   UNL     1       2.588  -9.353   4.806  0.00  0.00    -0.216 N 
ATOM     22  H   UNL     1       1.758  -9.827   4.639  0.00  0.00    +0.174 HD
BRANCH  21  23
ATOM     23  S   UNL     1       3.881 -10.154   5.460  0.00  0.00    +0.076 S 
ATOM     24  O   UNL     1       4.310  -9.388   6.578  0.00  0.00    -0.150 OA
ATOM     25  O   UNL     1       3.500 -11.518   5.572  0.00  0.00    -0.150 OA
BRANCH  23  26
ATOM     26  C   UNL     1       5.186 -10.091   4.277  0.00  0.00    +0.150 A 
ATOM     27  C   UNL     1       6.353  -9.412   4.570  0.00  0.00    +0.036 A 
ATOM     28  C   UNL     1       7.376  -9.362   3.642  0.00  0.00    -0.048 A 
ATOM     29  C   UNL     1       7.235  -9.991   2.419  0.00  0.00    +0.007 A 
ATOM     30  C   UNL     1       6.071 -10.671   2.121  0.00  0.00    +0.048 A 
ATOM     31  C   UNL     1       5.044 -10.728   3.053  0.00  0.00    +0.147 A 
ATOM     32  C   UNL     1       8.648  -8.620   3.964  0.00  0.00    +0.044 C 
BRANCH  31  33
ATOM     33  O   UNL     1       3.899 -11.401   2.764  0.00  0.00    -0.493 OA
ATOM     34  C   UNL     1       3.863 -12.120   1.530  0.00  0.00    +0.277 C 
ENDBRANCH  31  33
ENDBRANCH  23  26
ENDBRANCH  21  23
ENDBRANCH   4  21
TORSDOF 7
