REMARK  Name = ZINC07779505
REMARK  17 active torsions:
REMARK  status: ('A' for Active; 'I' for Inactive)
REMARK    1  A    between atoms: C_1  and  C_2
REMARK    2  A    between atoms: C_2  and  C_3
REMARK    3  A    between atoms: C_2  and  C_4
REMARK    4  A    between atoms: C_4  and  N_5
REMARK    5  A    between atoms: C_6  and  C_8
REMARK    6  A    between atoms: C_8  and  N_63
REMARK    7  A    between atoms: C_9  and  C_10
REMARK    8  A    between atoms: C_9  and  N_63
REMARK    9  A    between atoms: N_12  and  C_13
REMARK   10  A    between atoms: C_13  and  C_14
REMARK   11  A    between atoms: C_14  and  C_15
REMARK   12  A    between atoms: C_14  and  C_16
REMARK   13  A    between atoms: C_17  and  C_19
REMARK   14  A    between atoms: C_17  and  C_20
REMARK   15  A    between atoms: C_17  and  N_63
REMARK   16  A    between atoms: C_23  and  S_26
REMARK   17  A    between atoms: S_26  and  N_29
REMARK                            x       y       z     vdW  Elec       q    Type
REMARK                         _______ _______ _______ _____ _____    ______ ____
ROOT
ATOM      1  N   UNL     1      -0.762   1.481   1.236  0.00  0.00    +0.395 N 
ATOM      2  H   UNL     1      -1.660   0.983   1.209  0.00  0.00    -0.080 HD
ENDROOT
BRANCH   1   3
ATOM      3  C   UNL     1      -0.015   1.058   2.440  0.00  0.00    -0.040 C 
ATOM      4  C   UNL     1       0.176  -0.459   2.397  0.00  0.00    -0.008 C 
BRANCH   3   5
ATOM      5  C   UNL     1      -0.809   1.430   3.665  0.00  0.00    -0.061 A 
ATOM      6  C   UNL     1      -2.185   1.297   3.664  0.00  0.00    +0.004 A 
ATOM      7  C   UNL     1      -2.913   1.634   4.790  0.00  0.00    +0.029 A 
ATOM      8  C   UNL     1      -2.265   2.114   5.914  0.00  0.00    +0.105 A 
ATOM      9  C   UNL     1      -0.890   2.252   5.913  0.00  0.00    +0.029 A 
ATOM     10  C   UNL     1      -0.162   1.910   4.789  0.00  0.00    +0.004 A 
BRANCH   8  11
ATOM     11  S   UNL     1      -3.194   2.550   7.346  0.00  0.00    +0.056 S 
ATOM     12  O   UNL     1      -4.408   1.815   7.283  0.00  0.00    -0.153 OA
ATOM     13  O   UNL     1      -2.304   2.457   8.450  0.00  0.00    -0.153 OA
BRANCH  11  14
ATOM     14  N   UNL     1      -3.600   4.149   7.199  0.00  0.00    -0.204 NA
ATOM     15  H   UNL     1      -3.320   4.650   6.417  0.00  0.00    +0.144 HD
ATOM     16  H   UNL     1      -4.119   4.583   7.894  0.00  0.00    +0.144 HD
ENDBRANCH  11  14
ENDBRANCH   8  11
ENDBRANCH   3   5
ENDBRANCH   1   3
BRANCH   1  17
ATOM     17  C   UNL     1       0.009   1.148   0.020  0.00  0.00    +0.020 C 
BRANCH  17  19
ATOM     18  N   UNL     1       2.272   1.531  -0.900  0.00  0.00    -0.317 N 
ATOM     19  C   UNL     1       1.365   1.804   0.058  0.00  0.00    +0.197 C 
ATOM     20  O   UNL     1       1.640   2.577   0.951  0.00  0.00    -0.278 OA
ATOM     21  H   UNL     1       2.053   0.913  -1.615  0.00  0.00    +0.149 HD
BRANCH  18  22
ATOM     22  C   UNL     1       3.591   2.168  -0.863  0.00  0.00    +0.107 C 
BRANCH  22  24
ATOM     23  C   UNL     1       3.775   2.175  -3.355  0.00  0.00    +0.009 C 
ATOM     24  C   UNL     1       4.422   1.691  -2.056  0.00  0.00    -0.000 C 
ATOM     25  C   UNL     1       5.839   2.258  -1.950  0.00  0.00    +0.009 C 
ENDBRANCH  22  24
ENDBRANCH  18  22
ENDBRANCH  17  19
ENDBRANCH   1  17
BRANCH   1  26
ATOM     26  C   UNL     1      -1.021   2.935   1.288  0.00  0.00    +0.020 C 
BRANCH  26  27
ATOM     27  C   UNL     1      -2.153   3.257   0.347  0.00  0.00    +0.197 C 
ATOM     28  O   UNL     1      -2.617   2.390  -0.363  0.00  0.00    -0.278 OA
ATOM     29  N   UNL     1      -2.650   4.509   0.294  0.00  0.00    -0.317 N 
ATOM     30  H   UNL     1      -2.279   5.203   0.861  0.00  0.00    +0.149 HD
BRANCH  29  31
ATOM     31  C   UNL     1      -3.750   4.823  -0.621  0.00  0.00    +0.107 C 
BRANCH  31  32
ATOM     32  C   UNL     1      -4.121   6.301  -0.485  0.00  0.00    -0.000 C 
ATOM     33  C   UNL     1      -2.949   7.166  -0.951  0.00  0.00    +0.009 C 
ATOM     34  C   UNL     1      -5.350   6.599  -1.347  0.00  0.00    +0.009 C 
ENDBRANCH  31  32
ENDBRANCH  29  31
ENDBRANCH  26  27
ENDBRANCH   1  26
TORSDOF 12
