REMARK  Name = ZINC63789286
REMARK  7 active torsions:
REMARK  status: ('A' for Active; 'I' for Inactive)
REMARK    1  A    between atoms: C_1  and  O_2
REMARK    2  A    between atoms: O_2  and  C_3
REMARK    3  A    between atoms: C_5  and  C_21
REMARK    4  A    between atoms: C_8  and  O_9
REMARK    5  A    between atoms: O_9  and  C_10
REMARK    6  A    between atoms: C_10  and  C_11
REMARK    7  A    between atoms: N_13  and  C_14
REMARK                            x       y       z     vdW  Elec       q    Type
REMARK                         _______ _______ _______ _____ _____    ______ ____
ROOT
ATOM      1  C   UNL     1       0.981  -0.670   0.890  0.00  0.00    +0.162 A 
ATOM      2  C   UNL     1       1.579   0.078   1.893  0.00  0.00    +0.054 A 
ATOM      3  C   UNL     1       2.003  -0.538   3.055  0.00  0.00    -0.024 A 
ATOM      4  C   UNL     1       1.833  -1.901   3.221  0.00  0.00    +0.009 A 
ATOM      5  C   UNL     1       1.238  -2.652   2.225  0.00  0.00    +0.050 A 
ATOM      6  C   UNL     1       0.805  -2.040   1.060  0.00  0.00    +0.163 A 
ENDROOT
BRANCH   3   7
ATOM      7  C   UNL     1       2.652   0.276   4.144  0.00  0.00    +0.111 C 
ATOM      8  C   UNL     1       1.924   0.039   5.470  0.00  0.00    +0.128 C 
ATOM      9  C   UNL     1       2.175  -1.419   5.839  0.00  0.00    -0.035 C 
ATOM     10  C   UNL     1       0.984  -1.967   6.036  0.00  0.00    -0.001 A 
ATOM     11  C   UNL     1       0.584  -3.308   6.491  0.00  0.00    +0.010 A 
ATOM     12  C   UNL     1      -0.753  -3.540   6.569  0.00  0.00    +0.001 A 
ATOM     13  C   UNL     1      -1.720  -2.585   6.242  0.00  0.00    +0.002 A 
ATOM     14  C   UNL     1      -1.443  -1.325   5.820  0.00  0.00    +0.026 A 
ATOM     15  C   UNL     1      -0.070  -0.960   5.705  0.00  0.00    +0.043 A 
ATOM     16  N   UNL     1       0.475   0.188   5.350  0.00  0.00    -0.376 N 
ATOM     17  C   UNL     1       3.565  -2.008   5.838  0.00  0.00    +0.048 C 
ATOM     18  C   UNL     1       4.210  -1.584   4.505  0.00  0.00    +0.086 C 
ATOM     19  N   UNL     1       4.054  -0.139   4.305  0.00  0.00    -0.307 NA
ATOM     20  H   UNL     1       4.618   0.182   3.532  0.00  0.00    +0.123 HD
ATOM     21  H   UNL     1       0.009   0.987   5.058  0.00  0.00    +0.160 HD
ENDBRANCH   3   7
BRANCH   1  23
ATOM     22  C   UNL     1       0.777   1.344  -0.358  0.00  0.00    +0.277 C 
ATOM     23  O   UNL     1       0.563  -0.065  -0.254  0.00  0.00    -0.491 OA
ENDBRANCH   1  23
BRANCH   6  24
ATOM     24  O   UNL     1       0.214  -2.777   0.081  0.00  0.00    -0.479 OA
BRANCH  24  25
ATOM     25  C   UNL     1       0.067  -4.177   0.324  0.00  0.00    +0.325 C 
BRANCH  25  26
ATOM     26  C   UNL     1      -0.603  -4.824  -0.861  0.00  0.00    +0.255 C 
ATOM     27  O   UNL     1      -0.922  -4.152  -1.819  0.00  0.00    -0.272 OA
ATOM     28  N   UNL     1      -0.847  -6.150  -0.857  0.00  0.00    -0.280 N 
ATOM     29  H   UNL     1      -0.671  -6.672  -0.059  0.00  0.00    +0.155 HD
BRANCH  28  30
ATOM     30  C   UNL     1      -1.355  -6.772  -2.004  0.00  0.00    +0.069 A 
ATOM     31  C   UNL     1      -1.001  -6.307  -3.263  0.00  0.00    +0.026 A 
ATOM     32  C   UNL     1      -1.503  -6.923  -4.392  0.00  0.00    +0.002 A 
ATOM     33  C   UNL     1      -2.359  -8.002  -4.271  0.00  0.00    +0.003 A 
ATOM     34  C   UNL     1      -2.716  -8.469  -3.020  0.00  0.00    +0.040 A 
ATOM     35  C   UNL     1      -2.212  -7.861  -1.884  0.00  0.00    +0.144 A 
ATOM     36  F   UNL     1      -2.556  -8.320  -0.661  0.00  0.00    -0.204 F 
ENDBRANCH  28  30
ENDBRANCH  25  26
ENDBRANCH  24  25
ENDBRANCH   6  24
TORSDOF 6
