REMARK  Name = ZINC12890108
REMARK  11 active torsions:
REMARK  status: ('A' for Active; 'I' for Inactive)
REMARK    1  A    between atoms: C_1  and  C_2
REMARK    2  A    between atoms: C_2  and  O_3
REMARK    3  A    between atoms: O_3  and  C_4
REMARK    4  A    between atoms: C_4  and  C_6
REMARK    5  A    between atoms: C_9  and  N_12
REMARK    6  A    between atoms: C_13  and  C_15
REMARK    7  A    between atoms: C_18  and  C_32
REMARK    8  A    between atoms: C_24  and  C_31
REMARK    9  A    between atoms: C_25  and  C_30
REMARK   10  A    between atoms: C_32  and  C_34
REMARK   11  A    between atoms: C_32  and  O_35
REMARK                            x       y       z     vdW  Elec       q    Type
REMARK                         _______ _______ _______ _____ _____    ______ ____
ROOT
ATOM      1  C   UNL     1      -0.759   2.069  -1.238  0.00  0.00    +0.076 C 
ATOM      2  C   UNL     1      -1.909   2.777  -0.483  0.00  0.00    -0.001 C 
ATOM      3  C   UNL     1      -1.867   2.111   0.916  0.00  0.00    -0.040 C 
ATOM      4  C   UNL     1       0.159   1.527  -0.137  0.00  0.00    +0.049 C 
ATOM      5  C   UNL     1       0.302   0.032  -0.239  0.00  0.00    -0.027 A 
ATOM      6  C   UNL     1      -0.597  -1.009  -0.181  0.00  0.00    +0.005 A 
ATOM      7  C   UNL     1      -0.155  -2.313  -0.311  0.00  0.00    +0.004 A 
ATOM      8  C   UNL     1       1.191  -2.568  -0.499  0.00  0.00    -0.046 A 
ATOM      9  C   UNL     1       2.095  -1.528  -0.559  0.00  0.00    -0.026 A 
ATOM     10  C   UNL     1       1.658  -0.211  -0.429  0.00  0.00    +0.039 A 
ATOM     11  N   UNL     1       2.366   0.992  -0.456  0.00  0.00    -0.286 N 
ATOM     12  C   UNL     1       1.561   2.058  -0.293  0.00  0.00    +0.211 C 
ATOM     13  O   UNL     1       1.899   3.223  -0.275  0.00  0.00    -0.277 OA
ATOM     14  C   UNL     1       3.560  -1.817  -0.765  0.00  0.00    +0.046 C 
ATOM     15  C   UNL     1       1.673  -3.989  -0.639  0.00  0.00    +0.044 C 
ATOM     16  H   UNL     1       3.326   1.052  -0.578  0.00  0.00    +0.155 HD
ATOM     17  N   UNL     1      -0.426   1.915   1.138  0.00  0.00    +0.395 N 
ATOM     18  H   UNL     1      -0.275   1.176   1.834  0.00  0.00    -0.083 HD
ATOM     19  H   UNL     1       0.000   2.789   1.468  0.00  0.00    -0.083 HD
ENDROOT
BRANCH   1  21
ATOM     20  N   UNL     1      -0.572   0.453  -3.102  0.00  0.00    -0.285 N 
ATOM     21  C   UNL     1      -1.299   0.939  -2.075  0.00  0.00    +0.220 C 
ATOM     22  O   UNL     1      -2.387   0.465  -1.826  0.00  0.00    -0.275 OA
ATOM     23  H   UNL     1       0.327   0.782  -3.257  0.00  0.00    +0.155 HD
BRANCH  20  27
ATOM     24  C   UNL     1      -2.188  -2.458  -5.604  0.00  0.00    +0.059 A 
ATOM     25  C   UNL     1      -3.014  -1.478  -5.045  0.00  0.00    +0.017 A 
ATOM     26  C   UNL     1      -2.476  -0.517  -4.219  0.00  0.00    +0.024 A 
ATOM     27  C   UNL     1      -1.113  -0.521  -3.939  0.00  0.00    +0.033 A 
ATOM     28  C   UNL     1      -0.288  -1.492  -4.498  0.00  0.00    +0.024 A 
ATOM     29  C   UNL     1      -0.819  -2.459  -5.321  0.00  0.00    +0.017 A 
BRANCH  24  30
ATOM     30  C   UNL     1      -2.760  -3.488  -6.491  0.00  0.00    +0.339 C 
ATOM     31  O   UNL     1      -3.950  -3.486  -6.736  0.00  0.00    -0.245 OA
BRANCH  30  32
ATOM     32  O   UNL     1      -1.963  -4.432  -7.029  0.00  0.00    -0.461 OA
BRANCH  32  34
ATOM     33  C   UNL     1      -1.539  -6.396  -8.404  0.00  0.00    +0.048 C 
ATOM     34  C   UNL     1      -2.595  -5.415  -7.892  0.00  0.00    +0.229 C 
ENDBRANCH  32  34
ENDBRANCH  30  32
ENDBRANCH  24  30
ENDBRANCH  20  27
ENDBRANCH   1  21
BRANCH   3  35
ATOM     35  C   UNL     1      -2.474   3.036   1.973  0.00  0.00    +0.098 C 
ATOM     36  C   UNL     1      -2.315   2.403   3.357  0.00  0.00    +0.036 C 
BRANCH  35  37
ATOM     37  O   UNL     1      -3.862   3.230   1.694  0.00  0.00    -0.394 OA
ATOM     38  H   UNL     1      -4.313   3.808   2.326  0.00  0.00    +0.210 HD
ENDBRANCH  35  37
ENDBRANCH   3  35
TORSDOF 7
