REMARK  Name = ZINC08651883
REMARK  9 active torsions:
REMARK  status: ('A' for Active; 'I' for Inactive)
REMARK    1  A    between atoms: C_1  and  C_2
REMARK    2  A    between atoms: C_4  and  S_21
REMARK    3  A    between atoms: C_5  and  S_9
REMARK    4  A    between atoms: S_9  and  C_10
REMARK    5  A    between atoms: C_10  and  C_11
REMARK    6  A    between atoms: N_17  and  C_18
REMARK    7  A    between atoms: N_17  and  C_19
REMARK    8  A    between atoms: S_21  and  N_24
REMARK    9  A    between atoms: N_24  and  C_25
REMARK                            x       y       z     vdW  Elec       q    Type
REMARK                         _______ _______ _______ _____ _____    ______ ____
ROOT
ATOM      1  C   UNL     1      -2.554   1.631  -5.373  0.00  0.00    +0.045 C 
ATOM      2  C   UNL     1      -1.177   1.772  -4.778  0.00  0.00    -0.030 A 
ATOM      3  C   UNL     1      -1.029   2.218  -3.478  0.00  0.00    +0.034 A 
ATOM      4  C   UNL     1       0.231   2.354  -2.931  0.00  0.00    +0.122 A 
ATOM      5  C   UNL     1       1.353   2.032  -3.686  0.00  0.00    +0.036 A 
ATOM      6  C   UNL     1       1.202   1.579  -4.991  0.00  0.00    +0.037 A 
ATOM      7  C   UNL     1      -0.062   1.451  -5.534  0.00  0.00    +0.045 A 
ATOM      8 CL   UNL     1      -0.253   0.885  -7.164  0.00  0.00    -0.083 Cl
ENDROOT
BRANCH   4   9
ATOM      9  S   UNL     1       0.418   2.929  -1.276  0.00  0.00    +0.075 S 
ATOM     10  O   UNL     1       1.288   2.014  -0.624  0.00  0.00    -0.150 OA
ATOM     11  O   UNL     1      -0.889   3.212  -0.795  0.00  0.00    -0.150 OA
BRANCH   9  12
ATOM     12  N   UNL     1       1.219   4.376  -1.348  0.00  0.00    -0.200 N 
ATOM     13  H   UNL     1       2.096   4.465  -0.943  0.00  0.00    +0.175 HD
BRANCH  12  14
ATOM     14  C   UNL     1       0.641   5.452  -1.981  0.00  0.00    +0.134 A 
ATOM     15  C   UNL     1       1.268   6.286  -2.850  0.00  0.00    +0.089 A 
ATOM     16  C   UNL     1       0.334   7.255  -3.283  0.00  0.00    +0.120 A 
ATOM     17  N   UNL     1      -0.867   6.979  -2.652  0.00  0.00    -0.284 N 
ATOM     18  H   UNL     1      -1.696   7.474  -2.751  0.00  0.00    +0.188 HD
ATOM     19  N   UNL     1      -0.665   5.853  -1.842  0.00  0.00    -0.284 N 
ATOM     20  H   UNL     1      -1.333   5.430  -1.280  0.00  0.00    +0.188 HD
ATOM     21  H   UNL     1      -0.065   8.940  -4.372  0.00  0.00    +0.157 HD
ATOM     22  N   UNL     1       0.629   8.225  -4.151  0.00  0.00    -0.384 N 
ATOM     23  H   UNL     1       1.553   8.252  -4.597  0.00  0.00    +0.157 HD
ENDBRANCH  12  14
ENDBRANCH   9  12
ENDBRANCH   4   9
BRANCH   5  24
ATOM     24  S   UNL     1       2.963   2.196  -2.989  0.00  0.00    -0.115 S 
BRANCH  24  25
ATOM     25  C   UNL     1       4.079   1.817  -4.369  0.00  0.00    +0.150 C 
BRANCH  25  26
ATOM     26  C   UNL     1       5.503   1.813  -3.876  0.00  0.00    +0.146 A 
ATOM     27  N   UNL     1       6.181   2.946  -3.811  0.00  0.00    -0.199 NA
ATOM     28  C   UNL     1       7.438   2.947  -3.373  0.00  0.00    +0.217 A 
ATOM     29  N   UNL     1       8.014   1.806  -3.009  0.00  0.00    -0.181 NA
ATOM     30  C   UNL     1       7.330   0.669  -3.079  0.00  0.00    +0.222 A 
ATOM     31  N   UNL     1       6.072   0.677  -3.515  0.00  0.00    -0.198 NA
ATOM     32  N   UNL     1       7.924  -0.518  -2.702  0.00  0.00    -0.306 N 
ATOM     33  C   UNL     1       7.209  -1.784  -2.883  0.00  0.00    +0.132 C 
ATOM     34  C   UNL     1       9.268  -0.513  -2.120  0.00  0.00    +0.132 C 
ATOM     35  N   UNL     1       8.144   4.130  -3.301  0.00  0.00    -0.327 N 
ATOM     36  H   UNL     1       9.061   4.130  -2.984  0.00  0.00    +0.145 HD
ATOM     37  H   UNL     1       7.723   4.963  -3.567  0.00  0.00    +0.145 HD
ENDBRANCH  25  26
ENDBRANCH  24  25
ENDBRANCH   5  24
TORSDOF 6
