REMARK  Name = ZINC61881446
REMARK  10 active torsions:
REMARK  status: ('A' for Active; 'I' for Inactive)
REMARK    1  A    between atoms: C_1  and  C_2
REMARK    2  A    between atoms: C_2  and  N_3
REMARK    3  A    between atoms: N_3  and  C_4
REMARK    4  A    between atoms: N_3  and  C_6
REMARK    5  A    between atoms: C_4  and  C_5
REMARK    6  A    between atoms: C_6  and  C_7
REMARK    7  A    between atoms: C_7  and  N_8
REMARK    8  A    between atoms: N_8  and  S_9
REMARK    9  A    between atoms: S_9  and  C_12
REMARK   10  A    between atoms: C_16  and  N_19
REMARK                            x       y       z     vdW  Elec       q    Type
REMARK                         _______ _______ _______ _____ _____    ______ ____
ROOT
ATOM      1  S   UNL     1      -0.010  -4.031   3.212  0.00  0.00    +0.060 S 
ATOM      2  O   UNL     1      -0.184  -5.436   3.333  0.00  0.00    -0.153 OA
ATOM      3  O   UNL     1       1.265  -3.435   3.012  0.00  0.00    -0.153 OA
ENDROOT
BRANCH   1   4
ATOM      4  C   UNL     1      -0.675  -3.313   4.678  0.00  0.00    +0.122 A 
ATOM      5  C   UNL     1       0.068  -2.395   5.396  0.00  0.00    +0.049 A 
ATOM      6  C   UNL     1      -0.452  -1.829   6.547  0.00  0.00    +0.045 A 
ATOM      7  C   UNL     1      -1.716  -2.180   6.982  0.00  0.00    +0.044 A 
ATOM      8  C   UNL     1      -2.464  -3.102   6.263  0.00  0.00    +0.042 A 
ATOM      9  C   UNL     1      -1.942  -3.665   5.104  0.00  0.00    +0.065 A 
ATOM     10 BR   UNL     1      -2.960  -4.915   4.116  0.00  0.00    -0.046 Br
ATOM     11 CL   UNL     1       0.486  -0.677   7.446  0.00  0.00    -0.083 Cl
BRANCH   8  12
ATOM     12  N   UNL     1      -3.742  -3.460   6.700  0.00  0.00    -0.357 N 
ATOM     13  H   UNL     1      -4.107  -3.064   7.507  0.00  0.00    +0.142 HD
ATOM     14  H   UNL     1      -4.264  -4.104   6.197  0.00  0.00    +0.142 HD
ENDBRANCH   8  12
ENDBRANCH   1   4
BRANCH   1  15
ATOM     15  N   UNL     1      -0.964  -3.542   1.951  0.00  0.00    -0.192 NA
ATOM     16  H   UNL     1      -1.473  -4.196   1.446  0.00  0.00    +0.148 HD
BRANCH  15  17
ATOM     17  C   UNL     1      -1.040  -2.122   1.597  0.00  0.00    +0.087 C 
BRANCH  17  18
ATOM     18  C   UNL     1      -1.638  -1.977   0.196  0.00  0.00    -0.062 C 
BRANCH  18  19
ATOM     19  N   UNL     1      -1.714  -0.554  -0.159  0.00  0.00    +0.380 N 
ATOM     20  H   UNL     1      -2.230  -0.057   0.552  0.00  0.00    -0.082 HD
BRANCH  19  22
ATOM     21  C   UNL     1      -0.438   1.511  -0.486  0.00  0.00    -0.017 C 
ATOM     22  C   UNL     1      -0.357   0.000  -0.256  0.00  0.00    -0.082 C 
ENDBRANCH  19  22
BRANCH  19  23
ATOM     23  C   UNL     1      -2.396  -0.407  -1.452  0.00  0.00    -0.082 C 
ATOM     24  C   UNL     1      -3.852  -0.858  -1.314  0.00  0.00    -0.017 C 
ENDBRANCH  19  23
ENDBRANCH  18  19
ENDBRANCH  17  18
ENDBRANCH  15  17
ENDBRANCH   1  15
TORSDOF 8
