REMARK  Name = ZINC57115509
REMARK  6 active torsions:
REMARK  status: ('A' for Active; 'I' for Inactive)
REMARK    1  A    between atoms: C_1  and  S_2
REMARK    2  A    between atoms: S_2  and  N_5
REMARK    3  A    between atoms: N_5  and  C_6
REMARK    4  A    between atoms: C_9  and  S_13
REMARK    5  A    between atoms: S_13  and  N_16
REMARK    6  A    between atoms: N_16  and  C_17
REMARK                            x       y       z     vdW  Elec       q    Type
REMARK                         _______ _______ _______ _____ _____    ______ ____
ROOT
ATOM      1  C   UNL     1       1.074  -1.515  -2.295  0.00  0.00    +0.077 A 
ATOM      2  C   UNL     1       0.677  -2.391  -1.292  0.00  0.00    +0.029 A 
ATOM      3  C   UNL     1       0.851  -3.751  -1.456  0.00  0.00    +0.033 A 
ATOM      4  C   UNL     1       1.420  -4.243  -2.616  0.00  0.00    +0.144 A 
ATOM      5  C   UNL     1       1.817  -3.373  -3.618  0.00  0.00    +0.152 A 
ATOM      6  C   UNL     1       1.640  -2.010  -3.462  0.00  0.00    +0.067 A 
ATOM      7  F   UNL     1       2.373  -3.857  -4.751  0.00  0.00    -0.203 F 
ENDROOT
BRANCH   4   8
ATOM      8  S   UNL     1       1.642  -5.979  -2.819  0.00  0.00    +0.075 S 
ATOM      9  O   UNL     1       2.981  -6.169  -3.255  0.00  0.00    -0.150 OA
ATOM     10  O   UNL     1       1.128  -6.594  -1.645  0.00  0.00    -0.150 OA
BRANCH   8  11
ATOM     11  N   UNL     1       0.664  -6.454  -4.069  0.00  0.00    -0.216 N 
ATOM     12  H   UNL     1       1.054  -6.843  -4.867  0.00  0.00    +0.174 HD
BRANCH  11  13
ATOM     13  C   UNL     1      -0.720  -6.294  -3.973  0.00  0.00    +0.048 A 
ATOM     14  C   UNL     1      -1.384  -6.663  -2.810  0.00  0.00    +0.024 A 
ATOM     15  C   UNL     1      -2.753  -6.503  -2.718  0.00  0.00    +0.002 A 
ATOM     16  C   UNL     1      -3.462  -5.976  -3.783  0.00  0.00    +0.000 A 
ATOM     17  C   UNL     1      -2.804  -5.608  -4.941  0.00  0.00    +0.002 A 
ATOM     18  C   UNL     1      -1.434  -5.760  -5.038  0.00  0.00    +0.024 A 
ENDBRANCH  11  13
ENDBRANCH   8  11
ENDBRANCH   4   8
BRANCH   1  19
ATOM     19  N   UNL     1       0.898  -0.139  -2.132  0.00  0.00    -0.103 NA
BRANCH  19  21
ATOM     20  C   UNL     1       0.191   2.251  -0.963  0.00  0.00    +0.220 C 
ATOM     21  S   UNL     1       0.223   0.451  -0.740  0.00  0.00    +0.059 S 
ATOM     22  O   UNL     1       1.142   0.101   0.285  0.00  0.00    -0.154 OA
ATOM     23  O   UNL     1      -1.101  -0.065  -0.732  0.00  0.00    -0.154 OA
ENDBRANCH  19  21
ENDBRANCH   1  19
TORSDOF 5
