REMARK  Name = ZINC02502831
REMARK  6 active torsions:
REMARK  status: ('A' for Active; 'I' for Inactive)
REMARK    1  A    between atoms: C_1  and  C_2
REMARK    2  A    between atoms: C_8  and  C_13
REMARK    3  A    between atoms: C_9  and  O_12
REMARK    4  A    between atoms: C_13  and  C_15
REMARK    5  A    between atoms: C_13  and  N_22
REMARK    6  A    between atoms: N_22  and  C_23
REMARK                            x       y       z     vdW  Elec       q    Type
REMARK                         _______ _______ _______ _____ _____    ______ ____
ROOT
ATOM      1  C   UNL     1       4.796   4.116  -0.021  0.00  0.00    +0.136 C 
ENDROOT
BRANCH   1   9
ATOM      2  C   UNL     1      -2.487   3.628  -0.187  0.00  0.00    +0.065 C 
ATOM      3  C   UNL     1      -1.146   2.942  -0.242  0.00  0.00    +0.039 A 
ATOM      4  C   UNL     1      -1.098   1.559  -0.399  0.00  0.00    +0.023 A 
ATOM      5  C   UNL     1       0.108   0.920  -0.445  0.00  0.00    +0.012 A 
ATOM      6  C   UNL     1       1.277   1.699  -0.342  0.00  0.00    +0.004 A 
ATOM      7  C   UNL     1       2.552   1.113  -0.387  0.00  0.00    +0.010 A 
ATOM      8  C   UNL     1       3.660   1.898  -0.283  0.00  0.00    +0.010 A 
ATOM      9  C   UNL     1       3.548   3.278  -0.133  0.00  0.00    +0.021 A 
ATOM     10  C   UNL     1       2.325   3.883  -0.085  0.00  0.00    +0.148 A 
ATOM     11  C   UNL     1       1.155   3.102  -0.189  0.00  0.00    +0.113 A 
ATOM     12  N   UNL     1      -0.056   3.664  -0.145  0.00  0.00    -0.248 NA
BRANCH  10  13
ATOM     13  O   UNL     1       2.235   5.231   0.062  0.00  0.00    -0.504 OA
ATOM     14  H   UNL     1       2.196   5.524   0.983  0.00  0.00    +0.292 HD
ENDBRANCH  10  13
ENDBRANCH   1   9
BRANCH   1  15
ATOM     15  C   UNL     1       5.199   4.602  -1.390  0.00  0.00    -0.021 A 
ATOM     16  C   UNL     1       4.885   5.889  -1.786  0.00  0.00    +0.006 A 
ATOM     17  C   UNL     1       5.254   6.336  -3.041  0.00  0.00    +0.002 A 
ATOM     18  C   UNL     1       5.937   5.496  -3.900  0.00  0.00    +0.020 A 
ATOM     19  C   UNL     1       6.251   4.208  -3.505  0.00  0.00    +0.041 A 
ATOM     20  C   UNL     1       5.886   3.763  -2.246  0.00  0.00    +0.025 A 
ATOM     21 CL   UNL     1       7.108   3.153  -4.584  0.00  0.00    -0.084 Cl
ENDBRANCH   1  15
BRANCH   1  22
ATOM     22  N   UNL     1       5.877   3.308   0.548  0.00  0.00    -0.320 N 
ATOM     23  H   UNL     1       5.860   2.342   0.457  0.00  0.00    +0.148 HD
BRANCH  22  24
ATOM     24  C   UNL     1       6.928   3.925   1.217  0.00  0.00    +0.097 A 
ATOM     25  C   UNL     1       6.949   5.311   1.338  0.00  0.00    +0.041 A 
ATOM     26  C   UNL     1       7.997   5.911   2.012  0.00  0.00    +0.005 A 
ATOM     27  C   UNL     1       8.999   5.103   2.534  0.00  0.00    +0.018 A 
ATOM     28  C   UNL     1       8.917   3.735   2.371  0.00  0.00    +0.084 A 
ATOM     29  N   UNL     1       7.900   3.110   1.721  0.00  0.00    -0.350 N 
ATOM     30  H   UNL     1       7.865   2.090   1.615  0.00  0.00    +0.166 HD
ENDBRANCH  22  24
ENDBRANCH   1  22
TORSDOF 5
