REMARK  Name = ZINC08944026
REMARK  7 active torsions:
REMARK  status: ('A' for Active; 'I' for Inactive)
REMARK    1  A    between atoms: C_3  and  S_9
REMARK    2  A    between atoms: C_6  and  C_7
REMARK    3  A    between atoms: S_9  and  N_12
REMARK    4  A    between atoms: C_17  and  C_18
REMARK    5  A    between atoms: C_17  and  N_55
REMARK    6  A    between atoms: N_20  and  C_21
REMARK    7  A    between atoms: C_22  and  C_29
REMARK                            x       y       z     vdW  Elec       q    Type
REMARK                         _______ _______ _______ _____ _____    ______ ____
ROOT
ATOM      1  C   UNL     1       1.166  -2.138  -5.727  0.00  0.00    +0.019 C 
ENDROOT
BRANCH   1   7
ATOM      2  N   UNL     1       0.999  -2.951  -1.613  0.00  0.00    -0.180 NA
ATOM      3  C   UNL     1      -0.150  -3.382  -2.423  0.00  0.00    +0.091 C 
ATOM      4  C   UNL     1      -0.140  -2.585  -3.737  0.00  0.00    -0.061 C 
ATOM      5  C   UNL     1       2.244  -2.173  -3.559  0.00  0.00    -0.061 C 
ATOM      6  C   UNL     1       2.329  -2.947  -2.240  0.00  0.00    +0.091 C 
ATOM      7  N   UNL     1       1.175  -2.768  -4.391  0.00  0.00    +0.387 N 
ATOM      8  H   UNL     1       1.356  -3.773  -4.497  0.00  0.00    -0.081 HD
BRANCH   2   9
ATOM      9  S   UNL     1       0.801  -2.490  -0.035  0.00  0.00    +0.061 S 
ATOM     10  O   UNL     1       2.055  -2.686   0.605  0.00  0.00    -0.153 OA
ATOM     11  O   UNL     1      -0.393  -3.109   0.422  0.00  0.00    -0.153 OA
BRANCH   9  14
ATOM     12  C   UNL     1      -1.038   1.079  -0.119  0.00  0.00    +0.021 A 
ATOM     13  C   UNL     1      -0.796  -0.279  -0.121  0.00  0.00    +0.030 A 
ATOM     14  C   UNL     1       0.501  -0.754  -0.034  0.00  0.00    +0.106 A 
ATOM     15  C   UNL     1       1.563   0.129   0.056  0.00  0.00    +0.030 A 
ATOM     16  C   UNL     1       1.335   1.489   0.058  0.00  0.00    +0.021 A 
ATOM     17  C   UNL     1       0.029   1.975  -0.030  0.00  0.00    +0.052 A 
BRANCH  17  18
ATOM     18  C   UNL     1      -0.215   3.386  -0.028  0.00  0.00    +0.099 C 
ATOM     19  N   UNL     1      -0.409   4.505  -0.027  0.00  0.00    -0.191 NA
ENDBRANCH  17  18
ENDBRANCH   9  14
ENDBRANCH   2   9
ENDBRANCH   1   7
BRANCH   1  20
ATOM     20  C   UNL     1       0.839  -0.671  -5.620  0.00  0.00    +0.201 C 
ATOM     21  O   UNL     1       0.729  -0.152  -4.529  0.00  0.00    -0.278 OA
ATOM     22  N   UNL     1       0.667   0.065  -6.737  0.00  0.00    -0.281 N 
ATOM     23  H   UNL     1       0.755  -0.350  -7.609  0.00  0.00    +0.155 HD
BRANCH  22  24
ATOM     24  C   UNL     1       0.366   1.415  -6.638  0.00  0.00    +0.084 A 
ATOM     25  C   UNL     1       0.162   2.327  -7.659  0.00  0.00    +0.068 A 
ATOM     26  C   UNL     1      -0.149   3.706  -7.282  0.00  0.00    -0.023 A 
ATOM     27  C   UNL     1      -0.194   3.940  -5.958  0.00  0.00    -0.004 A 
ATOM     28  S   UNL     1       0.162   2.369  -5.209  0.00  0.00    -0.077 S 
ATOM     29  C   UNL     1      -0.516   5.377  -5.650  0.00  0.00    +0.043 C 
ATOM     30  C   UNL     1      -1.098   5.936  -6.968  0.00  0.00    +0.010 C 
ATOM     31  C   UNL     1      -0.444   5.014  -8.016  0.00  0.00    +0.037 C 
BRANCH  25  32
ATOM     32  C   UNL     1       0.251   1.925  -9.066  0.00  0.00    +0.244 C 
ATOM     33  O   UNL     1      -0.741   1.530  -9.649  0.00  0.00    -0.270 OA
ATOM     34  N   UNL     1       1.431   1.994  -9.713  0.00  0.00    -0.325 N 
ATOM     35  H   UNL     1       2.222   2.310  -9.248  0.00  0.00    +0.145 HD
ATOM     36  H   UNL     1       1.490   1.729 -10.644  0.00  0.00    +0.145 HD
ENDBRANCH  25  32
ENDBRANCH  22  24
ENDBRANCH   1  20
TORSDOF 7
