REMARK  Name = ZINC43665062
REMARK  10 active torsions:
REMARK  status: ('A' for Active; 'I' for Inactive)
REMARK    1  A    between atoms: C_1  and  C_2
REMARK    2  A    between atoms: C_2  and  C_4
REMARK    3  A    between atoms: C_2  and  N_13
REMARK    4  A    between atoms: C_7  and  O_11
REMARK    5  A    between atoms: O_11  and  C_12
REMARK    6  A    between atoms: N_13  and  C_14
REMARK    7  A    between atoms: C_14  and  C_16
REMARK    8  A    between atoms: C_14  and  C_17
REMARK    9  A    between atoms: N_22  and  C_23
REMARK   10  A    between atoms: C_23  and  C_24
REMARK                            x       y       z     vdW  Elec       q    Type
REMARK                         _______ _______ _______ _____ _____    ______ ____
ROOT
ATOM      1  C   UNL     1       2.069   0.135   1.212  0.00  0.00    +0.014 C 
ATOM      2  C   UNL     1       2.043   1.659   1.342  0.00  0.00    -0.004 C 
ENDROOT
BRANCH   1   3
ATOM      3  C   UNL     1       2.867  -0.452   2.348  0.00  0.00    +0.206 C 
ATOM      4  O   UNL     1       2.344  -1.226   3.120  0.00  0.00    -0.277 OA
ATOM      5  N   UNL     1       4.163  -0.117   2.504  0.00  0.00    -0.242 N 
ATOM      6  C   UNL     1       4.877  -0.642   3.519  0.00  0.00    +0.306 C 
ATOM      7  O   UNL     1       4.353  -1.418   4.294  0.00  0.00    -0.252 OA
ATOM      8  N   UNL     1       6.173  -0.306   3.675  0.00  0.00    -0.291 N 
ATOM      9  H   UNL     1       4.582   0.503   1.886  0.00  0.00    +0.159 HD
ATOM     10  H   UNL     1       6.592   0.313   3.057  0.00  0.00    +0.151 HD
BRANCH   8  11
ATOM     11  C   UNL     1       6.949  -0.877   4.779  0.00  0.00    +0.219 C 
BRANCH  11  12
ATOM     12  C   UNL     1       8.380  -0.337   4.729  0.00  0.00    +0.405 C 
ATOM     13  F   UNL     1       8.357   1.057   4.847  0.00  0.00    -0.169 F 
ATOM     14  F   UNL     1       9.121  -0.882   5.783  0.00  0.00    -0.169 F 
ATOM     15  F   UNL     1       8.970  -0.692   3.511  0.00  0.00    -0.169 F 
ENDBRANCH  11  12
ENDBRANCH   8  11
ENDBRANCH   1   3
BRANCH   1  16
ATOM     16  N   UNL     1       0.695  -0.384   1.260  0.00  0.00    +0.391 N 
ATOM     17  H   UNL     1       0.236  -0.044   2.092  0.00  0.00    -0.084 HD
ATOM     18  H   UNL     1       0.717  -1.392   1.276  0.00  0.00    -0.084 HD
BRANCH  16  20
ATOM     19  C   UNL     1      -1.507  -0.353   0.190  0.00  0.00    -0.009 C 
ATOM     20  C   UNL     1      -0.042   0.072   0.074  0.00  0.00    -0.043 C 
BRANCH  20  21
ATOM     21  C   UNL     1       0.564  -0.544  -1.161  0.00  0.00    -0.059 A 
ATOM     22  C   UNL     1       0.977  -1.863  -1.142  0.00  0.00    +0.006 A 
ATOM     23  C   UNL     1       1.533  -2.431  -2.272  0.00  0.00    +0.049 A 
ATOM     24  C   UNL     1       1.676  -1.677  -3.427  0.00  0.00    +0.155 A 
ATOM     25  C   UNL     1       1.260  -0.352  -3.445  0.00  0.00    +0.165 A 
ATOM     26  C   UNL     1       0.699   0.209  -2.312  0.00  0.00    +0.044 A 
ATOM     27  F   UNL     1       1.397   0.385  -4.569  0.00  0.00    -0.202 F 
BRANCH  24  28
ATOM     28  O   UNL     1       2.224  -2.234  -4.540  0.00  0.00    -0.492 OA
ATOM     29  C   UNL     1       2.630  -3.601  -4.449  0.00  0.00    +0.277 C 
ENDBRANCH  24  28
ENDBRANCH  20  21
ENDBRANCH  16  20
ENDBRANCH   1  16
TORSDOF 7
