REMARK  Name = ZINC64044476
REMARK  5 active torsions:
REMARK  status: ('A' for Active; 'I' for Inactive)
REMARK    1  A    between atoms: C_1  and  C_2
REMARK    2  A    between atoms: C_2  and  C_3
REMARK    3  A    between atoms: C_3  and  N_4
REMARK    4  A    between atoms: C_7  and  C_13
REMARK    5  A    between atoms: N_27  and  C_28
REMARK                            x       y       z     vdW  Elec       q    Type
REMARK                         _______ _______ _______ _____ _____    ______ ____
ROOT
ATOM      1  C   UNL     1      -1.325  -4.855   2.458  0.00  0.00    -0.000 C 
ATOM      2  C   UNL     1      -1.328  -4.593   3.966  0.00  0.00    +0.097 C 
ATOM      3  C   UNL     1      -2.561  -5.301   4.517  0.00  0.00    -0.041 C 
ATOM      4  C   UNL     1      -2.136  -6.087   5.495  0.00  0.00    -0.001 A 
ATOM      5  C   UNL     1      -2.857  -6.942   6.452  0.00  0.00    +0.010 A 
ATOM      6  C   UNL     1      -2.090  -7.639   7.331  0.00  0.00    +0.001 A 
ATOM      7  C   UNL     1      -0.693  -7.571   7.355  0.00  0.00    +0.002 A 
ATOM      8  C   UNL     1       0.052  -6.806   6.517  0.00  0.00    +0.026 A 
ATOM      9  C   UNL     1      -0.643  -6.024   5.550  0.00  0.00    +0.043 A 
ATOM     10  N   UNL     1      -0.178  -5.184   4.646  0.00  0.00    -0.379 N 
ATOM     11  C   UNL     1      -3.922  -5.117   3.889  0.00  0.00    +0.015 C 
ATOM     12  C   UNL     1      -3.718  -5.284   2.372  0.00  0.00    -0.074 C 
ATOM     13  N   UNL     1      -2.622  -4.430   1.910  0.00  0.00    +0.384 N 
ATOM     14  C   UNL     1      -2.560  -4.482   0.443  0.00  0.00    -0.095 C 
ATOM     15  H   UNL     1       0.754  -4.992   4.457  0.00  0.00    +0.160 HD
ATOM     16  H   UNL     1      -2.804  -3.479   2.196  0.00  0.00    -0.081 HD
ENDROOT
BRANCH   1  20
ATOM     17  N   UNL     1       0.762  -1.976   1.234  0.00  0.00    -0.261 N 
ATOM     18  C   UNL     1      -0.239  -2.662   1.820  0.00  0.00    +0.262 A 
ATOM     19  O   UNL     1      -1.159  -2.067   2.355  0.00  0.00    -0.267 OA
ATOM     20  C   UNL     1      -0.216  -4.067   1.809  0.00  0.00    +0.070 A 
ATOM     21  C   UNL     1       0.824  -4.708   1.203  0.00  0.00    +0.259 A 
ATOM     22  N   UNL     1       1.822  -3.971   0.618  0.00  0.00    -0.275 N 
ATOM     23  C   UNL     1       1.777  -2.627   0.636  0.00  0.00    +0.332 A 
ATOM     24  O   UNL     1       2.668  -1.990   0.108  0.00  0.00    -0.246 OA
ATOM     25  O   UNL     1       0.870  -6.057   1.179  0.00  0.00    -0.267 OA
ATOM     26  H   UNL     1       2.564  -4.423   0.186  0.00  0.00    +0.173 HD
BRANCH  17  27
ATOM     27  C   UNL     1       0.742  -0.511   1.242  0.00  0.00    +0.130 C 
BRANCH  27  29
ATOM     28  C   UNL     1      -0.019   1.526   0.010  0.00  0.00    +0.005 C 
ATOM     29  C   UNL     1       0.002  -0.004   0.002  0.00  0.00    +0.018 C 
ENDBRANCH  27  29
ENDBRANCH  17  27
ENDBRANCH   1  20
TORSDOF 3
