REMARK  Name = ZINC03007205
REMARK  10 active torsions:
REMARK  status: ('A' for Active; 'I' for Inactive)
REMARK    1  A    between atoms: C_1  and  C_2
REMARK    2  A    between atoms: N_5  and  S_11
REMARK    3  A    between atoms: C_7  and  C_10
REMARK    4  A    between atoms: S_11  and  C_14
REMARK    5  A    between atoms: C_17  and  C_20
REMARK    6  A    between atoms: N_22  and  C_23
REMARK    7  A    between atoms: C_24  and  C_34
REMARK    8  A    between atoms: C_31  and  C_32
REMARK    9  A    between atoms: C_31  and  C_33
REMARK   10  A    between atoms: C_31  and  N_67
REMARK                            x       y       z     vdW  Elec       q    Type
REMARK                         _______ _______ _______ _____ _____    ______ ____
ROOT
ATOM      1  C   UNL     1       3.657   2.160  -0.023  0.00  0.00    +0.249 C 
ATOM      2  O   UNL     1       4.716   1.564  -0.037  0.00  0.00    -0.270 OA
ATOM      3  N   UNL     1       3.642   3.508  -0.015  0.00  0.00    -0.275 N 
ATOM      4  H   UNL     1       2.796   3.983  -0.004  0.00  0.00    +0.156 HD
ENDROOT
BRANCH   3   5
ATOM      5  C   UNL     1       4.834   4.213  -0.024  0.00  0.00    +0.085 A 
ATOM      6  C   UNL     1       5.022   5.590  -0.024  0.00  0.00    +0.068 A 
ATOM      7  C   UNL     1       6.388   6.078  -0.029  0.00  0.00    -0.027 A 
ATOM      8  C   UNL     1       7.343   5.121  -0.045  0.00  0.00    -0.021 A 
ATOM      9  S   UNL     1       6.452   3.593  -0.044  0.00  0.00    -0.079 S 
ATOM     10  C   UNL     1       8.823   5.343  -0.061  0.00  0.00    -0.035 C 
ATOM     11  C   UNL     1       8.248   7.651   0.401  0.00  0.00    -0.073 C 
ATOM     12  C   UNL     1       6.780   7.551  -0.023  0.00  0.00    +0.018 C 
ATOM     13  N   UNL     1       9.065   6.756  -0.444  0.00  0.00    +0.384 N 
ATOM     14  H   UNL     1       8.797   6.887  -1.426  0.00  0.00    -0.081 HD
BRANCH   6  15
ATOM     15  C   UNL     1       3.883   6.513  -0.015  0.00  0.00    +0.244 C 
ATOM     16  O   UNL     1       3.419   6.896   1.043  0.00  0.00    -0.270 OA
ATOM     17  N   UNL     1       3.351   6.939  -1.178  0.00  0.00    -0.325 N 
ATOM     18  H   UNL     1       3.721   6.633  -2.021  0.00  0.00    +0.145 HD
ATOM     19  H   UNL     1       2.598   7.550  -1.172  0.00  0.00    +0.145 HD
ENDBRANCH   6  15
BRANCH  13  20
ATOM     20  C   UNL     1      10.499   7.083  -0.289  0.00  0.00    -0.074 C 
ATOM     21  C   UNL     1      10.940   6.881   1.162  0.00  0.00    -0.014 C 
ATOM     22  C   UNL     1      11.319   6.171  -1.203  0.00  0.00    -0.014 C 
ENDBRANCH  13  20
ENDBRANCH   3   5
BRANCH   1  26
ATOM     23  C   UNL     1       0.002  -0.004   0.002  0.00  0.00    +0.106 A 
ATOM     24  C   UNL     1      -0.017   1.379   0.010  0.00  0.00    +0.029 A 
ATOM     25  C   UNL     1       1.167   2.088   0.002  0.00  0.00    +0.015 A 
ATOM     26  C   UNL     1       2.385   1.407  -0.014  0.00  0.00    +0.037 A 
ATOM     27  C   UNL     1       2.397   0.011  -0.021  0.00  0.00    +0.015 A 
ATOM     28  C   UNL     1       1.206  -0.686  -0.013  0.00  0.00    +0.029 A 
BRANCH  23  29
ATOM     29  S   UNL     1      -1.514  -0.902   0.012  0.00  0.00    +0.061 S 
ATOM     30  O   UNL     1      -1.224  -2.183   0.553  0.00  0.00    -0.153 OA
ATOM     31  O   UNL     1      -2.493  -0.040   0.577  0.00  0.00    -0.153 OA
BRANCH  29  35
ATOM     32  C   UNL     1      -0.603  -3.115  -4.500  0.00  0.00    +0.039 C 
ATOM     33  C   UNL     1      -0.895  -1.889  -3.632  0.00  0.00    +0.131 C 
ATOM     34  C   UNL     1      -1.508  -2.338  -2.301  0.00  0.00    +0.140 C 
ATOM     35  N   UNL     1      -1.951  -1.143  -1.567  0.00  0.00    -0.172 NA
ATOM     36  C   UNL     1      -2.799  -0.171  -2.275  0.00  0.00    +0.140 C 
ATOM     37  C   UNL     1      -2.118   0.176  -3.609  0.00  0.00    +0.131 C 
ATOM     38  O   UNL     1      -1.818  -1.033  -4.310  0.00  0.00    -0.371 OA
ATOM     39  C   UNL     1      -0.824   0.947  -3.341  0.00  0.00    +0.039 C 
ENDBRANCH  29  35
ENDBRANCH  23  29
ENDBRANCH   1  26
TORSDOF 6
