REMARK  Name = ZINC35700165
REMARK  11 active torsions:
REMARK  status: ('A' for Active; 'I' for Inactive)
REMARK    1  A    between atoms: C_1  and  C_2
REMARK    2  A    between atoms: C_2  and  C_3
REMARK    3  A    between atoms: C_3  and  N_4
REMARK    4  A    between atoms: N_4  and  C_5
REMARK    5  A    between atoms: C_5  and  C_6
REMARK    6  A    between atoms: N_8  and  C_9
REMARK    7  A    between atoms: C_10  and  C_22
REMARK    8  A    between atoms: C_11  and  C_21
REMARK    9  A    between atoms: N_13  and  C_14
REMARK   10  A    between atoms: C_17  and  C_20
REMARK   11  A    between atoms: N_30  and  C_31
REMARK                            x       y       z     vdW  Elec       q    Type
REMARK                         _______ _______ _______ _____ _____    ______ ____
ROOT
ATOM      1  C   UNL     1      -3.019  -3.838   1.534  0.00  0.00    +0.236 C 
ATOM      2  O   UNL     1      -3.870  -4.191   0.746  0.00  0.00    -0.274 OA
ATOM      3  N   UNL     1      -3.344  -3.614   2.822  0.00  0.00    -0.268 N 
ATOM      4  H   UNL     1      -2.654  -3.384   3.464  0.00  0.00    +0.156 HD
ENDROOT
BRANCH   3   5
ATOM      5  C   UNL     1      -4.670  -3.713   3.232  0.00  0.00    +0.137 A 
ATOM      6  C   UNL     1      -5.128  -4.290   4.403  0.00  0.00    +0.045 A 
ATOM      7  C   UNL     1      -6.531  -4.168   4.410  0.00  0.00    +0.070 A 
ATOM      8  N   UNL     1      -6.898  -3.558   3.315  0.00  0.00    -0.169 NA
ATOM      9  N   UNL     1      -5.760  -3.254   2.559  0.00  0.00    -0.218 N 
ATOM     10  C   UNL     1      -7.453  -4.660   5.496  0.00  0.00    +0.068 C 
BRANCH   9  11
ATOM     11  C   UNL     1      -5.745  -2.595   1.323  0.00  0.00    +0.067 A 
ATOM     12  C   UNL     1      -4.684  -1.765   0.989  0.00  0.00    +0.028 A 
ATOM     13  C   UNL     1      -4.672  -1.117  -0.230  0.00  0.00    +0.005 A 
ATOM     14  C   UNL     1      -5.716  -1.294  -1.119  0.00  0.00    -0.050 A 
ATOM     15  C   UNL     1      -6.775  -2.121  -0.790  0.00  0.00    +0.005 A 
ATOM     16  C   UNL     1      -6.790  -2.776   0.426  0.00  0.00    +0.028 A 
ATOM     17  C   UNL     1      -5.701  -0.585  -2.449  0.00  0.00    +0.044 C 
ENDBRANCH   9  11
BRANCH   6  18
ATOM     18  C   UNL     1      -4.295  -4.921   5.455  0.00  0.00    -0.013 A 
ATOM     19  C   UNL     1      -3.565  -6.074   5.172  0.00  0.00    +0.008 A 
ATOM     20  C   UNL     1      -2.792  -6.657   6.155  0.00  0.00    +0.001 A 
ATOM     21  C   UNL     1      -2.741  -6.099   7.420  0.00  0.00    +0.000 A 
ATOM     22  C   UNL     1      -3.464  -4.955   7.707  0.00  0.00    +0.001 A 
ATOM     23  C   UNL     1      -4.235  -4.360   6.730  0.00  0.00    +0.008 A 
ENDBRANCH   6  18
ENDBRANCH   3   5
BRANCH   1  24
ATOM     24  C   UNL     1      -1.597  -3.649   1.072  0.00  0.00    +0.205 C 
BRANCH  24  25
ATOM     25  N   UNL     1      -1.503  -3.952  -0.358  0.00  0.00    -0.277 N 
ATOM     26  C   UNL     1      -1.229  -5.208  -0.764  0.00  0.00    +0.307 C 
ATOM     27  O   UNL     1      -1.060  -6.089   0.057  0.00  0.00    -0.252 OA
ATOM     28  N   UNL     1      -1.143  -5.487  -2.079  0.00  0.00    -0.269 N 
ATOM     29  H   UNL     1      -1.337  -4.799  -2.735  0.00  0.00    +0.156 HD
BRANCH  28  30
ATOM     30  C   UNL     1      -0.774  -6.770  -2.500  0.00  0.00    +0.035 A 
ATOM     31  C   UNL     1       0.009  -6.932  -3.635  0.00  0.00    +0.025 A 
ATOM     32  C   UNL     1       0.371  -8.199  -4.048  0.00  0.00    +0.022 A 
ATOM     33  C   UNL     1      -0.045  -9.307  -3.331  0.00  0.00    +0.041 A 
ATOM     34  C   UNL     1      -0.826  -9.149  -2.200  0.00  0.00    +0.022 A 
ATOM     35  C   UNL     1      -1.186  -7.883  -1.779  0.00  0.00    +0.025 A 
ATOM     36 CL   UNL     1       0.412 -10.898  -3.853  0.00  0.00    -0.084 Cl
ENDBRANCH  28  30
BRANCH  25  37
ATOM     37  C   UNL     1      -1.706  -2.890  -1.347  0.00  0.00    +0.109 C 
BRANCH  37  39
ATOM     38  C   UNL     1      -0.578  -1.115  -2.694  0.00  0.00    +0.005 C 
ATOM     39  C   UNL     1      -0.366  -2.223  -1.662  0.00  0.00    +0.016 C 
ENDBRANCH  37  39
ENDBRANCH  25  37
ENDBRANCH  24  25
ENDBRANCH   1  24
TORSDOF 8
