REMARK  Name = ZINC41487573
REMARK  11 active torsions:
REMARK  status: ('A' for Active; 'I' for Inactive)
REMARK    1  A    between atoms: C_1  and  C_2
REMARK    2  A    between atoms: C_6  and  N_8
REMARK    3  A    between atoms: N_11  and  C_14
REMARK    4  A    between atoms: C_14  and  C_15
REMARK    5  A    between atoms: C_15  and  C_16
REMARK    6  A    between atoms: C_16  and  C_18
REMARK    7  A    between atoms: C_16  and  N_19
REMARK    8  A    between atoms: N_22  and  C_23
REMARK    9  A    between atoms: C_23  and  C_25
REMARK   10  A    between atoms: C_23  and  C_26
REMARK   11  A    between atoms: C_26  and  N_27
REMARK                            x       y       z     vdW  Elec       q    Type
REMARK                         _______ _______ _______ _____ _____    ______ ____
ROOT
ATOM      1  C   UNL     1       2.779  -6.885   6.619  0.00  0.00    +0.070 C 
ATOM      2  C   UNL     1       2.387  -8.329   6.940  0.00  0.00    +0.028 C 
ENDROOT
BRANCH   1   3
ATOM      3  N   UNL     1       4.077  -6.871   5.940  0.00  0.00    -0.297 N 
ATOM      4  C   UNL     1       5.215  -6.883   6.663  0.00  0.00    +0.300 C 
ATOM      5  O   UNL     1       5.164  -6.905   7.877  0.00  0.00    -0.253 OA
ATOM      6  N   UNL     1       6.410  -6.870   6.039  0.00  0.00    -0.295 N 
ATOM      7  H   UNL     1       4.118  -6.854   4.971  0.00  0.00    +0.151 HD
ATOM      8  H   UNL     1       6.451  -6.852   5.070  0.00  0.00    +0.151 HD
BRANCH   6   9
ATOM      9  C   UNL     1       7.646  -6.882   6.824  0.00  0.00    +0.091 C 
ATOM     10  C   UNL     1       8.008  -5.452   7.230  0.00  0.00    +0.029 C 
BRANCH   9  11
ATOM     11  C   UNL     1       8.779  -7.475   5.983  0.00  0.00    +0.144 C 
BRANCH  11  12
ATOM     12  N   UNL     1       8.488  -8.882   5.696  0.00  0.00    -0.337 N 
ATOM     13  C   UNL     1       8.850  -9.959   6.459  0.00  0.00    +0.104 A 
ATOM     14  C   UNL     1       8.383 -11.056   5.832  0.00  0.00    +0.101 A 
ATOM     15  N   UNL     1       7.754 -10.659   4.716  0.00  0.00    -0.352 N 
ATOM     16  C   UNL     1       7.808  -9.358   4.630  0.00  0.00    +0.173 A 
ATOM     17  H   UNL     1       7.323 -11.247   4.076  0.00  0.00    +0.166 HD
ENDBRANCH  11  12
ENDBRANCH   9  11
ENDBRANCH   6   9
ENDBRANCH   1   3
BRANCH   1  18
ATOM     18  C   UNL     1       1.721  -6.261   5.707  0.00  0.00    +0.003 C 
BRANCH  18  19
ATOM     19  C   UNL     1       2.046  -4.782   5.486  0.00  0.00    -0.077 C 
BRANCH  19  23
ATOM     20  N   UNL     1       0.051  -2.796   2.390  0.00  0.00    -0.333 N 
ATOM     21  C   UNL     1       0.152  -2.094   3.679  0.00  0.00    +0.086 C 
ATOM     22  C   UNL     1       1.276  -2.739   4.497  0.00  0.00    -0.060 C 
ATOM     23  N   UNL     1       1.030  -4.182   4.611  0.00  0.00    +0.382 N 
ATOM     24  C   UNL     1       1.099  -4.808   3.284  0.00  0.00    -0.060 C 
ATOM     25  C   UNL     1      -0.039  -4.265   2.406  0.00  0.00    +0.086 C 
ATOM     26  H   UNL     1       0.115  -4.336   5.008  0.00  0.00    -0.082 HD
BRANCH  20  32
ATOM     27  C   UNL     1       0.058  -2.812  -2.524  0.00  0.00    +0.044 C 
ATOM     28  C   UNL     1       0.038  -2.071  -1.212  0.00  0.00    -0.049 A 
ATOM     29  C   UNL     1       0.006  -0.688  -1.200  0.00  0.00    +0.003 A 
ATOM     30  C   UNL     1      -0.011  -0.004   0.002  0.00  0.00    +0.002 A 
ATOM     31  C   UNL     1       0.004  -0.701   1.194  0.00  0.00    +0.023 A 
ATOM     32  C   UNL     1       0.036  -2.089   1.186  0.00  0.00    +0.030 A 
ATOM     33  C   UNL     1       0.048  -2.773  -0.023  0.00  0.00    +0.026 A 
ENDBRANCH  20  32
ENDBRANCH  19  23
ENDBRANCH  18  19
ENDBRANCH   1  18
TORSDOF 8
