REMARK  Name = ZINC24986896
REMARK  6 active torsions:
REMARK  status: ('A' for Active; 'I' for Inactive)
REMARK    1  A    between atoms: C_1  and  C_2
REMARK    2  A    between atoms: C_4  and  C_31
REMARK    3  A    between atoms: C_6  and  C_8
REMARK    4  A    between atoms: N_10  and  C_11
REMARK    5  A    between atoms: C_11  and  C_13
REMARK    6  A    between atoms: C_11  and  C_14
REMARK                            x       y       z     vdW  Elec       q    Type
REMARK                         _______ _______ _______ _____ _____    ______ ____
ROOT
ATOM      1  C   UNL     1       0.644  -2.061   5.982  0.00  0.00    +0.236 C 
ATOM      2  O   UNL     1       0.928  -0.905   5.753  0.00  0.00    -0.274 OA
ATOM      3  N   UNL     1       0.841  -2.573   7.213  0.00  0.00    -0.300 N 
ATOM      4  C   UNL     1       0.604  -3.998   7.478  0.00  0.00    +0.110 C 
ATOM      5  C   UNL     1      -0.359  -4.126   8.663  0.00  0.00    +0.047 C 
ATOM      6  C   UNL     1       0.199  -3.347   9.855  0.00  0.00    +0.064 C 
ATOM      7  C   UNL     1       0.327  -1.867   9.492  0.00  0.00    +0.047 C 
ATOM      8  C   UNL     1       1.302  -1.716   8.314  0.00  0.00    +0.110 C 
ATOM      9  C   UNL     1      -0.718  -3.504  11.038  0.00  0.00    +0.057 A 
ATOM     10  C   UNL     1      -0.457  -4.318  12.087  0.00  0.00    +0.039 A 
ATOM     11  N   UNL     1      -1.467  -4.216  12.950  0.00  0.00    -0.349 N 
ATOM     12  C   UNL     1      -2.348  -3.371  12.481  0.00  0.00    +0.171 A 
ATOM     13  N   UNL     1      -1.913  -2.906  11.286  0.00  0.00    -0.348 N 
ATOM     14  H   UNL     1      -2.368  -2.268  10.715  0.00  0.00    +0.166 HD
ATOM     15  C   UNL     1       0.789  -5.165  12.179  0.00  0.00    +0.070 C 
ATOM     16  C   UNL     1       1.418  -5.235  10.781  0.00  0.00    +0.088 C 
ATOM     17  N   UNL     1       1.522  -3.882  10.216  0.00  0.00    -0.305 NA
ATOM     18  H   UNL     1       2.146  -3.868   9.424  0.00  0.00    +0.123 HD
ATOM     19  H   UNL     1      -1.537  -4.692  13.793  0.00  0.00    +0.166 HD
ENDROOT
BRANCH   1  20
ATOM     20  C   UNL     1       0.072  -2.927   4.889  0.00  0.00    +0.156 C 
ATOM     21  C   UNL     1      -1.455  -2.926   4.985  0.00  0.00    +0.038 C 
BRANCH  20  24
ATOM     22  C   UNL     1       0.541  -3.219   2.516  0.00  0.00    +0.245 C 
ATOM     23  O   UNL     1       0.258  -4.395   2.635  0.00  0.00    -0.270 OA
ATOM     24  N   UNL     1       0.480  -2.400   3.584  0.00  0.00    -0.300 N 
ATOM     25  H   UNL     1       0.706  -1.462   3.490  0.00  0.00    +0.150 HD
BRANCH  22  31
ATOM     26  C   UNL     1       2.012   0.610  -0.325  0.00  0.00    +0.044 C 
ATOM     27  C   UNL     1       1.661  -0.847  -0.172  0.00  0.00    -0.049 A 
ATOM     28  C   UNL     1       1.723  -1.691  -1.267  0.00  0.00    +0.006 A 
ATOM     29  C   UNL     1       1.402  -3.030  -1.135  0.00  0.00    -0.049 A 
ATOM     30  C   UNL     1       1.018  -3.533   0.091  0.00  0.00    +0.016 A 
ATOM     31  C   UNL     1       0.953  -2.687   1.199  0.00  0.00    +0.037 A 
ATOM     32  C   UNL     1       1.283  -1.338   1.061  0.00  0.00    +0.016 A 
ATOM     33  C   UNL     1       1.473  -3.942  -2.333  0.00  0.00    +0.044 C 
ENDBRANCH  22  31
ENDBRANCH  20  24
ENDBRANCH   1  20
TORSDOF 3
