REMARK  Name = ZINC09288629
REMARK  8 active torsions:
REMARK  status: ('A' for Active; 'I' for Inactive)
REMARK    1  A    between atoms: C_1  and  O_2
REMARK    2  A    between atoms: O_2  and  C_3
REMARK    3  A    between atoms: C_11  and  C_21
REMARK    4  A    between atoms: C_12  and  S_13
REMARK    5  A    between atoms: S_13  and  C_14
REMARK    6  A    between atoms: N_23  and  C_24
REMARK    7  A    between atoms: C_24  and  C_25
REMARK    8  A    between atoms: C_25  and  N_59
REMARK                            x       y       z     vdW  Elec       q    Type
REMARK                         _______ _______ _______ _____ _____    ______ ____
ROOT
ATOM      1  C   UNL     1       7.450   4.646  -0.043  0.00  0.00    +0.122 A 
ATOM      2  C   UNL     1       7.012   5.969  -0.032  0.00  0.00    +0.046 A 
ATOM      3  C   UNL     1       5.679   6.256  -0.018  0.00  0.00    +0.015 A 
ATOM      4  C   UNL     1       4.742   5.217  -0.015  0.00  0.00    +0.014 A 
ATOM      5  C   UNL     1       5.176   3.878  -0.027  0.00  0.00    +0.052 A 
ATOM      6  C   UNL     1       6.541   3.605  -0.041  0.00  0.00    +0.071 A 
ATOM      7  N   UNL     1       4.062   3.070  -0.014  0.00  0.00    -0.350 N 
ATOM      8  H   UNL     1       4.078   2.100  -0.014  0.00  0.00    +0.166 HD
ATOM      9  C   UNL     1       2.912   3.851  -0.005  0.00  0.00    +0.117 A 
ATOM     10  C   UNL     1       3.277   5.184  -0.001  0.00  0.00    +0.050 A 
ENDROOT
BRANCH   9  11
ATOM     11  C   UNL     1       1.584   3.361   0.005  0.00  0.00    +0.261 C 
ATOM     12  O   UNL     1       0.647   4.140   0.018  0.00  0.00    -0.269 OA
ATOM     13  N   UNL     1       1.356   2.033   0.000  0.00  0.00    -0.312 N 
ATOM     14  H   UNL     1       2.102   1.413  -0.010  0.00  0.00    +0.149 HD
BRANCH  13  15
ATOM     15  C   UNL     1      -0.019   1.526   0.010  0.00  0.00    +0.086 C 
BRANCH  15  16
ATOM     16  C   UNL     1       0.002  -0.004   0.002  0.00  0.00    -0.060 C 
BRANCH  16  23
ATOM     17  C   UNL     1      -2.092  -0.080   1.233  0.00  0.00    -0.079 C 
ATOM     18  C   UNL     1      -3.404  -0.791   1.424  0.00  0.00    -0.019 C 
ATOM     19  C   UNL     1      -3.170  -2.016   2.332  0.00  0.00    -0.002 C 
ATOM     20  C   UNL     1      -2.577  -3.134   1.607  0.00  0.00    -0.002 C 
ATOM     21  C   UNL     1      -1.196  -2.780   1.016  0.00  0.00    -0.019 C 
ATOM     22  C   UNL     1      -1.405  -1.971  -0.235  0.00  0.00    -0.079 C 
ATOM     23  N   UNL     1      -1.389  -0.482  -0.032  0.00  0.00    +0.381 N 
ATOM     24  H   UNL     1      -1.871  -0.043  -0.825  0.00  0.00    -0.082 HD
ENDBRANCH  16  23
ENDBRANCH  15  16
ENDBRANCH  13  15
ENDBRANCH   9  11
BRANCH   1  26
ATOM     25  C   UNL     1       9.669   5.497  -0.059  0.00  0.00    +0.277 C 
ATOM     26  O   UNL     1       8.781   4.377  -0.057  0.00  0.00    -0.495 OA
ENDBRANCH   1  26
BRANCH  10  27
ATOM     27  S   UNL     1       2.193   6.572   0.017  0.00  0.00    -0.087 S 
BRANCH  27  28
ATOM     28  C   UNL     1       2.021   6.803   1.756  0.00  0.00    +0.013 A 
ATOM     29  C   UNL     1       2.680   5.957   2.639  0.00  0.00    +0.016 A 
ATOM     30  C   UNL     1       2.548   6.143   4.000  0.00  0.00    +0.021 A 
ATOM     31  C   UNL     1       1.752   7.166   4.486  0.00  0.00    +0.041 A 
ATOM     32  C   UNL     1       1.090   8.007   3.609  0.00  0.00    +0.021 A 
ATOM     33  C   UNL     1       1.223   7.829   2.246  0.00  0.00    +0.016 A 
ATOM     34 CL   UNL     1       1.584   7.394   6.199  0.00  0.00    -0.084 Cl
ENDBRANCH  27  28
ENDBRANCH  10  27
TORSDOF 7
