REMARK  Name = ZINC64491145
REMARK  7 active torsions:
REMARK  status: ('A' for Active; 'I' for Inactive)
REMARK    1  A    between atoms: C_1  and  C_2
REMARK    2  A    between atoms: N_4  and  C_5
REMARK    3  A    between atoms: C_11  and  C_15
REMARK    4  A    between atoms: C_15  and  C_16
REMARK    5  A    between atoms: N_18  and  C_19
REMARK    6  A    between atoms: C_19  and  C_20
REMARK    7  A    between atoms: C_20  and  C_21
REMARK                            x       y       z     vdW  Elec       q    Type
REMARK                         _______ _______ _______ _____ _____    ______ ____
ROOT
ATOM      1  C   UNL     1      -4.702  -5.844  -3.938  0.00  0.00    +0.131 C 
ENDROOT
BRANCH   1   7
ATOM      2  C   UNL     1      -1.136  -2.159   0.001  0.00  0.00    +0.224 C 
ATOM      3  N   UNL     1      -2.469  -2.707   0.287  0.00  0.00    -0.316 N 
ATOM      4  C   UNL     1      -3.072  -3.482  -0.702  0.00  0.00    +0.043 A 
ATOM      5  C   UNL     1      -4.338  -4.088  -0.609  0.00  0.00    +0.024 A 
ATOM      6  C   UNL     1      -4.847  -4.837  -1.644  0.00  0.00    +0.006 A 
ATOM      7  C   UNL     1      -4.131  -5.021  -2.812  0.00  0.00    -0.037 A 
ATOM      8  C   UNL     1      -2.881  -4.437  -2.932  0.00  0.00    +0.020 A 
ATOM      9  C   UNL     1      -2.373  -3.687  -1.895  0.00  0.00    +0.032 A 
ATOM     10  S   UNL     1      -0.839  -2.807  -1.692  0.00  0.00    -0.082 S 
ATOM     11  H   UNL     1      -2.912  -2.536   1.132  0.00  0.00    +0.149 HD
BRANCH   2  15
ATOM     12  C   UNL     1      -0.018   1.503   0.010  0.00  0.00    +0.109 C 
ATOM     13  C   UNL     1       0.002  -0.004   0.002  0.00  0.00    +0.212 C 
ATOM     14  O   UNL     1       1.060  -0.596  -0.011  0.00  0.00    -0.276 OA
ATOM     15  N   UNL     1      -1.156  -0.694   0.009  0.00  0.00    -0.288 N 
ATOM     16  H   UNL     1      -2.002  -0.220   0.020  0.00  0.00    +0.151 HD
ENDBRANCH   2  15
ENDBRANCH   1   7
BRANCH   1  17
ATOM     17  C   UNL     1      -5.490  -4.952  -4.863  0.00  0.00    +0.217 C 
ATOM     18  O   UNL     1      -5.579  -3.765  -4.630  0.00  0.00    -0.275 OA
ATOM     19  N   UNL     1      -6.095  -5.474  -5.948  0.00  0.00    -0.315 N 
ATOM     20  H   UNL     1      -6.024  -6.423  -6.134  0.00  0.00    +0.149 HD
BRANCH  19  21
ATOM     21  C   UNL     1      -6.861  -4.607  -6.847  0.00  0.00    +0.108 C 
BRANCH  21  22
ATOM     22  C   UNL     1      -7.441  -5.443  -7.990  0.00  0.00    +0.052 C 
BRANCH  22  23
ATOM     23  C   UNL     1      -8.229  -4.551  -8.915  0.00  0.00    -0.040 C 
ATOM     24  C   UNL     1      -7.788  -3.968 -10.053  0.00  0.00    -0.001 A 
ATOM     25  C   UNL     1      -6.493  -3.988 -10.743  0.00  0.00    +0.010 A 
ATOM     26  C   UNL     1      -6.351  -3.288 -11.892  0.00  0.00    +0.001 A 
ATOM     27  C   UNL     1      -7.408  -2.546 -12.438  0.00  0.00    +0.002 A 
ATOM     28  C   UNL     1      -8.627  -2.479 -11.862  0.00  0.00    +0.026 A 
ATOM     29  C   UNL     1      -8.888  -3.177 -10.650  0.00  0.00    +0.043 A 
ATOM     30  N   UNL     1      -9.966  -3.268  -9.910  0.00  0.00    -0.380 N 
ATOM     31  C   UNL     1      -9.674  -4.132  -8.761  0.00  0.00    +0.144 C 
ATOM     32  H   UNL     1     -10.816  -2.838 -10.094  0.00  0.00    +0.160 HD
ENDBRANCH  22  23
ENDBRANCH  21  22
ENDBRANCH  19  21
ENDBRANCH   1  17
TORSDOF 6
