REMARK  Name = ZINC06086994
REMARK  12 active torsions:
REMARK  status: ('A' for Active; 'I' for Inactive)
REMARK    1  A    between atoms: C_1  and  C_2
REMARK    2  A    between atoms: C_2  and  C_3
REMARK    3  A    between atoms: C_3  and  C_5
REMARK    4  A    between atoms: C_3  and  N_63
REMARK    5  A    between atoms: C_15  and  C_16
REMARK    6  A    between atoms: C_15  and  N_63
REMARK    7  A    between atoms: C_16  and  C_18
REMARK    8  A    between atoms: C_16  and  O_30
REMARK    9  A    between atoms: C_18  and  O_19
REMARK   10  A    between atoms: O_19  and  C_20
REMARK   11  A    between atoms: C_20  and  C_22
REMARK   12  A    between atoms: C_20  and  C_23
REMARK                            x       y       z     vdW  Elec       q    Type
REMARK                         _______ _______ _______ _____ _____    ______ ____
ROOT
ATOM      1  N   UNL     1       0.034   1.554   0.114  0.00  0.00    +0.383 N 
ATOM      2  H   UNL     1      -0.684   1.909   0.756  0.00  0.00    -0.085 HD
ATOM      3  H   UNL     1      -0.146   1.912  -0.832  0.00  0.00    -0.085 HD
ENDROOT
BRANCH   1   4
ATOM      4  C   UNL     1      -0.015   0.080   0.094  0.00  0.00    -0.066 C 
BRANCH   4   5
ATOM      5  C   UNL     1      -1.319  -0.389   0.744  0.00  0.00    -0.041 C 
ATOM      6  C   UNL     1      -1.379  -1.917   0.721  0.00  0.00    +0.009 C 
ATOM      7  C   UNL     1      -2.682  -2.386   1.371  0.00  0.00    -0.010 C 
ATOM      8  C   UNL     1      -2.735  -1.896   2.820  0.00  0.00    +0.007 C 
ATOM      9  C   UNL     1      -2.674  -0.367   2.843  0.00  0.00    -0.010 C 
ATOM     10  C   UNL     1      -1.371   0.102   2.193  0.00  0.00    +0.009 C 
ATOM     11  C   UNL     1      -3.865   0.202   2.068  0.00  0.00    +0.007 C 
ATOM     12  C   UNL     1      -3.812  -0.289   0.620  0.00  0.00    -0.010 C 
ATOM     13  C   UNL     1      -3.872  -1.817   0.597  0.00  0.00    +0.007 C 
ATOM     14  C   UNL     1      -2.509   0.180  -0.030  0.00  0.00    +0.009 C 
ENDBRANCH   4   5
BRANCH   4  16
ATOM     15  C   UNL     1       1.398  -0.062  -1.961  0.00  0.00    +0.002 C 
ATOM     16  C   UNL     1       0.037  -0.410  -1.354  0.00  0.00    -0.019 C 
ENDBRANCH   4  16
ENDBRANCH   1   4
BRANCH   1  17
ATOM     17  C   UNL     1       1.361   2.016   0.564  0.00  0.00    -0.048 C 
BRANCH  17  18
ATOM     18  C   UNL     1       1.344   3.541   0.693  0.00  0.00    +0.123 C 
BRANCH  18  19
ATOM     19  O   UNL     1       1.037   4.123  -0.575  0.00  0.00    -0.391 OA
ATOM     20  H   UNL     1       1.669   3.903  -1.272  0.00  0.00    +0.210 HD
ENDBRANCH  18  19
BRANCH  18  21
ATOM     21  C   UNL     1       2.717   4.028   1.159  0.00  0.00    +0.190 C 
BRANCH  21  22
ATOM     22  O   UNL     1       2.669   5.437   1.392  0.00  0.00    -0.370 OA
BRANCH  22  23
ATOM     23  C   UNL     1       3.908   5.996   1.833  0.00  0.00    +0.145 C 
ATOM     24  C   UNL     1       4.730   6.436   0.620  0.00  0.00    +0.043 C 
BRANCH  23  25
ATOM     25  C   UNL     1       3.635   7.189   2.714  0.00  0.00    -0.019 A 
ATOM     26  C   UNL     1       2.560   8.015   2.445  0.00  0.00    +0.007 A 
ATOM     27  C   UNL     1       2.307   9.106   3.255  0.00  0.00    +0.020 A 
ATOM     28  C   UNL     1       3.135   9.376   4.330  0.00  0.00    +0.041 A 
ATOM     29  C   UNL     1       4.214   8.552   4.595  0.00  0.00    +0.020 A 
ATOM     30  C   UNL     1       4.463   7.458   3.787  0.00  0.00    +0.007 A 
ATOM     31 CL   UNL     1       2.822  10.750   5.343  0.00  0.00    -0.084 Cl
ENDBRANCH  23  25
ENDBRANCH  22  23
ENDBRANCH  21  22
ENDBRANCH  18  21
ENDBRANCH  17  18
ENDBRANCH   1  17
TORSDOF 10
