REMARK  Name = ZINC64058230
REMARK  9 active torsions:
REMARK  status: ('A' for Active; 'I' for Inactive)
REMARK    1  A    between atoms: C_1  and  O_2
REMARK    2  A    between atoms: O_2  and  C_3
REMARK    3  A    between atoms: C_3  and  C_5
REMARK    4  A    between atoms: N_8  and  C_11
REMARK    5  A    between atoms: C_14  and  C_28
REMARK    6  A    between atoms: N_16  and  C_18
REMARK    7  A    between atoms: N_30  and  C_31
REMARK    8  A    between atoms: C_31  and  C_32
REMARK    9  A    between atoms: C_32  and  C_33
REMARK                            x       y       z     vdW  Elec       q    Type
REMARK                         _______ _______ _______ _____ _____    ______ ____
ROOT
ATOM      1  C   UNL     1       4.433  -3.590  -1.375  0.00  0.00    +0.077 C 
ATOM      2  C   UNL     1       4.033  -4.951  -2.002  0.00  0.00    +0.016 C 
ATOM      3  C   UNL     1       5.329  -5.777  -1.810  0.00  0.00    +0.021 C 
ATOM      4  N   UNL     1       6.428  -4.813  -2.029  0.00  0.00    +0.391 N 
ATOM      5  C   UNL     1       5.923  -3.452  -1.753  0.00  0.00    -0.053 C 
ATOM      6  H   UNL     1       6.745  -4.872  -2.985  0.00  0.00    -0.080 HD
ENDROOT
BRANCH   4   7
ATOM      7  C   UNL     1       7.542  -5.117  -1.121  0.00  0.00    -0.061 C 
ATOM      8  C   UNL     1       8.618  -4.037  -1.255  0.00  0.00    -0.024 C 
ATOM      9  C   UNL     1       9.130  -4.003  -2.696  0.00  0.00    +0.005 C 
ATOM     10  C   UNL     1       9.726  -5.365  -3.058  0.00  0.00    -0.010 C 
ATOM     11  C   UNL     1      10.886  -5.681  -2.112  0.00  0.00    +0.007 C 
ATOM     12  C   UNL     1      10.374  -5.716  -0.670  0.00  0.00    -0.010 C 
ATOM     13  C   UNL     1       9.778  -4.354  -0.309  0.00  0.00    +0.005 C 
ATOM     14  C   UNL     1       9.298  -6.795  -0.537  0.00  0.00    +0.005 C 
ATOM     15  C   UNL     1       8.138  -6.479  -1.483  0.00  0.00    -0.024 C 
ATOM     16  C   UNL     1       8.650  -6.444  -2.924  0.00  0.00    +0.005 C 
ENDBRANCH   4   7
BRANCH   1  19
ATOM     17  C   UNL     1       2.248  -0.652  -2.354  0.00  0.00    +0.256 C 
ATOM     18  C   UNL     1       2.808  -1.536  -1.221  0.00  0.00    +0.168 C 
ATOM     19  N   UNL     1       3.647  -2.500  -1.958  0.00  0.00    -0.234 N 
ATOM     20  N   UNL     1       3.555  -2.182  -3.314  0.00  0.00    -0.083 NA
ATOM     21  N   UNL     1       2.832  -1.222  -3.575  0.00  0.00    -0.155 NA
BRANCH  17  22
ATOM     22  C   UNL     1       2.688   0.778  -2.175  0.00  0.00    +0.335 C 
ATOM     23  O   UNL     1       3.638   1.200  -2.792  0.00  0.00    -0.248 OA
BRANCH  22  25
ATOM     24  C   UNL     1       2.496   2.928  -1.211  0.00  0.00    +0.280 C 
ATOM     25  O   UNL     1       2.024   1.584  -1.331  0.00  0.00    -0.466 OA
ENDBRANCH  22  25
ENDBRANCH  17  22
ENDBRANCH   1  19
BRANCH   3  26
ATOM     26  C   UNL     1       5.396  -6.892  -2.822  0.00  0.00    +0.200 C 
ATOM     27  O   UNL     1       5.847  -6.681  -3.927  0.00  0.00    -0.278 OA
ATOM     28  N   UNL     1       4.954  -8.123  -2.498  0.00  0.00    -0.316 N 
ATOM     29  H   UNL     1       4.593  -8.292  -1.614  0.00  0.00    +0.149 HD
BRANCH  28  30
ATOM     30  C   UNL     1       5.019  -9.207  -3.482  0.00  0.00    +0.108 C 
BRANCH  30  31
ATOM     31  C   UNL     1       4.459 -10.490  -2.865  0.00  0.00    +0.052 C 
BRANCH  31  32
ATOM     32  C   UNL     1       4.526 -11.605  -3.877  0.00  0.00    -0.040 C 
ATOM     33  C   UNL     1       5.505 -12.529  -4.005  0.00  0.00    -0.001 A 
ATOM     34  C   UNL     1       6.753 -12.764  -3.270  0.00  0.00    +0.010 A 
ATOM     35  C   UNL     1       7.549 -13.793  -3.640  0.00  0.00    +0.001 A 
ATOM     36  C   UNL     1       7.212 -14.639  -4.706  0.00  0.00    +0.002 A 
ATOM     37  C   UNL     1       6.082 -14.486  -5.429  0.00  0.00    +0.026 A 
ATOM     38  C   UNL     1       5.172 -13.437  -5.127  0.00  0.00    +0.043 A 
ATOM     39  N   UNL     1       4.031 -13.087  -5.671  0.00  0.00    -0.380 N 
ATOM     40  C   UNL     1       3.508 -11.920  -4.951  0.00  0.00    +0.144 C 
ATOM     41  H   UNL     1       3.603 -13.528  -6.421  0.00  0.00    +0.160 HD
ENDBRANCH  31  32
ENDBRANCH  30  31
ENDBRANCH  28  30
ENDBRANCH   3  26
TORSDOF 8
