REMARK  Name = ZINC22373997
REMARK  10 active torsions:
REMARK  status: ('A' for Active; 'I' for Inactive)
REMARK    1  A    between atoms: C_1  and  C_2
REMARK    2  A    between atoms: C_5  and  C_9
REMARK    3  A    between atoms: C_7  and  C_8
REMARK    4  A    between atoms: C_9  and  C_11
REMARK    5  A    between atoms: C_9  and  N_12
REMARK    6  A    between atoms: C_13  and  C_15
REMARK    7  A    between atoms: C_15  and  N_16
REMARK    8  A    between atoms: N_16  and  C_17
REMARK    9  A    between atoms: N_16  and  S_25
REMARK   10  A    between atoms: S_25  and  C_28
REMARK                            x       y       z     vdW  Elec       q    Type
REMARK                         _______ _______ _______ _____ _____    ______ ____
ROOT
ATOM      1  N   UNL     1       4.278  -1.182  -1.624  0.00  0.00    -0.194 N 
ENDROOT
BRANCH   1   2
ATOM      2  C   UNL     1       5.098  -0.328  -2.367  0.00  0.00    +0.053 A 
ATOM      3  C   UNL     1       5.283   0.987  -1.959  0.00  0.00    +0.027 A 
ATOM      4  C   UNL     1       6.097   1.829  -2.691  0.00  0.00    +0.042 A 
ATOM      5  C   UNL     1       6.721   1.366  -3.837  0.00  0.00    +0.142 A 
ATOM      6  C   UNL     1       6.535   0.056  -4.249  0.00  0.00    +0.078 A 
ATOM      7  C   UNL     1       5.725  -0.791  -3.516  0.00  0.00    +0.047 A 
ATOM      8 CL   UNL     1       7.319  -0.522  -5.686  0.00  0.00    -0.081 Cl
ATOM      9  F   UNL     1       7.514   2.192  -4.554  0.00  0.00    -0.204 F 
ENDBRANCH   1   2
BRANCH   1  10
ATOM     10  S   UNL     1       4.652  -1.526  -0.048  0.00  0.00    +0.075 S 
ATOM     11  O   UNL     1       6.057  -1.357   0.082  0.00  0.00    -0.150 OA
ATOM     12  O   UNL     1       3.999  -2.748   0.268  0.00  0.00    -0.150 OA
BRANCH  10  13
ATOM     13  C   UNL     1       3.901  -0.282   0.949  0.00  0.00    +0.109 A 
ATOM     14  C   UNL     1       2.582  -0.413   1.340  0.00  0.00    +0.029 A 
ATOM     15  C   UNL     1       1.992   0.564   2.122  0.00  0.00    +0.002 A 
ATOM     16  C   UNL     1       2.723   1.670   2.513  0.00  0.00    +0.000 A 
ATOM     17  C   UNL     1       4.042   1.801   2.122  0.00  0.00    +0.002 A 
ATOM     18  C   UNL     1       4.631   0.825   1.340  0.00  0.00    +0.029 A 
ENDBRANCH  10  13
ENDBRANCH   1  10
BRANCH   1  19
ATOM     19  C   UNL     1       3.087  -1.773  -2.240  0.00  0.00    +0.227 C 
BRANCH  19  21
ATOM     20  N   UNL     1       0.729  -1.141  -2.634  0.00  0.00    -0.307 N 
ATOM     21  C   UNL     1       1.934  -0.808  -2.132  0.00  0.00    +0.233 C 
ATOM     22  O   UNL     1       2.092   0.267  -1.594  0.00  0.00    -0.274 OA
ATOM     23  H   UNL     1       0.586  -2.116  -3.122  0.00  0.00    +0.149 HD
BRANCH  20  24
ATOM     24  C   UNL     1      -0.392  -0.203  -2.530  0.00  0.00    +0.100 C 
ATOM     25  C   UNL     1      -0.341   0.784  -3.697  0.00  0.00    +0.033 C 
BRANCH  24  30
ATOM     26  C   UNL     1      -5.373  -3.128  -2.694  0.00  0.00    +0.044 C 
ATOM     27  C   UNL     1      -4.074  -2.365  -2.651  0.00  0.00    -0.048 A 
ATOM     28  C   UNL     1      -3.028  -2.734  -3.477  0.00  0.00    +0.004 A 
ATOM     29  C   UNL     1      -1.837  -2.034  -3.438  0.00  0.00    +0.006 A 
ATOM     30  C   UNL     1      -1.691  -0.965  -2.573  0.00  0.00    -0.027 A 
ATOM     31  C   UNL     1      -2.735  -0.600  -1.744  0.00  0.00    +0.009 A 
ATOM     32  C   UNL     1      -3.928  -1.296  -1.787  0.00  0.00    -0.047 A 
ATOM     33  C   UNL     1      -5.069  -0.894  -0.887  0.00  0.00    +0.044 C 
ENDBRANCH  24  30
ENDBRANCH  20  24
ENDBRANCH  19  21
ENDBRANCH   1  19
TORSDOF 7
