REMARK  Name = ZINC35939412
REMARK  4 active torsions:
REMARK  status: ('A' for Active; 'I' for Inactive)
REMARK    1  A    between atoms: C_13  and  C_15
REMARK    2  A    between atoms: C_15  and  N_16
REMARK    3  A    between atoms: C_22  and  C_24
REMARK    4  A    between atoms: N_29  and  C_30
REMARK                            x       y       z     vdW  Elec       q    Type
REMARK                         _______ _______ _______ _____ _____    ______ ____
ROOT
ATOM      1  N   UNL     1       1.543  -9.195   2.585  0.00  0.00    -0.291 NA
ATOM      2  C   UNL     1       1.934  -9.209   1.169  0.00  0.00    +0.104 C 
ATOM      3  C   UNL     1       2.085 -10.659   0.699  0.00  0.00    +0.123 C 
ATOM      4  N   UNL     1       0.842 -11.382   1.008  0.00  0.00    -0.294 N 
ATOM      5  C   UNL     1       0.313 -11.302   2.378  0.00  0.00    +0.123 C 
ATOM      6  C   UNL     1       0.232  -9.826   2.782  0.00  0.00    +0.104 C 
ATOM      7  C   UNL     1       0.205 -12.100   0.061  0.00  0.00    +0.266 C 
ATOM      8  O   UNL     1       0.701 -12.226  -1.043  0.00  0.00    -0.268 OA
ENDROOT
BRANCH   7   9
ATOM      9  C   UNL     1      -1.089 -12.732   0.363  0.00  0.00    +0.135 A 
ATOM     10  C   UNL     1      -1.538 -13.791  -0.385  0.00  0.00    +0.081 A 
ATOM     11  S   UNL     1      -3.101 -14.126   0.416  0.00  0.00    -0.060 S 
ATOM     12  C   UNL     1      -3.005 -12.838   1.651  0.00  0.00    +0.163 A 
ATOM     13  N   UNL     1      -1.841 -12.286   1.372  0.00  0.00    -0.220 NA
ATOM     14  N   UNL     1      -3.912 -12.511   2.646  0.00  0.00    -0.294 N 
ATOM     15  H   UNL     1      -3.763 -11.729   3.200  0.00  0.00    +0.154 HD
BRANCH  14  16
ATOM     16  C   UNL     1      -5.043 -13.306   2.850  0.00  0.00    +0.034 A 
ATOM     17  C   UNL     1      -4.971 -14.681   2.659  0.00  0.00    +0.023 A 
ATOM     18  C   UNL     1      -6.089 -15.464   2.861  0.00  0.00    +0.003 A 
ATOM     19  C   UNL     1      -7.281 -14.883   3.254  0.00  0.00    +0.020 A 
ATOM     20  C   UNL     1      -7.357 -13.515   3.445  0.00  0.00    +0.043 A 
ATOM     21  C   UNL     1      -6.239 -12.726   3.250  0.00  0.00    +0.043 A 
ATOM     22 CL   UNL     1      -8.856 -12.790   3.937  0.00  0.00    -0.083 Cl
ENDBRANCH  14  16
ENDBRANCH   7   9
BRANCH   1  23
ATOM     23  C   UNL     1       1.556  -7.827   3.121  0.00  0.00    +0.180 C 
BRANCH  23  36
ATOM     24  C   UNL     1       5.340  -0.297   4.189  0.00  0.00    +0.005 A 
ATOM     25  C   UNL     1       4.277   0.442   4.691  0.00  0.00    +0.018 A 
ATOM     26  C   UNL     1       3.014  -0.116   4.709  0.00  0.00    +0.084 A 
ATOM     27  N   UNL     1       2.807  -1.337   4.255  0.00  0.00    -0.350 N 
ATOM     28  C   UNL     1       3.794  -2.074   3.769  0.00  0.00    +0.099 A 
ATOM     29  C   UNL     1       5.092  -1.575   3.720  0.00  0.00    +0.042 A 
ATOM     30  N   UNL     1       3.531  -3.356   3.302  0.00  0.00    -0.314 N 
ATOM     31  C   UNL     1       4.621  -4.212   2.811  0.00  0.00    +0.125 C 
ATOM     32  C   UNL     1       4.596  -5.533   3.590  0.00  0.00    +0.126 C 
ATOM     33  N   UNL     1       3.223  -6.058   3.579  0.00  0.00    -0.297 N 
ATOM     34  C   UNL     1       2.134  -5.203   4.070  0.00  0.00    +0.126 C 
ATOM     35  C   UNL     1       2.159  -3.884   3.297  0.00  0.00    +0.125 C 
ATOM     36  C   UNL     1       2.968  -7.302   3.126  0.00  0.00    +0.230 C 
ATOM     37  O   UNL     1       3.875  -7.998   2.723  0.00  0.00    -0.274 OA
ATOM     38  H   UNL     1       1.910  -1.705   4.279  0.00  0.00    +0.166 HD
ENDBRANCH  23  36
ENDBRANCH   1  23
TORSDOF 4
