REMARK  Name = ZINC40462287
REMARK  11 active torsions:
REMARK  status: ('A' for Active; 'I' for Inactive)
REMARK    1  A    between atoms: C_1  and  C_2
REMARK    2  A    between atoms: C_2  and  C_3
REMARK    3  A    between atoms: C_3  and  S_4
REMARK    4  A    between atoms: S_4  and  N_7
REMARK    5  A    between atoms: C_10  and  N_13
REMARK    6  A    between atoms: C_14  and  C_16
REMARK    7  A    between atoms: C_16  and  C_18
REMARK    8  A    between atoms: C_16  and  N_22
REMARK    9  A    between atoms: C_18  and  C_19
REMARK   10  A    between atoms: C_18  and  C_20
REMARK   11  A    between atoms: C_18  and  C_21
REMARK                            x       y       z     vdW  Elec       q    Type
REMARK                         _______ _______ _______ _____ _____    ______ ____
ROOT
ATOM      1  N   UNL     1       3.000  -5.701  -5.221  0.00  0.00    -0.314 N 
ATOM      2  C   UNL     1       4.154  -5.858  -5.898  0.00  0.00    +0.199 C 
ATOM      3  O   UNL     1       4.914  -4.921  -6.025  0.00  0.00    -0.278 OA
ATOM      4  H   UNL     1       2.392  -6.450  -5.119  0.00  0.00    +0.149 HD
ENDROOT
BRANCH   1   8
ATOM      5  N   UNL     1       1.535  -2.719  -2.663  0.00  0.00    -0.181 NA
ATOM      6  C   UNL     1       0.794  -2.908  -3.917  0.00  0.00    +0.111 C 
ATOM      7  C   UNL     1       1.144  -4.283  -4.494  0.00  0.00    +0.039 C 
ATOM      8  C   UNL     1       2.663  -4.400  -4.638  0.00  0.00    +0.075 C 
ATOM      9  C   UNL     1       3.319  -4.272  -3.261  0.00  0.00    +0.039 C 
ATOM     10  C   UNL     1       2.994  -2.891  -2.672  0.00  0.00    +0.111 C 
BRANCH   5  11
ATOM     11  S   UNL     1       0.743  -2.311  -1.267  0.00  0.00    +0.032 S 
ATOM     12  O   UNL     1       1.576  -2.795  -0.222  0.00  0.00    -0.158 OA
ATOM     13  O   UNL     1      -0.574  -2.818  -1.437  0.00  0.00    -0.158 OA
BRANCH  11  14
ATOM     14  C   UNL     1       0.718  -0.497  -1.257  0.00  0.00    +0.185 C 
BRANCH  14  16
ATOM     15  C   UNL     1      -0.019   1.526   0.010  0.00  0.00    +0.005 C 
ATOM     16  C   UNL     1       0.002  -0.004   0.002  0.00  0.00    +0.021 C 
ENDBRANCH  14  16
ENDBRANCH  11  14
ENDBRANCH   5  11
ENDBRANCH   1   8
BRANCH   2  17
ATOM     17  C   UNL     1       4.500  -7.197  -6.497  0.00  0.00    +0.018 C 
BRANCH  17  18
ATOM     18  C   UNL     1       5.060  -8.114  -5.407  0.00  0.00    -0.042 C 
ATOM     19  C   UNL     1       4.010  -8.302  -4.311  0.00  0.00    +0.009 C 
ATOM     20  C   UNL     1       5.411  -9.473  -6.016  0.00  0.00    +0.009 C 
ATOM     21  C   UNL     1       6.318  -7.483  -4.806  0.00  0.00    +0.009 C 
ENDBRANCH  17  18
BRANCH  17  22
ATOM     22  N   UNL     1       5.509  -7.016  -7.550  0.00  0.00    +0.386 N 
ATOM     23  H   UNL     1       6.338  -6.600  -7.154  0.00  0.00    -0.089 HD
ATOM     24  H   UNL     1       5.741  -7.912  -7.951  0.00  0.00    -0.089 HD
ATOM     25  H   UNL     1       5.140  -6.411  -8.268  0.00  0.00    -0.089 HD
ENDBRANCH  17  22
ENDBRANCH   2  17
TORSDOF 7
