REMARK  Name = ZINC01683817
REMARK  2 active torsions:
REMARK  status: ('A' for Active; 'I' for Inactive)
REMARK    1  A    between atoms: N_3  and  C_4
REMARK    2  A    between atoms: N_11  and  N_12
REMARK                            x       y       z     vdW  Elec       q    Type
REMARK                         _______ _______ _______ _____ _____    ______ ____
ROOT
ATOM      1  H   UNL     1       3.853  -1.149  -0.030  0.00  0.00    +0.159 HD
ATOM      2  C   UNL     1       2.337  -2.508  -0.093  0.00  0.00    +0.191 C 
ATOM      3  N   UNL     1       1.290  -1.615  -0.111  0.00  0.00    -0.327 N 
ATOM      4  N   UNL     1       2.088  -3.858  -0.018  0.00  0.00    -0.275 N 
ATOM      5  H   UNL     1       0.385  -1.925   0.049  0.00  0.00    +0.169 HD
ATOM      6  H   UNL     1       1.174  -4.181   0.022  0.00  0.00    +0.188 HD
ATOM      7  N   UNL     1       3.605  -2.130  -0.160  0.00  0.00    -0.370 N 
ATOM      8  H   UNL     1       4.339  -2.825  -0.342  0.00  0.00    +0.159 HD
ENDROOT
BRANCH   4   9
ATOM      9  N   UNL     1       3.154  -4.767   0.001  0.00  0.00    -0.244 N 
ATOM     10  C   UNL     1       3.541  -5.439   1.249  0.00  0.00    +0.130 C 
ATOM     11  C   UNL     1       5.071  -5.390   1.352  0.00  0.00    +0.026 C 
ATOM     12  C   UNL     1       5.670  -6.180   0.189  0.00  0.00    +0.038 C 
ATOM     13  C   UNL     1       5.078  -5.724  -1.118  0.00  0.00    -0.025 A 
ATOM     14  C   UNL     1       3.863  -5.055  -1.171  0.00  0.00    +0.053 A 
ATOM     15  C   UNL     1       3.346  -4.647  -2.394  0.00  0.00    +0.025 A 
ATOM     16  C   UNL     1       4.036  -4.914  -3.560  0.00  0.00    +0.002 A 
ATOM     17  C   UNL     1       5.245  -5.583  -3.508  0.00  0.00    +0.000 A 
ATOM     18  C   UNL     1       5.763  -5.987  -2.292  0.00  0.00    +0.005 A 
ENDBRANCH   4   9
BRANCH   3  19
ATOM     19  C   UNL     1       1.531  -0.259  -0.360  0.00  0.00    +0.042 A 
ATOM     20  C   UNL     1       1.179   0.695   0.586  0.00  0.00    +0.027 A 
ATOM     21  C   UNL     1       1.418   2.033   0.338  0.00  0.00    +0.022 A 
ATOM     22  C   UNL     1       2.007   2.422  -0.853  0.00  0.00    +0.041 A 
ATOM     23  C   UNL     1       2.358   1.474  -1.797  0.00  0.00    +0.022 A 
ATOM     24  C   UNL     1       2.122   0.135  -1.553  0.00  0.00    +0.027 A 
ATOM     25 CL   UNL     1       2.305   4.104  -1.162  0.00  0.00    -0.084 Cl
ENDBRANCH   3  19
TORSDOF 2
