REMARK  Name = ZINC63426783
REMARK  9 active torsions:
REMARK  status: ('A' for Active; 'I' for Inactive)
REMARK    1  A    between atoms: C_1  and  C_2
REMARK    2  A    between atoms: C_2  and  C_3
REMARK    3  A    between atoms: C_3  and  C_4
REMARK    4  A    between atoms: N_13  and  C_14
REMARK    5  A    between atoms: C_14  and  C_16
REMARK    6  A    between atoms: C_14  and  C_26
REMARK    7  A    between atoms: C_16  and  C_17
REMARK    8  A    between atoms: C_26  and  O_28
REMARK    9  A    between atoms: O_28  and  C_29
REMARK                            x       y       z     vdW  Elec       q    Type
REMARK                         _______ _______ _______ _____ _____    ______ ____
ROOT
ATOM      1  C   UNL     1       1.214   1.551   2.017  0.00  0.00    +0.218 C 
ENDROOT
BRANCH   1   3
ATOM      2  C   UNL     1       1.083  -0.770   1.442  0.00  0.00    +0.054 C 
ATOM      3  N   UNL     1       1.518   0.139   2.261  0.00  0.00    -0.272 NA
BRANCH   2   4
ATOM      4  C   UNL     1       1.507  -2.164   1.602  0.00  0.00    +0.126 A 
ATOM      5  C   UNL     1       2.249  -2.572   2.738  0.00  0.00    +0.267 A 
ATOM      6  N   UNL     1       2.615  -3.868   2.838  0.00  0.00    -0.273 N 
ATOM      7  C   UNL     1       2.274  -4.753   1.867  0.00  0.00    +0.352 A 
ATOM      8  N   UNL     1       1.585  -4.389   0.806  0.00  0.00    -0.153 NA
ATOM      9  C   UNL     1       1.182  -3.130   0.636  0.00  0.00    +0.289 A 
ATOM     10  O   UNL     1       0.471  -2.785  -0.459  0.00  0.00    -0.265 OA
ATOM     11  O   UNL     1       2.652  -6.040   1.992  0.00  0.00    -0.245 OA
ATOM     12  O   UNL     1       2.552  -1.771   3.606  0.00  0.00    -0.267 OA
ATOM     13  H   UNL     1       3.124  -4.168   3.608  0.00  0.00    +0.174 HD
ENDBRANCH   2   4
BRANCH   2  15
ATOM     14  C   UNL     1       0.952  -0.014  -0.916  0.00  0.00    +0.010 C 
ATOM     15  C   UNL     1       0.143  -0.391   0.326  0.00  0.00    +0.052 C 
ENDBRANCH   2  15
ENDBRANCH   1   3
BRANCH   1  16
ATOM     16  C   UNL     1       2.497   2.308   1.788  0.00  0.00    +0.332 C 
ATOM     17  O   UNL     1       3.556   1.728   1.825  0.00  0.00    -0.248 OA
BRANCH  16  18
ATOM     18  O   UNL     1       2.463   3.627   1.543  0.00  0.00    -0.466 OA
ATOM     19  C   UNL     1       3.716   4.281   1.335  0.00  0.00    +0.280 C 
ENDBRANCH  16  18
ENDBRANCH   1  16
BRANCH   1  20
ATOM     20  C   UNL     1       0.488   2.134   3.231  0.00  0.00    +0.071 C 
BRANCH  20  21
ATOM     21  C   UNL     1      -0.849   1.456   3.389  0.00  0.00    -0.039 C 
ATOM     22  C   UNL     1      -1.136   0.402   4.186  0.00  0.00    -0.001 A 
ATOM     23  C   UNL     1      -0.322  -0.400   5.107  0.00  0.00    +0.010 A 
ATOM     24  C   UNL     1      -0.903  -1.417   5.782  0.00  0.00    +0.001 A 
ATOM     25  C   UNL     1      -2.262  -1.725   5.624  0.00  0.00    +0.002 A 
ATOM     26  C   UNL     1      -3.074  -1.035   4.796  0.00  0.00    +0.026 A 
ATOM     27  C   UNL     1      -2.568   0.057   4.037  0.00  0.00    +0.043 A 
ATOM     28  N   UNL     1      -3.144   0.866   3.182  0.00  0.00    -0.380 N 
ATOM     29  C   UNL     1      -2.142   1.821   2.695  0.00  0.00    +0.144 C 
ATOM     30  H   UNL     1      -4.077   0.840   2.918  0.00  0.00    +0.160 HD
ENDBRANCH  20  21
ENDBRANCH   1  20
TORSDOF 7
