REMARK  Name = ZINC63844800
REMARK  7 active torsions:
REMARK  status: ('A' for Active; 'I' for Inactive)
REMARK    1  A    between atoms: C_3  and  S_22
REMARK    2  A    between atoms: C_6  and  C_7
REMARK    3  A    between atoms: C_7  and  N_8
REMARK    4  A    between atoms: N_8  and  C_9
REMARK    5  A    between atoms: C_9  and  C_10
REMARK    6  A    between atoms: C_10  and  O_21
REMARK    7  A    between atoms: S_22  and  N_25
REMARK                            x       y       z     vdW  Elec       q    Type
REMARK                         _______ _______ _______ _____ _____    ______ ____
ROOT
ATOM      1  N   UNL     1      -1.727  -1.018  -1.371  0.00  0.00    +0.384 N 
ATOM      2  H   UNL     1      -1.864  -0.136  -1.841  0.00  0.00    -0.085 HD
ATOM      3  H   UNL     1      -1.021  -1.552  -1.857  0.00  0.00    -0.085 HD
ENDROOT
BRANCH   1   4
ATOM      4  C   UNL     1      -1.293  -0.775   0.011  0.00  0.00    -0.047 C 
BRANCH   4  10
ATOM      5  C   UNL     1      -0.017   1.378   0.010  0.00  0.00    +0.003 A 
ATOM      6  C   UNL     1       1.171   2.086   0.002  0.00  0.00    +0.029 A 
ATOM      7  C   UNL     1       2.377   1.411  -0.013  0.00  0.00    +0.105 A 
ATOM      8  C   UNL     1       2.396   0.029  -0.020  0.00  0.00    +0.029 A 
ATOM      9  C   UNL     1       1.208  -0.679  -0.012  0.00  0.00    +0.003 A 
ATOM     10  C   UNL     1       0.002  -0.004   0.002  0.00  0.00    -0.064 A 
BRANCH   7  11
ATOM     11  S   UNL     1       3.891   2.312  -0.024  0.00  0.00    +0.056 S 
ATOM     12  O   UNL     1       4.872   1.453  -0.588  0.00  0.00    -0.153 OA
ATOM     13  O   UNL     1       3.597   3.593  -0.566  0.00  0.00    -0.153 OA
BRANCH  11  14
ATOM     14  N   UNL     1       4.327   2.556   1.555  0.00  0.00    -0.204 NA
ATOM     15  H   UNL     1       5.265   2.623   1.794  0.00  0.00    +0.144 HD
ATOM     16  H   UNL     1       3.645   2.631   2.241  0.00  0.00    +0.144 HD
ENDBRANCH  11  14
ENDBRANCH   7  11
ENDBRANCH   4  10
ENDBRANCH   1   4
BRANCH   1  17
ATOM     17  C   UNL     1      -2.989  -1.770  -1.363  0.00  0.00    -0.049 C 
BRANCH  17  18
ATOM     18  C   UNL     1      -3.442  -2.023  -2.802  0.00  0.00    +0.039 C 
ATOM     19  C   UNL     1      -3.522  -0.692  -3.552  0.00  0.00    +0.029 C 
ATOM     20  C   UNL     1      -4.582   0.186  -2.879  0.00  0.00    -0.016 C 
ATOM     21  C   UNL     1      -5.918  -0.556  -2.891  0.00  0.00    -0.078 C 
ATOM     22  N   UNL     1      -5.802  -1.820  -2.149  0.00  0.00    +0.383 N 
ATOM     23  C   UNL     1      -4.818  -2.697  -2.793  0.00  0.00    -0.038 C 
ATOM     24  C   UNL     1      -4.700  -4.013  -2.017  0.00  0.00    -0.013 C 
ATOM     25  C   UNL     1      -6.061  -4.708  -1.966  0.00  0.00    -0.003 C 
ATOM     26  C   UNL     1      -7.074  -3.755  -1.322  0.00  0.00    -0.019 C 
ATOM     27  C   UNL     1      -7.124  -2.464  -2.138  0.00  0.00    -0.078 C 
ATOM     28  H   UNL     1      -5.512  -1.629  -1.202  0.00  0.00    -0.081 HD
BRANCH  18  29
ATOM     29  O   UNL     1      -2.499  -2.878  -3.453  0.00  0.00    -0.392 OA
ATOM     30  H   UNL     1      -1.603  -2.516  -3.495  0.00  0.00    +0.210 HD
ENDBRANCH  18  29
ENDBRANCH  17  18
ENDBRANCH   1  17
TORSDOF 7
