REMARK  Name = ZINC39675261
REMARK  11 active torsions:
REMARK  status: ('A' for Active; 'I' for Inactive)
REMARK    1  A    between atoms: C_1  and  C_2
REMARK    2  A    between atoms: C_2  and  C_4
REMARK    3  A    between atoms: C_2  and  N_14
REMARK    4  A    between atoms: C_4  and  C_5
REMARK    5  A    between atoms: C_5  and  C_6
REMARK    6  A    between atoms: C_9  and  O_12
REMARK    7  A    between atoms: O_12  and  C_13
REMARK    8  A    between atoms: C_15  and  C_17
REMARK    9  A    between atoms: C_28  and  C_30
REMARK   10  A    between atoms: C_33  and  O_36
REMARK   11  A    between atoms: O_36  and  C_37
REMARK                            x       y       z     vdW  Elec       q    Type
REMARK                         _______ _______ _______ _____ _____    ______ ____
ROOT
ATOM      1  C   UNL     1       2.867  -1.317   3.037  0.00  0.00    +0.100 C 
ATOM      2  C   UNL     1       2.241  -2.728   3.093  0.00  0.00    +0.121 C 
ATOM      3  N   UNL     1       3.212  -3.597   2.387  0.00  0.00    -0.296 N 
ATOM      4  C   UNL     1       4.538  -3.093   2.817  0.00  0.00    +0.115 C 
ATOM      5  C   UNL     1       4.375  -1.560   2.859  0.00  0.00    -0.004 C 
ATOM      6  C   UNL     1       5.147  -0.980   4.040  0.00  0.00    -0.010 C 
ATOM      7  C   UNL     1       6.648  -1.183   3.813  0.00  0.00    -0.082 C 
ATOM      8  N   UNL     1       7.049  -0.520   2.566  0.00  0.00    +0.379 N 
ATOM      9  C   UNL     1       6.372  -1.147   1.425  0.00  0.00    -0.082 C 
ATOM     10  C   UNL     1       4.859  -0.942   1.551  0.00  0.00    -0.010 C 
ATOM     11  C   UNL     1       2.949  -4.615   1.544  0.00  0.00    +0.247 C 
ATOM     12  O   UNL     1       1.806  -4.831   1.189  0.00  0.00    -0.270 OA
ATOM     13  H   UNL     1       6.798   0.457   2.610  0.00  0.00    -0.086 HD
ATOM     14  H   UNL     1       8.048  -0.602   2.450  0.00  0.00    -0.086 HD
ENDROOT
BRANCH  11  15
ATOM     15  C   UNL     1       4.048  -5.469   1.052  0.00  0.00    +0.037 A 
ATOM     16  C   UNL     1       5.254  -5.532   1.754  0.00  0.00    +0.016 A 
ATOM     17  C   UNL     1       6.276  -6.330   1.292  0.00  0.00    +0.047 A 
ATOM     18  C   UNL     1       6.110  -7.072   0.128  0.00  0.00    +0.130 A 
ATOM     19  C   UNL     1       4.912  -7.011  -0.574  0.00  0.00    +0.047 A 
ATOM     20  C   UNL     1       3.882  -6.220  -0.115  0.00  0.00    +0.016 A 
BRANCH  18  21
ATOM     21  O   UNL     1       7.121  -7.856  -0.325  0.00  0.00    -0.406 OA
BRANCH  21  22
ATOM     22  C   UNL     1       6.883  -8.591  -1.527  0.00  0.00    +0.575 C 
ATOM     23  F   UNL     1       6.602  -7.702  -2.569  0.00  0.00    -0.133 F 
ATOM     24  F   UNL     1       8.020  -9.341  -1.847  0.00  0.00    -0.133 F 
ATOM     25  F   UNL     1       5.795  -9.450  -1.340  0.00  0.00    -0.133 F 
ENDBRANCH  21  22
ENDBRANCH  18  21
ENDBRANCH  11  15
BRANCH   1  27
ATOM     26  N   UNL     1       2.330   0.802   1.879  0.00  0.00    -0.312 N 
ATOM     27  C   UNL     1       2.318  -0.546   1.865  0.00  0.00    +0.218 C 
ATOM     28  O   UNL     1       1.865  -1.138   0.908  0.00  0.00    -0.275 OA
ATOM     29  H   UNL     1       2.693   1.275   2.644  0.00  0.00    +0.149 HD
BRANCH  26  31
ATOM     30  C   UNL     1       2.884   1.700  -0.328  0.00  0.00    +0.028 C 
ATOM     31  C   UNL     1       1.797   1.552   0.739  0.00  0.00    +0.070 C 
BRANCH  31  32
ATOM     32  C   UNL     1       1.348   2.938   1.206  0.00  0.00    +0.026 C 
BRANCH  32  33
ATOM     33  C   UNL     1       0.177   2.794   2.179  0.00  0.00    +0.037 C 
BRANCH  33  34
ATOM     34  C   UNL     1      -0.265   4.160   2.639  0.00  0.00    -0.047 A 
ATOM     35  C   UNL     1       0.306   4.728   3.763  0.00  0.00    +0.007 A 
ATOM     36  C   UNL     1      -0.098   5.980   4.186  0.00  0.00    +0.046 A 
ATOM     37  C   UNL     1      -1.077   6.666   3.482  0.00  0.00    +0.120 A 
ATOM     38  C   UNL     1      -1.647   6.094   2.355  0.00  0.00    +0.046 A 
ATOM     39  C   UNL     1      -1.236   4.845   1.933  0.00  0.00    +0.007 A 
BRANCH  37  40
ATOM     40  O   UNL     1      -1.476   7.897   3.897  0.00  0.00    -0.495 OA
ATOM     41  C   UNL     1      -2.488   8.546   3.124  0.00  0.00    +0.277 C 
ENDBRANCH  37  40
ENDBRANCH  33  34
ENDBRANCH  32  33
ENDBRANCH  31  32
ENDBRANCH  26  31
ENDBRANCH   1  27
TORSDOF 9
