REMARK  Name = ZINC44170759
REMARK  8 active torsions:
REMARK  status: ('A' for Active; 'I' for Inactive)
REMARK    1  A    between atoms: C_1  and  C_2
REMARK    2  A    between atoms: C_2  and  C_3
REMARK    3  A    between atoms: C_3  and  C_4
REMARK    4  A    between atoms: C_4  and  C_5
REMARK    5  A    between atoms: C_5  and  C_6
REMARK    6  A    between atoms: C_9  and  C_12
REMARK    7  A    between atoms: C_18  and  C_21
REMARK    8  A    between atoms: N_23  and  C_24
REMARK                            x       y       z     vdW  Elec       q    Type
REMARK                         _______ _______ _______ _____ _____    ______ ____
ROOT
ATOM      1  C   UNL     1      -2.736  -8.348  -0.013  0.00  0.00    -0.027 C 
ATOM      2  C   UNL     1      -4.162  -8.855   0.234  0.00  0.00    +0.092 C 
ATOM      3  S   UNL     1      -4.145 -10.673   0.143  0.00  0.00    +0.020 S 
ATOM      4  O   UNL     1      -5.357 -11.185   0.679  0.00  0.00    -0.257 OA
ATOM      5  C   UNL     1      -2.762 -11.113   1.241  0.00  0.00    +0.097 C 
ATOM      6  C   UNL     1      -1.546 -10.268   0.844  0.00  0.00    +0.029 C 
ATOM      7  N   UNL     1      -1.845  -8.848   1.036  0.00  0.00    +0.392 N 
ATOM      8  H   UNL     1      -0.983  -8.323   1.014  0.00  0.00    -0.084 HD
ATOM      9  H   UNL     1      -2.286  -8.719   1.934  0.00  0.00    -0.084 HD
ENDROOT
BRANCH   1  13
ATOM     10  C   UNL     1      -2.724  -4.077   0.027  0.00  0.00    -0.047 A 
ATOM     11  C   UNL     1      -2.728  -4.757  -1.177  0.00  0.00    +0.004 A 
ATOM     12  C   UNL     1      -2.732  -6.139  -1.190  0.00  0.00    +0.002 A 
ATOM     13  C   UNL     1      -2.731  -6.841   0.001  0.00  0.00    -0.060 A 
ATOM     14  C   UNL     1      -2.726  -6.161   1.205  0.00  0.00    +0.002 A 
ATOM     15  C   UNL     1      -2.718  -4.779   1.218  0.00  0.00    +0.004 A 
BRANCH  10  16
ATOM     16  C   UNL     1      -2.719  -2.570   0.041  0.00  0.00    +0.035 C 
BRANCH  16  17
ATOM     17  C   UNL     1      -1.276  -2.064   0.036  0.00  0.00    +0.005 C 
BRANCH  17  18
ATOM     18  C   UNL     1      -1.271  -0.534   0.050  0.00  0.00    +0.000 C 
BRANCH  18  20
ATOM     19  C   UNL     1       0.177   1.502   0.059  0.00  0.00    +0.004 C 
ATOM     20  C   UNL     1       0.173  -0.028   0.045  0.00  0.00    -0.003 C 
ENDBRANCH  18  20
ENDBRANCH  17  18
ENDBRANCH  16  17
ENDBRANCH  10  16
ENDBRANCH   1  13
BRANCH   6  21
ATOM     21  C   UNL     1      -1.213 -10.519  -0.604  0.00  0.00    +0.200 C 
ATOM     22  O   UNL     1      -0.805  -9.613  -1.298  0.00  0.00    -0.278 OA
ATOM     23  N   UNL     1      -1.369 -11.751  -1.128  0.00  0.00    -0.310 N 
ATOM     24  H   UNL     1      -1.696 -12.476  -0.572  0.00  0.00    +0.149 HD
BRANCH  23  25
ATOM     25  C   UNL     1      -1.046 -11.995  -2.536  0.00  0.00    +0.103 C 
ATOM     26  C   UNL     1      -1.859 -13.186  -3.040  0.00  0.00    +0.027 C 
ATOM     27  C   UNL     1      -1.351 -13.560  -4.438  0.00  0.00    +0.007 C 
ATOM     28  C   UNL     1       0.045 -14.163  -4.297  0.00  0.00    +0.035 C 
ATOM     29  C   UNL     1       0.931 -13.260  -3.478  0.00  0.00    -0.042 A 
ATOM     30  C   UNL     1       0.430 -12.268  -2.666  0.00  0.00    -0.024 A 
ATOM     31  C   UNL     1       1.302 -11.476  -1.932  0.00  0.00    +0.006 A 
ATOM     32  C   UNL     1       2.665 -11.673  -2.012  0.00  0.00    +0.000 A 
ATOM     33  C   UNL     1       3.168 -12.667  -2.830  0.00  0.00    +0.000 A 
ATOM     34  C   UNL     1       2.304 -13.455  -3.559  0.00  0.00    +0.004 A 
ENDBRANCH  23  25
ENDBRANCH   6  21
TORSDOF 7
