REMARK  Name = ZINC63376033
REMARK  10 active torsions:
REMARK  status: ('A' for Active; 'I' for Inactive)
REMARK    1  A    between atoms: C_1  and  O_2
REMARK    2  A    between atoms: O_2  and  C_3
REMARK    3  A    between atoms: C_10  and  C_18
REMARK    4  A    between atoms: C_20  and  O_39
REMARK    5  A    between atoms: N_22  and  C_28
REMARK    6  A    between atoms: C_28  and  C_29
REMARK    7  A    between atoms: C_31  and  O_37
REMARK    8  A    between atoms: C_33  and  O_35
REMARK    9  A    between atoms: O_35  and  C_36
REMARK   10  A    between atoms: O_37  and  C_38
REMARK                            x       y       z     vdW  Elec       q    Type
REMARK                         _______ _______ _______ _____ _____    ______ ____
ROOT
ATOM      1  C   UNL     1       0.308  -3.959   5.385  0.00  0.00    +0.141 C 
ATOM      2  C   UNL     1      -0.328  -5.061   6.235  0.00  0.00    +0.220 C 
ATOM      3  N   UNL     1      -0.709  -6.183   5.375  0.00  0.00    -0.255 N 
ATOM      4  C   UNL     1      -1.170  -5.974   4.131  0.00  0.00    +0.311 C 
ATOM      5  O   UNL     1      -1.575  -6.919   3.482  0.00  0.00    -0.252 OA
ATOM      6  N   UNL     1      -1.196  -4.746   3.587  0.00  0.00    -0.240 N 
ATOM      7  C   UNL     1      -0.544  -3.718   4.165  0.00  0.00    +0.229 C 
ATOM      8  O   UNL     1      -0.644  -2.600   3.705  0.00  0.00    -0.275 OA
ATOM      9  H   UNL     1      -1.690  -4.598   2.766  0.00  0.00    +0.159 HD
ENDROOT
BRANCH   1  16
ATOM     10  C   UNL     1       2.364  -0.535   9.145  0.00  0.00    +0.121 A 
ATOM     11  C   UNL     1       2.106  -1.647   9.965  0.00  0.00    +0.047 A 
ATOM     12  C   UNL     1       2.081  -2.910   9.487  0.00  0.00    +0.029 A 
ATOM     13  C   UNL     1       2.329  -3.157   8.065  0.00  0.00    +0.043 A 
ATOM     14  N   UNL     1       2.339  -4.263   7.356  0.00  0.00    -0.376 N 
ATOM     15  C   UNL     1       2.736  -3.933   5.991  0.00  0.00    +0.124 C 
ATOM     16  C   UNL     1       1.710  -4.392   4.952  0.00  0.00    +0.096 C 
ATOM     17  N   UNL     1       2.046  -3.768   3.662  0.00  0.00    -0.310 NA
ATOM     18  C   UNL     1       1.874  -2.312   3.662  0.00  0.00    +0.085 C 
ATOM     19  C   UNL     1       2.877  -1.661   4.633  0.00  0.00    +0.048 C 
ATOM     20  C   UNL     1       2.777  -2.413   5.941  0.00  0.00    -0.036 C 
ATOM     21  C   UNL     1       2.593  -1.983   7.194  0.00  0.00    +0.003 A 
ATOM     22  C   UNL     1       2.596  -0.653   7.817  0.00  0.00    +0.055 A 
ATOM     23  H   UNL     1       2.978  -4.021   3.370  0.00  0.00    +0.122 HD
ATOM     24  H   UNL     1       2.120  -5.149   7.685  0.00  0.00    +0.160 HD
BRANCH  10  26
ATOM     25  C   UNL     1       2.126   0.783  11.110  0.00  0.00    +0.277 C 
ATOM     26  O   UNL     1       2.376   0.704   9.705  0.00  0.00    -0.495 OA
ENDBRANCH  10  26
ENDBRANCH   1  16
BRANCH   2  27
ATOM     27  O   UNL     1       0.612  -5.509   7.214  0.00  0.00    -0.373 OA
ATOM     28  H   UNL     1       0.246  -6.138   7.851  0.00  0.00    +0.212 HD
ENDBRANCH   2  27
BRANCH   3  29
ATOM     29  C   UNL     1      -0.584  -7.553   5.878  0.00  0.00    +0.147 C 
BRANCH  29  30
ATOM     30  C   UNL     1      -1.868  -7.959   6.555  0.00  0.00    -0.023 A 
ATOM     31  C   UNL     1      -2.043  -7.719   7.904  0.00  0.00    +0.051 A 
ATOM     32  C   UNL     1      -3.224  -8.091   8.530  0.00  0.00    +0.124 A 
ATOM     33  C   UNL     1      -4.230  -8.704   7.799  0.00  0.00    +0.091 A 
ATOM     34  C   UNL     1      -4.053  -8.944   6.445  0.00  0.00    +0.124 A 
ATOM     35  C   UNL     1      -2.872  -8.565   5.823  0.00  0.00    +0.051 A 
BRANCH  34  36
ATOM     36  O   UNL     1      -5.037  -9.545   5.726  0.00  0.00    -0.495 OA
ATOM     37  C   UNL     1      -6.228  -9.904   6.430  0.00  0.00    +0.277 C 
ENDBRANCH  34  36
BRANCH  32  38
ATOM     38  O   UNL     1      -3.395  -7.856   9.857  0.00  0.00    -0.495 OA
ATOM     39  C   UNL     1      -4.636  -8.265  10.434  0.00  0.00    +0.277 C 
ENDBRANCH  32  38
ENDBRANCH  29  30
ENDBRANCH   3  29
TORSDOF 7
