REMARK  Name = ZINC40403614
REMARK  11 active torsions:
REMARK  status: ('A' for Active; 'I' for Inactive)
REMARK    1  A    between atoms: C_1  and  O_2
REMARK    2  A    between atoms: O_2  and  C_3
REMARK    3  A    between atoms: C_8  and  O_9
REMARK    4  A    between atoms: O_9  and  C_10
REMARK    5  A    between atoms: C_10  and  C_11
REMARK    6  A    between atoms: C_21  and  C_23
REMARK    7  A    between atoms: C_23  and  N_24
REMARK    8  A    between atoms: N_24  and  C_25
REMARK    9  A    between atoms: C_25  and  C_26
REMARK   10  A    between atoms: C_26  and  N_27
REMARK   11  A    between atoms: C_32  and  C_34
REMARK                            x       y       z     vdW  Elec       q    Type
REMARK                         _______ _______ _______ _____ _____    ______ ____
ROOT
ATOM      1  C   UNL     1      -0.499  -4.623   0.418  0.00  0.00    +0.144 C 
ATOM      2  C   UNL     1       0.253  -4.166   1.667  0.00  0.00    -0.014 A 
ATOM      3  C   UNL     1       1.595  -4.462   1.901  0.00  0.00    +0.013 A 
ATOM      4  C   UNL     1       2.197  -4.021   3.029  0.00  0.00    +0.046 A 
ATOM      5  S   UNL     1       0.868  -3.143   3.838  0.00  0.00    -0.101 S 
ATOM      6  C   UNL     1      -0.386  -3.432   2.618  0.00  0.00    -0.004 A 
ATOM      7  C   UNL     1      -1.812  -2.983   2.627  0.00  0.00    +0.061 C 
ATOM      8  C   UNL     1      -2.381  -3.122   1.207  0.00  0.00    +0.114 C 
ATOM      9  N   UNL     1      -1.933  -4.409   0.652  0.00  0.00    -0.289 N 
ATOM     10  C   UNL     1      -2.825  -5.377   0.363  0.00  0.00    +0.234 C 
ATOM     11  O   UNL     1      -2.445  -6.435  -0.093  0.00  0.00    -0.274 OA
ENDROOT
BRANCH   1  12
ATOM     12  C   UNL     1      -0.043  -3.802  -0.790  0.00  0.00    +0.256 C 
BRANCH  12  13
ATOM     13  O   UNL     1      -0.188  -2.410  -0.503  0.00  0.00    -0.486 OA
BRANCH  13  19
ATOM     14  C   UNL     1       0.061  -0.166  -1.268  0.00  0.00    +0.161 A 
ATOM     15  C   UNL     1       0.439   0.720  -2.264  0.00  0.00    +0.049 A 
ATOM     16  C   UNL     1       0.923   0.241  -3.468  0.00  0.00    +0.004 A 
ATOM     17  C   UNL     1       1.031  -1.120  -3.680  0.00  0.00    +0.004 A 
ATOM     18  C   UNL     1       0.656  -2.010  -2.690  0.00  0.00    +0.049 A 
ATOM     19  C   UNL     1       0.176  -1.537  -1.480  0.00  0.00    +0.162 A 
BRANCH  14  21
ATOM     20  C   UNL     1      -0.505   1.721   0.063  0.00  0.00    +0.277 C 
ATOM     21  O   UNL     1      -0.415   0.303  -0.084  0.00  0.00    -0.491 OA
ENDBRANCH  14  21
ENDBRANCH  13  19
ENDBRANCH  12  13
ENDBRANCH   1  12
BRANCH  10  22
ATOM     22  C   UNL     1      -4.294  -5.146   0.608  0.00  0.00    +0.204 C 
BRANCH  22  23
ATOM     23  N   UNL     1      -5.048  -6.340   0.216  0.00  0.00    -0.288 N 
ATOM     24  C   UNL     1      -5.416  -6.513  -1.069  0.00  0.00    +0.282 C 
ATOM     25  O   UNL     1      -6.122  -7.454  -1.378  0.00  0.00    -0.267 OA
BRANCH  24  26
ATOM     26  C   UNL     1      -4.964  -5.567  -2.095  0.00  0.00    +0.189 A 
ATOM     27  C   UNL     1      -5.348  -5.561  -3.405  0.00  0.00    +0.054 A 
ATOM     28  C   UNL     1      -4.675  -4.492  -4.017  0.00  0.00    +0.042 A 
ATOM     29  C   UNL     1      -3.920  -3.900  -3.066  0.00  0.00    +0.196 A 
ATOM     30  O   UNL     1      -4.100  -4.548  -1.908  0.00  0.00    -0.458 OA
ENDBRANCH  24  26
BRANCH  23  31
ATOM     31  C   UNL     1      -5.402  -7.345   1.222  0.00  0.00    +0.090 C 
BRANCH  31  32
ATOM     32  C   UNL     1      -6.762  -6.999   1.831  0.00  0.00    -0.060 C 
BRANCH  32  33
ATOM     33  N   UNL     1      -7.118  -8.006   2.839  0.00  0.00    +0.381 N 
ATOM     34  C   UNL     1      -6.216  -7.896   4.014  0.00  0.00    -0.079 C 
ATOM     35  C   UNL     1      -7.027  -8.570   5.149  0.00  0.00    -0.020 C 
ATOM     36  C   UNL     1      -8.477  -8.127   4.848  0.00  0.00    -0.020 C 
ATOM     37  C   UNL     1      -8.482  -7.755   3.353  0.00  0.00    -0.079 C 
ATOM     38  H   UNL     1      -7.061  -8.932   2.442  0.00  0.00    -0.082 HD
ENDBRANCH  32  33
ENDBRANCH  31  32
ENDBRANCH  23  31
ENDBRANCH  22  23
ENDBRANCH  10  22
TORSDOF 10
