REMARK  Name = ZINC63071324
REMARK  9 active torsions:
REMARK  status: ('A' for Active; 'I' for Inactive)
REMARK    1  A    between atoms: C_1  and  C_2
REMARK    2  A    between atoms: C_5  and  O_8
REMARK    3  A    between atoms: O_8  and  C_9
REMARK    4  A    between atoms: C_9  and  C_10
REMARK    5  A    between atoms: C_10  and  C_11
REMARK    6  A    between atoms: C_10  and  N_12
REMARK    7  A    between atoms: N_15  and  C_16
REMARK    8  A    between atoms: C_16  and  C_17
REMARK    9  A    between atoms: N_26  and  C_29
REMARK                            x       y       z     vdW  Elec       q    Type
REMARK                         _______ _______ _______ _____ _____    ______ ____
ROOT
ATOM      1  N   UNL     1       1.326  -6.750   0.454  0.00  0.00    -0.294 N 
ATOM      2  C   UNL     1       1.818  -7.997   0.589  0.00  0.00    +0.300 C 
ATOM      3  O   UNL     1       1.220  -8.817   1.259  0.00  0.00    -0.253 OA
ATOM      4  N   UNL     1       2.972  -8.337  -0.020  0.00  0.00    -0.295 N 
ATOM      5  H   UNL     1       1.803  -6.096  -0.081  0.00  0.00    +0.151 HD
ATOM      6  H   UNL     1       3.448  -7.683  -0.555  0.00  0.00    +0.151 HD
ENDROOT
BRANCH   1   7
ATOM      7  C   UNL     1       0.072  -6.381   1.115  0.00  0.00    +0.109 C 
ATOM      8  C   UNL     1      -1.109  -6.784   0.230  0.00  0.00    +0.031 C 
BRANCH   7   9
ATOM      9  C   UNL     1       0.043  -4.869   1.347  0.00  0.00    +0.251 C 
BRANCH   9  10
ATOM     10  O   UNL     1       0.019  -4.194   0.088  0.00  0.00    -0.490 OA
BRANCH  10  15
ATOM     11  C   UNL     1      -0.097   1.436   0.205  0.00  0.00    +0.044 C 
ATOM     12  C   UNL     1      -0.066  -0.071   0.174  0.00  0.00    -0.050 A 
ATOM     13  C   UNL     1      -0.061  -0.736  -1.038  0.00  0.00    +0.007 A 
ATOM     14  C   UNL     1      -0.033  -2.116  -1.070  0.00  0.00    +0.046 A 
ATOM     15  C   UNL     1      -0.008  -2.836   0.116  0.00  0.00    +0.121 A 
ATOM     16  C   UNL     1      -0.012  -2.166   1.331  0.00  0.00    +0.046 A 
ATOM     17  C   UNL     1      -0.035  -0.785   1.357  0.00  0.00    +0.007 A 
ENDBRANCH  10  15
ENDBRANCH   9  10
ENDBRANCH   7   9
ENDBRANCH   1   7
BRANCH   4  18
ATOM     18  C   UNL     1       3.506  -9.693   0.126  0.00  0.00    +0.141 C 
BRANCH  18  19
ATOM     19  C   UNL     1       4.794  -9.811  -0.646  0.00  0.00    -0.026 A 
ATOM     20  C   UNL     1       4.790 -10.206  -1.978  0.00  0.00    +0.023 A 
ATOM     21  C   UNL     1       5.987 -10.305  -2.657  0.00  0.00    +0.084 A 
ATOM     22  N   UNL     1       7.130 -10.029  -2.058  0.00  0.00    -0.350 N 
ATOM     23  C   UNL     1       7.176  -9.649  -0.791  0.00  0.00    +0.099 A 
ATOM     24  C   UNL     1       6.007  -9.524  -0.047  0.00  0.00    +0.047 A 
ATOM     25  N   UNL     1       8.402  -9.369  -0.199  0.00  0.00    -0.320 N 
ATOM     26  C   UNL     1       8.477  -8.827   1.166  0.00  0.00    +0.088 C 
ATOM     27  C   UNL     1       9.466  -9.676   1.972  0.00  0.00    -0.060 C 
ATOM     28  N   UNL     1      10.754  -9.727   1.269  0.00  0.00    +0.380 N 
ATOM     29  C   UNL     1      10.595 -10.419  -0.016  0.00  0.00    -0.060 C 
ATOM     30  C   UNL     1       9.662  -9.612  -0.919  0.00  0.00    +0.088 C 
ATOM     31  C   UNL     1      11.732 -10.448   2.094  0.00  0.00    -0.096 C 
ATOM     32  H   UNL     1       7.957 -10.106  -2.559  0.00  0.00    +0.166 HD
ATOM     33  H   UNL     1      11.083  -8.787   1.105  0.00  0.00    -0.082 HD
ENDBRANCH  18  19
ENDBRANCH   4  18
TORSDOF 6
