REMARK  Name = ZINC20617596
REMARK  8 active torsions:
REMARK  status: ('A' for Active; 'I' for Inactive)
REMARK    1  A    between atoms: C_1  and  C_2
REMARK    2  A    between atoms: C_6  and  C_18
REMARK    3  A    between atoms: N_8  and  C_9
REMARK    4  A    between atoms: N_20  and  C_21
REMARK    5  A    between atoms: C_28  and  C_31
REMARK    6  A    between atoms: C_31  and  O_32
REMARK    7  A    between atoms: O_32  and  C_33
REMARK    8  A    between atoms: C_33  and  C_35
REMARK                            x       y       z     vdW  Elec       q    Type
REMARK                         _______ _______ _______ _____ _____    ______ ____
ROOT
ATOM      1  C   UNL     1       8.528   7.069  -1.092  0.00  0.00    +0.069 C 
ATOM      2  C   UNL     1       7.288   7.874  -0.802  0.00  0.00    +0.081 A 
ATOM      3  C   UNL     1       6.059   7.237  -0.701  0.00  0.00    +0.159 A 
ATOM      4  C   UNL     1       4.915   8.011  -0.427  0.00  0.00    +0.028 A 
ATOM      5  C   UNL     1       3.610   7.358  -0.312  0.00  0.00    +0.030 A 
ATOM      6  C   UNL     1       3.597   5.984  -0.214  0.00  0.00    +0.098 A 
ATOM      7  C   UNL     1       4.902   5.293  -0.226  0.00  0.00    +0.212 A 
ATOM      8  N   UNL     1       5.054   4.126   0.360  0.00  0.00    -0.325 N 
ATOM      9  O   UNL     1       5.941   5.899  -0.863  0.00  0.00    -0.437 OA
ATOM     10  C   UNL     1       5.064   9.395  -0.270  0.00  0.00    +0.018 A 
ATOM     11  C   UNL     1       6.326   9.938  -0.389  0.00  0.00    +0.118 A 
ATOM     12  N   UNL     1       7.376   9.180  -0.645  0.00  0.00    -0.256 NA
ATOM     13  H   UNL     1       4.226   3.689   0.937  0.00  0.00    +0.169 HD
ENDROOT
BRANCH   8  14
ATOM     14  C   UNL     1       6.241   3.455   0.251  0.00  0.00    +0.043 A 
ATOM     15  C   UNL     1       6.484   2.635  -0.854  0.00  0.00    +0.028 A 
ATOM     16  C   UNL     1       7.685   1.965  -0.961  0.00  0.00    +0.042 A 
ATOM     17  C   UNL     1       8.646   2.096   0.029  0.00  0.00    +0.142 A 
ATOM     18  C   UNL     1       8.408   2.903   1.131  0.00  0.00    +0.078 A 
ATOM     19  C   UNL     1       7.212   3.583   1.246  0.00  0.00    +0.048 A 
ATOM     20 CL   UNL     1       9.617   3.061   2.367  0.00  0.00    -0.081 Cl
ATOM     21  F   UNL     1       9.818   1.433  -0.079  0.00  0.00    -0.204 F 
ENDBRANCH   8  14
BRANCH   6  22
ATOM     22  C   UNL     1       2.333   5.235  -0.097  0.00  0.00    +0.253 C 
ATOM     23  O   UNL     1       1.272   5.829  -0.085  0.00  0.00    -0.270 OA
ATOM     24  N   UNL     1       2.353   3.890  -0.003  0.00  0.00    -0.280 N 
ATOM     25  H   UNL     1       3.313   3.358   0.059  0.00  0.00    +0.155 HD
BRANCH  24  26
ATOM     26  C   UNL     1       1.153   3.172   0.015  0.00  0.00    +0.052 A 
ATOM     27  C   UNL     1       0.031   3.708   0.634  0.00  0.00    +0.025 A 
ATOM     28  C   UNL     1      -1.153   2.997   0.650  0.00  0.00    +0.002 A 
ATOM     29  C   UNL     1      -1.224   1.754   0.046  0.00  0.00    +0.002 A 
ATOM     30  C   UNL     1      -0.108   1.215  -0.567  0.00  0.00    +0.022 A 
ATOM     31  C   UNL     1       1.080   1.922  -0.587  0.00  0.00    +0.062 A 
ATOM     32 CL   UNL     1       2.479   1.247  -1.362  0.00  0.00    -0.082 Cl
ENDBRANCH  24  26
ENDBRANCH   6  22
BRANCH  10  33
ATOM     33  C   UNL     1       3.872  10.270   0.021  0.00  0.00    +0.269 C 
BRANCH  33  34
ATOM     34  O   UNL     1       4.303  11.652   0.136  0.00  0.00    -0.460 OA
BRANCH  34  35
ATOM     35  C   UNL     1       3.355  12.566   0.396  0.00  0.00    +0.304 C 
ATOM     36  O   UNL     1       2.204  12.223   0.524  0.00  0.00    -0.251 OA
ATOM     37  C   UNL     1       3.727  14.020   0.528  0.00  0.00    +0.136 C 
ENDBRANCH  34  35
ENDBRANCH  33  34
ENDBRANCH  10  33
TORSDOF 6
