REMARK  Name = ZINC20696576
REMARK  10 active torsions:
REMARK  status: ('A' for Active; 'I' for Inactive)
REMARK    1  A    between atoms: C_1  and  C_2
REMARK    2  A    between atoms: C_2  and  N_3
REMARK    3  A    between atoms: N_3  and  C_4
REMARK    4  A    between atoms: N_3  and  C_6
REMARK    5  A    between atoms: C_4  and  C_5
REMARK    6  A    between atoms: C_6  and  C_7
REMARK    7  A    between atoms: C_7  and  N_8
REMARK    8  A    between atoms: C_9  and  C_11
REMARK    9  A    between atoms: C_24  and  C_27
REMARK   10  A    between atoms: C_32  and  O_33
REMARK                            x       y       z     vdW  Elec       q    Type
REMARK                         _______ _______ _______ _____ _____    ______ ____
ROOT
ATOM      1  C   UNL     1       2.416  -0.060  -0.315  0.00  0.00    +0.037 A 
ATOM      2  C   UNL     1       1.018  -0.072  -0.321  0.00  0.00    +0.015 A 
ATOM      3  C   UNL     1       0.350  -1.272  -0.250  0.00  0.00    +0.024 A 
ATOM      4  C   UNL     1       1.061  -2.467  -0.163  0.00  0.00    +0.031 A 
ATOM      5  C   UNL     1       2.450  -2.466  -0.153  0.00  0.00    -0.019 A 
ATOM      6  C   UNL     1       3.123  -1.260  -0.228  0.00  0.00    +0.019 A 
ATOM      7  C   UNL     1       3.251  -3.727  -0.066  0.00  0.00    +0.049 C 
ATOM      8  C   UNL     1       3.846  -3.907   1.311  0.00  0.00    -0.023 C 
ATOM      9  C   UNL     1       3.845  -5.175   1.643  0.00  0.00    -0.030 C 
ATOM     10  C   UNL     1       3.252  -6.016   0.528  0.00  0.00    +0.033 C 
ATOM     11  C   UNL     1       2.400  -4.994  -0.280  0.00  0.00    +0.029 C 
ATOM     12  C   UNL     1       1.058  -4.848   0.444  0.00  0.00    +0.108 C 
ATOM     13  N   UNL     1       0.361  -3.669  -0.082  0.00  0.00    -0.336 N 
ATOM     14  H   UNL     1      -0.689  -3.747  -0.400  0.00  0.00    +0.147 HD
ENDROOT
BRANCH  12  15
ATOM     15  C   UNL     1       1.297  -4.675   1.922  0.00  0.00    +0.015 A 
ATOM     16  C   UNL     1       1.563  -3.421   2.437  0.00  0.00    +0.024 A 
ATOM     17  C   UNL     1       1.783  -3.262   3.793  0.00  0.00    +0.018 A 
ATOM     18  C   UNL     1       1.738  -4.359   4.637  0.00  0.00    +0.019 A 
ATOM     19  C   UNL     1       1.472  -5.614   4.125  0.00  0.00    +0.047 A 
ATOM     20  C   UNL     1       1.245  -5.774   2.766  0.00  0.00    +0.122 A 
ATOM     21 BR   UNL     1       2.148  -1.545   4.496  0.00  0.00    -0.050 Br
BRANCH  20  22
ATOM     22  O   UNL     1       0.978  -7.008   2.262  0.00  0.00    -0.506 OA
ATOM     23  H   UNL     1       0.937  -7.879   2.932  0.00  0.00    +0.292 HD
ENDBRANCH  20  22
ENDBRANCH  12  15
BRANCH   1  25
ATOM     24  N   UNL     1       2.460   2.379  -0.485  0.00  0.00    -0.313 N 
ATOM     25  C   UNL     1       3.143   1.221  -0.395  0.00  0.00    +0.244 C 
ATOM     26  O   UNL     1       4.359   1.232  -0.386  0.00  0.00    -0.270 OA
ATOM     27  H   UNL     1       1.360   2.369  -0.498  0.00  0.00    +0.149 HD
BRANCH  24  28
ATOM     28  C   UNL     1       3.182   3.651  -0.564  0.00  0.00    +0.086 C 
BRANCH  28  29
ATOM     29  C   UNL     1       2.179   4.802  -0.657  0.00  0.00    -0.060 C 
BRANCH  29  30
ATOM     30  N   UNL     1       2.902   6.078  -0.737  0.00  0.00    +0.380 N 
ATOM     31  H   UNL     1       3.620   6.112   0.096  0.00  0.00    -0.082 HD
BRANCH  30  33
ATOM     32  C   UNL     1       2.693   6.202  -3.174  0.00  0.00    -0.017 C 
ATOM     33  C   UNL     1       3.662   6.175  -1.991  0.00  0.00    -0.082 C 
ENDBRANCH  30  33
BRANCH  30  34
ATOM     34  C   UNL     1       1.984   7.215  -0.589  0.00  0.00    -0.082 C 
ATOM     35  C   UNL     1       2.787   8.485  -0.303  0.00  0.00    -0.017 C 
ENDBRANCH  30  34
ENDBRANCH  29  30
ENDBRANCH  28  29
ENDBRANCH  24  28
ENDBRANCH   1  25
TORSDOF 8
