REMARK  Name = ZINC59169582
REMARK  13 active torsions:
REMARK  status: ('A' for Active; 'I' for Inactive)
REMARK    1  A    between atoms: C_1  and  C_2
REMARK    2  A    between atoms: C_2  and  O_3
REMARK    3  A    between atoms: O_3  and  C_4
REMARK    4  A    between atoms: C_9  and  C_10
REMARK    5  A    between atoms: C_10  and  N_11
REMARK    6  A    between atoms: N_11  and  C_12
REMARK    7  A    between atoms: N_11  and  C_22
REMARK    8  A    between atoms: C_14  and  C_20
REMARK    9  A    between atoms: C_14  and  C_21
REMARK   10  A    between atoms: C_16  and  C_18
REMARK   11  A    between atoms: C_16  and  C_19
REMARK   12  A    between atoms: C_22  and  N_24
REMARK   13  A    between atoms: N_24  and  C_25
REMARK                            x       y       z     vdW  Elec       q    Type
REMARK                         _______ _______ _______ _____ _____    ______ ____
ROOT
ATOM      1  N   UNL     1       3.594  -0.322  -3.325  0.00  0.00    -0.305 N 
ENDROOT
BRANCH   1   2
ATOM      2  C   UNL     1       4.677  -1.298  -3.496  0.00  0.00    +0.073 C 
ATOM      3  C   UNL     1       5.994  -0.552  -3.719  0.00  0.00    +0.009 C 
ATOM      4  C   UNL     1       7.135  -1.556  -3.887  0.00  0.00    -0.072 C 
ATOM      5  N   UNL     1       7.207  -2.496  -2.779  0.00  0.00    +0.386 N 
ATOM      6  C   UNL     1       5.968  -3.118  -2.340  0.00  0.00    -0.072 C 
ATOM      7  C   UNL     1       4.808  -2.135  -2.224  0.00  0.00    +0.009 C 
ATOM      8  C   UNL     1       5.571  -4.288  -3.244  0.00  0.00    -0.010 C 
ATOM      9  C   UNL     1       6.216  -3.703  -0.929  0.00  0.00    -0.010 C 
ATOM     10  C   UNL     1       8.455  -0.750  -3.902  0.00  0.00    -0.010 C 
ATOM     11  C   UNL     1       7.021  -2.264  -5.237  0.00  0.00    -0.010 C 
ATOM     12  H   UNL     1       7.869  -3.235  -3.027  0.00  0.00    -0.084 HD
ATOM     13  H   UNL     1       7.627  -2.017  -1.978  0.00  0.00    -0.084 HD
ENDBRANCH   1   2
BRANCH   1  14
ATOM     14  C   UNL     1       3.672   0.608  -2.352  0.00  0.00    +0.138 C 
ATOM     15  S   UNL     1       2.496   1.848  -2.257  0.00  0.00    -0.018 S 
BRANCH  14  16
ATOM     16  N   UNL     1       4.676   0.560  -1.454  0.00  0.00    -0.296 N 
ATOM     17  H   UNL     1       5.385  -0.094  -1.553  0.00  0.00    +0.154 HD
BRANCH  16  18
ATOM     18  C   UNL     1       4.696   1.456  -0.379  0.00  0.00    +0.053 A 
ATOM     19  C   UNL     1       3.504   1.910   0.171  0.00  0.00    +0.025 A 
ATOM     20  C   UNL     1       3.526   2.794   1.232  0.00  0.00    +0.003 A 
ATOM     21  C   UNL     1       4.733   3.227   1.749  0.00  0.00    +0.021 A 
ATOM     22  C   UNL     1       5.923   2.777   1.205  0.00  0.00    +0.061 A 
ATOM     23  C   UNL     1       5.908   1.887   0.146  0.00  0.00    +0.080 A 
ATOM     24 CL   UNL     1       7.401   1.317  -0.532  0.00  0.00    -0.080 Cl
ATOM     25 CL   UNL     1       7.436   3.324   1.857  0.00  0.00    -0.082 Cl
ENDBRANCH  16  18
ENDBRANCH  14  16
ENDBRANCH   1  14
BRANCH   1  26
ATOM     26  C   UNL     1       2.427  -0.359  -4.210  0.00  0.00    +0.145 C 
BRANCH  26  32
ATOM     27  C   UNL     1       0.531  -1.175  -2.787  0.00  0.00    +0.125 A 
ATOM     28  C   UNL     1      -0.337  -2.175  -2.375  0.00  0.00    +0.046 A 
ATOM     29  C   UNL     1      -0.247  -3.438  -2.928  0.00  0.00    +0.004 A 
ATOM     30  C   UNL     1       0.709  -3.705  -3.891  0.00  0.00    +0.001 A 
ATOM     31  C   UNL     1       1.576  -2.710  -4.302  0.00  0.00    +0.009 A 
ATOM     32  C   UNL     1       1.486  -1.444  -3.757  0.00  0.00    +0.011 A 
BRANCH  27  33
ATOM     33  O   UNL     1       0.444   0.068  -2.245  0.00  0.00    -0.492 OA
BRANCH  33  35
ATOM     34  C   UNL     1      -0.508   1.722  -0.762  0.00  0.00    +0.048 C 
ATOM     35  C   UNL     1      -0.562   0.274  -1.251  0.00  0.00    +0.225 C 
ENDBRANCH  33  35
ENDBRANCH  27  33
ENDBRANCH  26  32
ENDBRANCH   1  26
TORSDOF 8
