REMARK  Name = ZINC36335697
REMARK  8 active torsions:
REMARK  status: ('A' for Active; 'I' for Inactive)
REMARK    1  A    between atoms: C_1  and  N_2
REMARK    2  A    between atoms: N_2  and  C_3
REMARK    3  A    between atoms: N_2  and  C_4
REMARK    4  A    between atoms: C_7  and  N_10
REMARK    5  A    between atoms: N_10  and  S_11
REMARK    6  A    between atoms: S_11  and  C_14
REMARK    7  A    between atoms: C_17  and  C_19
REMARK    8  A    between atoms: C_19  and  N_20
REMARK                            x       y       z     vdW  Elec       q    Type
REMARK                         _______ _______ _______ _____ _____    ______ ____
ROOT
ATOM      1  S   UNL     1      -5.958  -2.488   1.138  0.00  0.00    +0.079 S 
ATOM      2  O   UNL     1      -6.216  -1.096   1.013  0.00  0.00    -0.149 OA
ATOM      3  O   UNL     1      -6.977  -3.468   0.987  0.00  0.00    -0.149 OA
ENDROOT
BRANCH   1   4
ATOM      4  C   UNL     1      -5.261  -2.729   2.738  0.00  0.00    +0.146 A 
ATOM      5  C   UNL     1      -4.686  -1.821   3.564  0.00  0.00    +0.037 A 
ATOM      6  C   UNL     1      -4.202  -2.242   4.789  0.00  0.00    +0.011 A 
ATOM      7  C   UNL     1      -4.316  -3.550   5.127  0.00  0.00    -0.026 A 
ATOM      8  S   UNL     1      -5.134  -4.231   3.695  0.00  0.00    -0.075 S 
BRANCH   7   9
ATOM      9  C   UNL     1      -3.872  -4.246   6.388  0.00  0.00    -0.043 C 
BRANCH   9  10
ATOM     10  N   UNL     1      -4.961  -4.216   7.373  0.00  0.00    +0.381 N 
ATOM     11  H   UNL     1      -4.664  -4.682   8.217  0.00  0.00    -0.090 HD
ATOM     12  H   UNL     1      -5.198  -3.258   7.584  0.00  0.00    -0.090 HD
ATOM     13  H   UNL     1      -5.769  -4.687   6.996  0.00  0.00    -0.090 HD
ENDBRANCH   9  10
ENDBRANCH   7   9
ENDBRANCH   1   4
BRANCH   1  14
ATOM     14  N   UNL     1      -4.782  -2.853   0.031  0.00  0.00    -0.216 N 
ATOM     15  H   UNL     1      -4.917  -3.579  -0.598  0.00  0.00    +0.174 HD
BRANCH  14  19
ATOM     16  C   UNL     1      -1.243  -0.650  -0.055  0.00  0.00    +0.029 A 
ATOM     17  C   UNL     1      -1.200  -2.037  -0.110  0.00  0.00    +0.025 A 
ATOM     18  C   UNL     1      -2.372  -2.767  -0.081  0.00  0.00    +0.026 A 
ATOM     19  C   UNL     1      -3.594  -2.114   0.003  0.00  0.00    +0.048 A 
ATOM     20  C   UNL     1      -3.638  -0.727   0.058  0.00  0.00    +0.026 A 
ATOM     21  C   UNL     1      -2.466   0.003   0.034  0.00  0.00    +0.025 A 
BRANCH  16  23
ATOM     22  C   UNL     1      -0.101   1.552  -0.021  0.00  0.00    +0.129 C 
ATOM     23  N   UNL     1      -0.055   0.089  -0.085  0.00  0.00    -0.336 N 
ATOM     24  C   UNL     1       1.234  -0.600  -0.179  0.00  0.00    +0.129 C 
ENDBRANCH  16  23
ENDBRANCH  14  19
ENDBRANCH   1  14
TORSDOF 6
