REMARK  Name = ZINC00361702
REMARK  5 active torsions:
REMARK  status: ('A' for Active; 'I' for Inactive)
REMARK    1  A    between atoms: C_3  and  O_20
REMARK    2  A    between atoms: C_4  and  O_19
REMARK    3  A    between atoms: C_6  and  C_7
REMARK    4  A    between atoms: N_8  and  N_9
REMARK    5  A    between atoms: C_10  and  C_12
REMARK                            x       y       z     vdW  Elec       q    Type
REMARK                         _______ _______ _______ _____ _____    ______ ____
ROOT
ATOM      1  C   UNL     1       3.337   8.228   0.012  0.00  0.00    +0.138 C 
ATOM      2  N   UNL     1       3.414   6.932   0.005  0.00  0.00    -0.187 NA
ENDROOT
BRANCH   1   8
ATOM      3  C   UNL     1       5.817   8.416  -0.005  0.00  0.00    +0.013 A 
ATOM      4  C   UNL     1       6.968   9.178  -0.019  0.00  0.00    +0.050 A 
ATOM      5  C   UNL     1       6.886  10.562  -0.011  0.00  0.00    +0.158 A 
ATOM      6  C   UNL     1       5.643  11.191   0.004  0.00  0.00    +0.159 A 
ATOM      7  C   UNL     1       4.486  10.435   0.012  0.00  0.00    +0.058 A 
ATOM      8  C   UNL     1       4.567   9.040   0.004  0.00  0.00    -0.002 A 
BRANCH   6   9
ATOM      9  O   UNL     1       5.567  12.549   0.011  0.00  0.00    -0.503 OA
ATOM     10  H   UNL     1       5.554  12.937   0.897  0.00  0.00    +0.292 HD
ENDBRANCH   6   9
BRANCH   5  11
ATOM     11  O   UNL     1       8.023  11.308  -0.018  0.00  0.00    -0.503 OA
ATOM     12  H   UNL     1       8.360  11.519   0.864  0.00  0.00    +0.292 HD
ENDBRANCH   5  11
ENDBRANCH   1   8
BRANCH   2  13
ATOM     13  N   UNL     1       2.245   6.160   0.012  0.00  0.00    -0.203 N 
ATOM     14  C   UNL     1       2.325   4.815   0.005  0.00  0.00    +0.265 C 
ATOM     15  O   UNL     1       3.412   4.271  -0.009  0.00  0.00    -0.268 OA
ATOM     16  H   UNL     1       1.377   6.595   0.023  0.00  0.00    +0.178 HD
BRANCH  14  17
ATOM     17  C   UNL     1       1.092   4.001   0.013  0.00  0.00    +0.057 A 
ATOM     18  C   UNL     1       1.161   2.603   0.005  0.00  0.00    +0.031 A 
ATOM     19  C   UNL     1      -0.024   1.887   0.012  0.00  0.00    +0.037 A 
ATOM     20  C   UNL     1      -1.228   2.570   0.022  0.00  0.00    +0.126 A 
ATOM     21  N   UNL     1      -1.262   3.889   0.034  0.00  0.00    -0.261 NA
ATOM     22  C   UNL     1      -0.162   4.614   0.027  0.00  0.00    +0.123 A 
ATOM     23 BR   UNL     1       0.002  -0.004   0.002  0.00  0.00    -0.049 Br
ENDBRANCH  14  17
ENDBRANCH   2  13
TORSDOF 5
