REMARK  Name = ZINC15958086
REMARK  8 active torsions:
REMARK  status: ('A' for Active; 'I' for Inactive)
REMARK    1  A    between atoms: C_1  and  C_2
REMARK    2  A    between atoms: C_16  and  C_19
REMARK    3  A    between atoms: C_19  and  C_20
REMARK    4  A    between atoms: C_20  and  C_21
REMARK    5  A    between atoms: N_26  and  C_29
REMARK    6  A    between atoms: C_29  and  C_30
REMARK    7  A    between atoms: C_33  and  O_36
REMARK    8  A    between atoms: O_36  and  C_37
REMARK                            x       y       z     vdW  Elec       q    Type
REMARK                         _______ _______ _______ _____ _____    ______ ____
ROOT
ATOM      1  C   UNL     1      -0.018   1.503   0.010  0.00  0.00    +0.046 C 
ATOM      2  C   UNL     1       0.002  -0.004   0.002  0.00  0.00    -0.028 A 
ATOM      3  C   UNL     1       0.006  -0.685  -1.198  0.00  0.00    +0.025 A 
ATOM      4  C   UNL     1       0.024  -2.068  -1.216  0.00  0.00    +0.042 A 
ATOM      5  C   UNL     1       0.040  -2.772  -0.023  0.00  0.00    +0.027 A 
ATOM      6  C   UNL     1       0.036  -2.096   1.176  0.00  0.00    +0.005 A 
ATOM      7  C   UNL     1       0.023  -0.704   1.205  0.00  0.00    +0.042 A 
ATOM      8  N   UNL     1       0.029  -0.249   2.526  0.00  0.00    -0.283 N 
ATOM      9  C   UNL     1       0.052  -1.263   3.413  0.00  0.00    +0.243 C 
ATOM     10  O   UNL     1       0.061  -1.168   4.622  0.00  0.00    -0.273 OA
ATOM     11  C   UNL     1       0.051  -2.537   2.612  0.00  0.00    +0.136 C 
ATOM     12  C   UNL     1      -1.157  -3.421   2.942  0.00  0.00    +0.122 C 
ATOM     13  C   UNL     1      -0.613  -4.468   3.954  0.00  0.00    +0.107 C 
ATOM     14  C   UNL     1       0.876  -4.103   4.137  0.00  0.00    +0.068 C 
ATOM     15  N   UNL     1       1.243  -3.350   2.916  0.00  0.00    -0.295 NA
ATOM     16  C   UNL     1      -1.374  -4.155   5.223  0.00  0.00    +0.227 C 
ATOM     17  O   UNL     1      -1.254  -4.745   6.275  0.00  0.00    -0.275 OA
ATOM     18  N   UNL     1      -2.200  -3.126   5.003  0.00  0.00    -0.237 N 
ATOM     19  C   UNL     1      -2.166  -2.631   3.745  0.00  0.00    +0.229 C 
ATOM     20  O   UNL     1      -2.829  -1.708   3.322  0.00  0.00    -0.275 OA
ATOM     21 CL   UNL     1       0.028  -2.919  -2.729  0.00  0.00    -0.084 Cl
ATOM     22  H   UNL     1       0.018   0.688   2.776  0.00  0.00    +0.155 HD
ATOM     23  H   UNL     1       1.450  -3.985   2.160  0.00  0.00    +0.123 HD
ENDROOT
BRANCH  14  24
ATOM     24  C   UNL     1       1.722  -5.370   4.277  0.00  0.00    +0.028 C 
BRANCH  24  25
ATOM     25  C   UNL     1       3.171  -4.986   4.581  0.00  0.00    +0.097 C 
BRANCH  25  26
ATOM     26  C   UNL     1       4.004  -6.234   4.719  0.00  0.00    +0.211 C 
ATOM     27  O   UNL     1       3.489  -7.324   4.587  0.00  0.00    -0.276 OA
ATOM     28  N   UNL     1       5.321  -6.139   4.988  0.00  0.00    -0.329 N 
ATOM     29  H   UNL     1       5.733  -5.267   5.094  0.00  0.00    +0.145 HD
ATOM     30  H   UNL     1       5.857  -6.942   5.077  0.00  0.00    +0.145 HD
ENDBRANCH  25  26
ENDBRANCH  24  25
ENDBRANCH  14  24
BRANCH  18  31
ATOM     31  C   UNL     1      -3.079  -2.579   6.041  0.00  0.00    +0.151 C 
BRANCH  31  32
ATOM     32  C   UNL     1      -2.356  -1.487   6.786  0.00  0.00    -0.029 A 
ATOM     33  C   UNL     1      -1.603  -1.796   7.904  0.00  0.00    +0.009 A 
ATOM     34  C   UNL     1      -0.940  -0.796   8.590  0.00  0.00    +0.046 A 
ATOM     35  C   UNL     1      -1.031   0.518   8.156  0.00  0.00    +0.120 A 
ATOM     36  C   UNL     1      -1.787   0.826   7.034  0.00  0.00    +0.046 A 
ATOM     37  C   UNL     1      -2.443  -0.178   6.348  0.00  0.00    +0.009 A 
BRANCH  35  38
ATOM     38  O   UNL     1      -0.380   1.504   8.829  0.00  0.00    -0.495 OA
ATOM     39  C   UNL     1      -0.518   2.834   8.325  0.00  0.00    +0.277 C 
ENDBRANCH  35  38
ENDBRANCH  31  32
ENDBRANCH  18  31
TORSDOF 6
