REMARK  Name = ZINC44761733
REMARK  10 active torsions:
REMARK  status: ('A' for Active; 'I' for Inactive)
REMARK    1  A    between atoms: C_1  and  N_2
REMARK    2  A    between atoms: C_4  and  S_10
REMARK    3  A    between atoms: C_6  and  C_7
REMARK    4  A    between atoms: S_10  and  N_13
REMARK    5  A    between atoms: N_13  and  C_14
REMARK    6  A    between atoms: C_14  and  C_15
REMARK    7  A    between atoms: C_15  and  C_17
REMARK    8  A    between atoms: C_15  and  N_24
REMARK    9  A    between atoms: N_24  and  C_25
REMARK   10  A    between atoms: N_24  and  C_26
REMARK                            x       y       z     vdW  Elec       q    Type
REMARK                         _______ _______ _______ _____ _____    ______ ____
ROOT
ATOM      1  N   UNL     1       1.532  -3.737  -2.197  0.00  0.00    -0.191 NA
ATOM      2  H   UNL     1       1.821  -3.667  -3.121  0.00  0.00    +0.148 HD
ENDROOT
BRANCH   1   3
ATOM      3  S   UNL     1       0.022  -3.218  -1.760  0.00  0.00    +0.060 S 
ATOM      4  O   UNL     1      -0.560  -4.262  -0.992  0.00  0.00    -0.153 OA
ATOM      5  O   UNL     1      -0.588  -2.706  -2.937  0.00  0.00    -0.153 OA
BRANCH   3   9
ATOM      6  C   UNL     1       0.617   1.665   0.118  0.00  0.00    +0.149 C 
ATOM      7  N   UNL     1       0.484   0.206   0.085  0.00  0.00    -0.344 N 
ATOM      8  C   UNL     1       0.322  -0.548  -1.030  0.00  0.00    +0.114 A 
ATOM      9  C   UNL     1       0.237  -1.851  -0.669  0.00  0.00    +0.123 A 
ATOM     10  C   UNL     1       0.350  -1.918   0.723  0.00  0.00    +0.061 A 
ATOM     11  C   UNL     1       0.509  -0.627   1.180  0.00  0.00    +0.106 A 
BRANCH  11  12
ATOM     12  C   UNL     1       0.673  -0.216   2.579  0.00  0.00    +0.258 C 
ATOM     13  O   UNL     1       0.714   0.966   2.864  0.00  0.00    -0.269 OA
ATOM     14  N   UNL     1       0.777  -1.148   3.547  0.00  0.00    -0.324 N 
ATOM     15  H   UNL     1       0.817  -2.088   3.313  0.00  0.00    +0.145 HD
ATOM     16  H   UNL     1       0.812  -0.878   4.478  0.00  0.00    +0.145 HD
ENDBRANCH  11  12
ENDBRANCH   3   9
ENDBRANCH   1   3
BRANCH   1  17
ATOM     17  C   UNL     1       2.433  -4.301  -1.190  0.00  0.00    +0.095 C 
BRANCH  17  18
ATOM     18  C   UNL     1       3.576  -5.044  -1.886  0.00  0.00    -0.021 C 
BRANCH  18  19
ATOM     19  C   UNL     1       4.421  -4.061  -2.653  0.00  0.00    -0.041 A 
ATOM     20  C   UNL     1       4.179  -3.841  -3.996  0.00  0.00    +0.003 A 
ATOM     21  C   UNL     1       4.954  -2.938  -4.700  0.00  0.00    +0.000 A 
ATOM     22  C   UNL     1       5.972  -2.255  -4.061  0.00  0.00    +0.001 A 
ATOM     23  C   UNL     1       6.215  -2.474  -2.718  0.00  0.00    +0.020 A 
ATOM     24  C   UNL     1       5.436  -3.373  -2.012  0.00  0.00    +0.043 A 
ATOM     25 CL   UNL     1       5.737  -3.644  -0.324  0.00  0.00    -0.083 Cl
ENDBRANCH  18  19
BRANCH  18  26
ATOM     26  N   UNL     1       3.019  -6.039  -2.813  0.00  0.00    +0.381 N 
ATOM     27  C   UNL     1       4.112  -6.825  -3.401  0.00  0.00    -0.096 C 
ATOM     28  C   UNL     1       2.111  -6.934  -2.083  0.00  0.00    -0.096 C 
ATOM     29  H   UNL     1       2.511  -5.569  -3.546  0.00  0.00    -0.082 HD
ENDBRANCH  18  26
ENDBRANCH  17  18
ENDBRANCH   1  17
TORSDOF 7
