REMARK  Name = ZINC56877201
REMARK  11 active torsions:
REMARK  status: ('A' for Active; 'I' for Inactive)
REMARK    1  A    between atoms: C_1  and  C_2
REMARK    2  A    between atoms: C_2  and  C_3
REMARK    3  A    between atoms: C_2  and  N_4
REMARK    4  A    between atoms: N_7  and  C_8
REMARK    5  A    between atoms: C_11  and  C_14
REMARK    6  A    between atoms: C_14  and  N_15
REMARK    7  A    between atoms: C_21  and  C_24
REMARK    8  A    between atoms: C_24  and  C_25
REMARK    9  A    between atoms: C_25  and  N_26
REMARK   10  A    between atoms: N_26  and  C_27
REMARK   11  A    between atoms: N_26  and  C_28
REMARK                            x       y       z     vdW  Elec       q    Type
REMARK                         _______ _______ _______ _____ _____    ______ ____
ROOT
ATOM      1  C   UNL     1      -3.777  -7.509  -2.280  0.00  0.00    +0.141 C 
ENDROOT
BRANCH   1   2
ATOM      2  N   UNL     1      -3.687  -8.431  -1.145  0.00  0.00    -0.295 N 
ATOM      3  C   UNL     1      -3.855  -9.754  -1.337  0.00  0.00    +0.302 C 
ATOM      4  O   UNL     1      -3.990 -10.193  -2.462  0.00  0.00    -0.253 OA
ATOM      5  N   UNL     1      -3.872 -10.591  -0.280  0.00  0.00    -0.286 N 
ATOM      6  C   UNL     1      -4.162 -12.020  -0.462  0.00  0.00    +0.109 C 
ATOM      7  C   UNL     1      -3.033 -12.837   0.174  0.00  0.00    +0.022 C 
ATOM      8  C   UNL     1      -2.862 -12.412   1.635  0.00  0.00    -0.010 C 
ATOM      9  C   UNL     1      -2.480 -10.931   1.694  0.00  0.00    +0.022 C 
ATOM     10  C   UNL     1      -3.596 -10.094   1.074  0.00  0.00    +0.109 C 
ATOM     11  H   UNL     1      -3.507  -8.089  -0.255  0.00  0.00    +0.151 HD
BRANCH   8  12
ATOM     12  C   UNL     1      -1.759 -13.250   2.284  0.00  0.00    -0.015 C 
BRANCH  12  13
ATOM     13  C   UNL     1      -1.672 -12.912   3.773  0.00  0.00    -0.079 C 
BRANCH  13  14
ATOM     14  N   UNL     1      -0.612 -13.717   4.397  0.00  0.00    +0.376 N 
ATOM     15  C   UNL     1       0.689 -13.332   3.834  0.00  0.00    -0.097 C 
ATOM     16  C   UNL     1      -0.608 -13.482   5.847  0.00  0.00    -0.097 C 
ATOM     17  H   UNL     1      -0.782 -14.695   4.215  0.00  0.00    -0.083 HD
ENDBRANCH  13  14
ENDBRANCH  12  13
ENDBRANCH   8  12
ENDBRANCH   1   2
BRANCH   1  21
ATOM     18  C   UNL     1      -3.143  -3.508  -0.919  0.00  0.00    +0.035 A 
ATOM     19  C   UNL     1      -2.066  -4.281  -1.333  0.00  0.00    +0.023 A 
ATOM     20  C   UNL     1      -2.275  -5.574  -1.772  0.00  0.00    +0.007 A 
ATOM     21  C   UNL     1      -3.554  -6.098  -1.800  0.00  0.00    -0.030 A 
ATOM     22  C   UNL     1      -4.628  -5.331  -1.389  0.00  0.00    +0.007 A 
ATOM     23  C   UNL     1      -4.426  -4.039  -0.944  0.00  0.00    +0.023 A 
BRANCH  18  27
ATOM     24  N   UNL     1      -3.430  -0.471   1.018  0.00  0.00    -0.297 N 
ATOM     25  C   UNL     1      -3.691  -1.698   0.525  0.00  0.00    +0.304 C 
ATOM     26  O   UNL     1      -4.608  -2.354   0.980  0.00  0.00    -0.253 OA
ATOM     27  N   UNL     1      -2.936  -2.197  -0.473  0.00  0.00    -0.269 N 
ATOM     28  H   UNL     1      -2.699   0.053   0.654  0.00  0.00    +0.151 HD
ATOM     29  H   UNL     1      -2.248  -1.649  -0.882  0.00  0.00    +0.156 HD
BRANCH  24  31
ATOM     30  C   UNL     1      -3.443   1.111   2.883  0.00  0.00    +0.027 C 
ATOM     31  C   UNL     1      -4.251   0.073   2.102  0.00  0.00    +0.068 C 
ATOM     32  C   UNL     1      -5.500   0.735   1.515  0.00  0.00    +0.027 C 
ENDBRANCH  24  31
ENDBRANCH  18  27
ENDBRANCH   1  21
TORSDOF 7
