REMARK  Name = ZINC38604145
REMARK  9 active torsions:
REMARK  status: ('A' for Active; 'I' for Inactive)
REMARK    1  A    between atoms: C_1  and  O_2
REMARK    2  A    between atoms: O_2  and  C_3
REMARK    3  A    between atoms: C_3  and  C_5
REMARK    4  A    between atoms: C_7  and  N_16
REMARK    5  A    between atoms: C_17  and  C_19
REMARK    6  A    between atoms: C_19  and  N_20
REMARK    7  A    between atoms: N_23  and  C_26
REMARK    8  A    between atoms: C_26  and  C_27
REMARK    9  A    between atoms: C_28  and  C_29
REMARK                            x       y       z     vdW  Elec       q    Type
REMARK                         _______ _______ _______ _____ _____    ______ ____
ROOT
ATOM      1  N   UNL     1       0.077  -2.514  -1.992  0.00  0.00    -0.285 N 
ATOM      2  C   UNL     1       0.153  -2.935  -3.270  0.00  0.00    +0.231 C 
ATOM      3  O   UNL     1      -0.830  -3.383  -3.820  0.00  0.00    -0.274 OA
ATOM      4  H   UNL     1       0.839  -2.078  -1.579  0.00  0.00    +0.155 HD
ENDROOT
BRANCH   1   6
ATOM      5  C   UNL     1      -2.280  -3.509  -1.694  0.00  0.00    +0.234 C 
ATOM      6  C   UNL     1      -1.070  -2.700  -1.280  0.00  0.00    +0.053 C 
ATOM      7  C   UNL     1      -1.369  -2.190  -0.029  0.00  0.00    +0.019 A 
ATOM      8  C   UNL     1      -0.643  -1.366   0.865  0.00  0.00    +0.031 A 
ATOM      9  C   UNL     1      -1.195  -1.013   2.052  0.00  0.00    +0.042 A 
ATOM     10  C   UNL     1      -2.473  -1.442   2.423  0.00  0.00    +0.022 A 
ATOM     11  C   UNL     1      -3.224  -2.232   1.618  0.00  0.00    +0.027 A 
ATOM     12  C   UNL     1      -2.715  -2.644   0.358  0.00  0.00    +0.045 A 
ATOM     13  N   UNL     1      -3.239  -3.397  -0.590  0.00  0.00    -0.367 N 
ATOM     14 CL   UNL     1      -0.293  -0.003   3.139  0.00  0.00    -0.084 Cl
ATOM     15  H   UNL     1      -4.116  -3.810  -0.563  0.00  0.00    +0.161 HD
BRANCH   5  16
ATOM     16  C   UNL     1      -1.894  -4.950  -1.903  0.00  0.00    +0.335 C 
ATOM     17  O   UNL     1      -1.997  -5.741  -0.995  0.00  0.00    -0.248 OA
BRANCH  16  19
ATOM     18  C   UNL     1      -1.090  -6.737  -3.224  0.00  0.00    +0.280 C 
ATOM     19  O   UNL     1      -1.437  -5.357  -3.097  0.00  0.00    -0.466 OA
ENDBRANCH  16  19
ENDBRANCH   5  16
ENDBRANCH   1   6
BRANCH   2  20
ATOM     20  C   UNL     1       1.460  -2.849  -4.015  0.00  0.00    +0.180 C 
BRANCH  20  21
ATOM     21  N   UNL     1       1.282  -3.367  -5.378  0.00  0.00    -0.298 NA
ATOM     22  C   UNL     1       0.384  -2.502  -6.157  0.00  0.00    +0.066 C 
ATOM     23  C   UNL     1       0.177  -3.106  -7.548  0.00  0.00    -0.063 C 
ATOM     24  N   UNL     1       1.474  -3.230  -8.225  0.00  0.00    +0.384 N 
ATOM     25  C   UNL     1       2.352  -4.116  -7.449  0.00  0.00    -0.063 C 
ATOM     26  C   UNL     1       2.576  -3.521  -6.057  0.00  0.00    +0.066 C 
ATOM     27  H   UNL     1       1.901  -2.319  -8.304  0.00  0.00    -0.081 HD
BRANCH  24  28
ATOM     28  C   UNL     1       1.274  -3.793  -9.567  0.00  0.00    -0.051 C 
BRANCH  28  29
ATOM     29  C   UNL     1       2.586  -3.807 -10.308  0.00  0.00    -0.045 C 
ATOM     30  C   UNL     1       3.045  -4.939 -10.823  0.00  0.00    +0.002 C 
BRANCH  30  31
ATOM     31  C   UNL     1       4.332  -4.953 -11.549  0.00  0.00    -0.025 A 
ATOM     32  C   UNL     1       5.069  -3.776 -11.690  0.00  0.00    +0.008 A 
ATOM     33  C   UNL     1       6.270  -3.796 -12.369  0.00  0.00    +0.001 A 
ATOM     34  C   UNL     1       6.743  -4.978 -12.911  0.00  0.00    +0.000 A 
ATOM     35  C   UNL     1       6.016  -6.147 -12.775  0.00  0.00    +0.001 A 
ATOM     36  C   UNL     1       4.817  -6.143 -12.092  0.00  0.00    +0.008 A 
ENDBRANCH  30  31
ENDBRANCH  28  29
ENDBRANCH  24  28
ENDBRANCH  20  21
ENDBRANCH   2  20
TORSDOF 8
