REMARK  Name = ZINC39592662
REMARK  10 active torsions:
REMARK  status: ('A' for Active; 'I' for Inactive)
REMARK    1  A    between atoms: C_4  and  C_7
REMARK    2  A    between atoms: C_7  and  O_8
REMARK    3  A    between atoms: O_8  and  C_9
REMARK    4  A    between atoms: C_12  and  N_15
REMARK    5  A    between atoms: C_16  and  C_18
REMARK    6  A    between atoms: C_18  and  S_19
REMARK    7  A    between atoms: S_19  and  C_20
REMARK    8  A    between atoms: C_24  and  C_28
REMARK    9  A    between atoms: N_26  and  N_27
REMARK   10  A    between atoms: C_31  and  C_34
REMARK                            x       y       z     vdW  Elec       q    Type
REMARK                         _______ _______ _______ _____ _____    ______ ____
ROOT
ATOM      1  S   UNL     1      11.165  -5.046   5.183  0.00  0.00    -0.107 S 
ENDROOT
BRANCH   1   2
ATOM      2  C   UNL     1      12.940  -5.418   5.243  0.00  0.00    +0.272 C 
ATOM      3  N   UNL     1      13.155  -6.867   5.357  0.00  0.00    -0.159 NA
ATOM      4  N   UNL     1      14.011  -7.125   6.209  0.00  0.00    -0.167 NA
ATOM      5  C   UNL     1      14.532  -5.900   6.828  0.00  0.00    +0.244 C 
ATOM      6  N   UNL     1      13.547  -4.845   6.471  0.00  0.00    -0.183 NA
BRANCH   5   7
ATOM      7  C   UNL     1      15.909  -5.558   6.256  0.00  0.00    +0.195 C 
ATOM      8  C   UNL     1      16.886  -6.697   6.494  0.00  0.00    +0.035 C 
ATOM      9  C   UNL     1      17.843  -6.145   7.265  0.00  0.00    +0.091 C 
ATOM     10  N   UNL     1      17.559  -4.839   7.511  0.00  0.00    -0.154 NA
ATOM     11  N   UNL     1      16.513  -4.434   6.991  0.00  0.00    -0.176 NA
BRANCH   9  12
ATOM     12  C   UNL     1      19.037  -6.863   7.774  0.00  0.00    +0.002 A 
ATOM     13  C   UNL     1      19.235  -8.205   7.456  0.00  0.00    +0.013 A 
ATOM     14  C   UNL     1      20.347  -8.868   7.931  0.00  0.00    +0.039 A 
ATOM     15  C   UNL     1      21.267  -8.202   8.724  0.00  0.00    +0.123 A 
ATOM     16  C   UNL     1      21.075  -6.867   9.043  0.00  0.00    +0.039 A 
ATOM     17  C   UNL     1      19.969  -6.195   8.567  0.00  0.00    +0.013 A 
ATOM     18  F   UNL     1      22.355  -8.855   9.188  0.00  0.00    -0.205 F 
ENDBRANCH   9  12
ENDBRANCH   5   7
BRANCH   6  19
ATOM     19  N   UNL     1      12.552  -4.686   7.519  0.00  0.00    -0.263 NA
ATOM     20  H   UNL     1      11.866  -3.991   7.263  0.00  0.00    +0.137 HD
ATOM     21  H   UNL     1      12.111  -5.567   7.736  0.00  0.00    +0.137 HD
ENDBRANCH   6  19
ENDBRANCH   1   2
BRANCH   1  22
ATOM     22  C   UNL     1      10.699  -5.407   3.468  0.00  0.00    +0.168 C 
BRANCH  22  24
ATOM     23  N   UNL     1       8.685  -5.222   2.044  0.00  0.00    -0.285 N 
ATOM     24  C   UNL     1       9.254  -5.039   3.252  0.00  0.00    +0.227 C 
ATOM     25  O   UNL     1       8.602  -4.579   4.166  0.00  0.00    -0.275 OA
ATOM     26  H   UNL     1       9.182  -5.659   1.335  0.00  0.00    +0.155 HD
BRANCH  23  30
ATOM     27  C   UNL     1       4.788  -3.908   1.354  0.00  0.00    +0.121 A 
ATOM     28  C   UNL     1       5.613  -3.206   2.221  0.00  0.00    +0.047 A 
ATOM     29  C   UNL     1       6.903  -3.641   2.450  0.00  0.00    +0.027 A 
ATOM     30  C   UNL     1       7.375  -4.780   1.812  0.00  0.00    +0.034 A 
ATOM     31  C   UNL     1       6.549  -5.482   0.945  0.00  0.00    +0.027 A 
ATOM     32  C   UNL     1       5.257  -5.050   0.721  0.00  0.00    +0.047 A 
BRANCH  27  33
ATOM     33  O   UNL     1       3.517  -3.479   1.129  0.00  0.00    -0.487 OA
BRANCH  33  34
ATOM     34  C   UNL     1       3.100  -2.296   1.814  0.00  0.00    +0.264 C 
BRANCH  34  38
ATOM     35  C   UNL     1      -0.940  -1.390   0.766  0.00  0.00    +0.000 A 
ATOM     36  C   UNL     1      -0.674  -2.204   1.851  0.00  0.00    +0.000 A 
ATOM     37  C   UNL     1       0.634  -2.498   2.190  0.00  0.00    +0.007 A 
ATOM     38  C   UNL     1       1.675  -1.977   1.444  0.00  0.00    -0.010 A 
ATOM     39  C   UNL     1       1.408  -1.164   0.359  0.00  0.00    +0.007 A 
ATOM     40  C   UNL     1       0.101  -0.869   0.021  0.00  0.00    +0.000 A 
ENDBRANCH  34  38
ENDBRANCH  33  34
ENDBRANCH  27  33
ENDBRANCH  23  30
ENDBRANCH  22  24
ENDBRANCH   1  22
TORSDOF 10
