REMARK  Name = ZINC39631505
REMARK  11 active torsions:
REMARK  status: ('A' for Active; 'I' for Inactive)
REMARK    1  A    between atoms: C_1  and  C_2
REMARK    2  A    between atoms: C_2  and  C_4
REMARK    3  A    between atoms: C_2  and  N_11
REMARK    4  A    between atoms: C_4  and  C_5
REMARK    5  A    between atoms: C_5  and  C_6
REMARK    6  A    between atoms: C_6  and  C_7
REMARK    7  A    between atoms: C_7  and  C_8
REMARK    8  A    between atoms: C_7  and  C_9
REMARK    9  A    between atoms: C_7  and  O_10
REMARK   10  A    between atoms: C_12  and  C_14
REMARK   11  A    between atoms: C_25  and  C_27
REMARK                            x       y       z     vdW  Elec       q    Type
REMARK                         _______ _______ _______ _____ _____    ______ ____
ROOT
ATOM      1  C   UNL     1       2.799  -0.465   2.244  0.00  0.00    +0.100 C 
ATOM      2  C   UNL     1       2.652   0.277   3.591  0.00  0.00    +0.121 C 
ATOM      3  N   UNL     1       3.983   0.158   4.231  0.00  0.00    -0.296 N 
ATOM      4  C   UNL     1       4.945   0.328   3.116  0.00  0.00    +0.115 C 
ATOM      5  C   UNL     1       4.305  -0.429   1.935  0.00  0.00    -0.004 C 
ATOM      6  C   UNL     1       4.559   0.319   0.630  0.00  0.00    -0.010 C 
ATOM      7  C   UNL     1       6.057   0.291   0.314  0.00  0.00    -0.082 C 
ATOM      8  N   UNL     1       6.509  -1.101   0.200  0.00  0.00    +0.379 N 
ATOM      9  C   UNL     1       6.347  -1.787   1.487  0.00  0.00    -0.082 C 
ATOM     10  C   UNL     1       4.862  -1.847   1.853  0.00  0.00    -0.010 C 
ATOM     11  C   UNL     1       4.258  -0.057   5.533  0.00  0.00    +0.247 C 
ATOM     12  O   UNL     1       3.356  -0.286   6.315  0.00  0.00    -0.270 OA
ATOM     13  H   UNL     1       5.962  -1.574  -0.503  0.00  0.00    -0.086 HD
ATOM     14  H   UNL     1       7.482  -1.116  -0.068  0.00  0.00    -0.086 HD
ENDROOT
BRANCH  11  15
ATOM     15  C   UNL     1       5.656  -0.012   6.011  0.00  0.00    +0.038 A 
ATOM     16  C   UNL     1       6.627   0.668   5.275  0.00  0.00    +0.013 A 
ATOM     17  C   UNL     1       7.930   0.707   5.726  0.00  0.00    +0.002 A 
ATOM     18  C   UNL     1       8.277   0.072   6.905  0.00  0.00    +0.020 A 
ATOM     19  C   UNL     1       7.319  -0.605   7.641  0.00  0.00    +0.042 A 
ATOM     20  C   UNL     1       6.010  -0.646   7.203  0.00  0.00    +0.033 A 
ATOM     21 CL   UNL     1       7.763  -1.398   9.120  0.00  0.00    -0.084 Cl
ENDBRANCH  11  15
BRANCH   1  23
ATOM     22  N   UNL     1       1.518  -0.448   0.128  0.00  0.00    -0.312 N 
ATOM     23  C   UNL     1       2.025   0.247   1.165  0.00  0.00    +0.218 C 
ATOM     24  O   UNL     1       1.857   1.447   1.231  0.00  0.00    -0.275 OA
ATOM     25  H   UNL     1       1.652  -1.407   0.075  0.00  0.00    +0.149 HD
BRANCH  22  27
ATOM     26  C   UNL     1      -0.696   0.385  -0.492  0.00  0.00    +0.028 C 
ATOM     27  C   UNL     1       0.766   0.244  -0.921  0.00  0.00    +0.070 C 
BRANCH  27  28
ATOM     28  C   UNL     1       0.841  -0.561  -2.219  0.00  0.00    +0.022 C 
BRANCH  28  29
ATOM     29  C   UNL     1       2.288  -0.596  -2.715  0.00  0.00    +0.005 C 
BRANCH  29  30
ATOM     30  C   UNL     1       2.363  -1.402  -4.014  0.00  0.00    +0.034 C 
BRANCH  30  31
ATOM     31  C   UNL     1       3.810  -1.436  -4.510  0.00  0.00    +0.061 C 
ATOM     32  C   UNL     1       3.866  -2.134  -5.870  0.00  0.00    +0.041 C 
ATOM     33  C   UNL     1       4.336  -0.006  -4.648  0.00  0.00    +0.041 C 
BRANCH  31  34
ATOM     34  O   UNL     1       4.617  -2.152  -3.573  0.00  0.00    -0.389 OA
ATOM     35  H   UNL     1       4.341  -3.069  -3.435  0.00  0.00    +0.210 HD
ENDBRANCH  31  34
ENDBRANCH  30  31
ENDBRANCH  29  30
ENDBRANCH  28  29
ENDBRANCH  27  28
ENDBRANCH  22  27
ENDBRANCH   1  23
TORSDOF 8
