REMARK  Name = ZINC48895915
REMARK  7 active torsions:
REMARK  status: ('A' for Active; 'I' for Inactive)
REMARK    1  A    between atoms: C_1  and  C_2
REMARK    2  A    between atoms: C_2  and  C_4
REMARK    3  A    between atoms: C_2  and  N_16
REMARK    4  A    between atoms: N_6  and  C_7
REMARK    5  A    between atoms: C_10  and  N_15
REMARK    6  A    between atoms: C_12  and  O_13
REMARK    7  A    between atoms: O_13  and  C_14
REMARK                            x       y       z     vdW  Elec       q    Type
REMARK                         _______ _______ _______ _____ _____    ______ ____
ROOT
ATOM      1  C   UNL     1      -1.413  -0.522   0.011  0.00  0.00    +0.203 C 
ATOM      2  O   UNL     1      -1.806  -1.225  -0.896  0.00  0.00    -0.277 OA
ATOM      3  N   UNL     1      -2.236  -0.217   1.033  0.00  0.00    -0.284 N 
ATOM      4  H   UNL     1      -1.899   0.277   1.797  0.00  0.00    +0.155 HD
ENDROOT
BRANCH   3   5
ATOM      5  C   UNL     1      -3.582  -0.614   0.993  0.00  0.00    +0.076 A 
ATOM      6  C   UNL     1      -4.202  -0.840  -0.227  0.00  0.00    +0.029 A 
ATOM      7  C   UNL     1      -5.527  -1.230  -0.268  0.00  0.00    +0.025 A 
ATOM      8  C   UNL     1      -6.240  -1.397   0.913  0.00  0.00    +0.028 A 
ATOM      9  C   UNL     1      -5.622  -1.172   2.136  0.00  0.00    +0.070 A 
ATOM     10  C   UNL     1      -4.293  -0.786   2.178  0.00  0.00    +0.143 A 
BRANCH   8  11
ATOM     11  N   UNL     1      -7.581  -1.792   0.869  0.00  0.00    -0.358 N 
ATOM     12  H   UNL     1      -8.013  -1.949   0.015  0.00  0.00    +0.142 HD
ATOM     13  H   UNL     1      -8.079  -1.909   1.693  0.00  0.00    +0.142 HD
ENDBRANCH   8  11
BRANCH  10  14
ATOM     14  O   UNL     1      -3.685  -0.570   3.375  0.00  0.00    -0.493 OA
ATOM     15  C   UNL     1      -4.475  -0.766   4.549  0.00  0.00    +0.277 C 
ENDBRANCH  10  14
ENDBRANCH   3   5
BRANCH   1  17
ATOM     16  C   UNL     1      -0.034   1.539  -0.001  0.00  0.00    -0.004 C 
ATOM     17  C   UNL     1      -0.003   0.009  -0.005  0.00  0.00    +0.016 C 
BRANCH  17  18
ATOM     18  N   UNL     1       0.685  -0.463  -1.215  0.00  0.00    +0.388 N 
ATOM     19  C   UNL     1       2.079  -0.025  -1.205  0.00  0.00    -0.077 C 
ATOM     20  C   UNL     1       2.427   0.513  -2.595  0.00  0.00    -0.008 C 
ATOM     21  C   UNL     1       1.869  -0.300  -3.773  0.00  0.00    +0.067 C 
ATOM     22  S   UNL     1       2.063  -2.080  -3.560  0.00  0.00    -0.163 S 
ATOM     23  C   UNL     1       0.600  -2.555  -2.552  0.00  0.00    +0.050 C 
ATOM     24  C   UNL     1       0.724  -1.928  -1.234  0.00  0.00    -0.067 C 
ATOM     25  H   UNL     1       0.216  -0.116  -2.038  0.00  0.00    -0.081 HD
ENDBRANCH  17  18
ENDBRANCH   1  17
TORSDOF 5
