REMARK  Name = ZINC53973629
REMARK  6 active torsions:
REMARK  status: ('A' for Active; 'I' for Inactive)
REMARK    1  A    between atoms: C_6  and  C_7
REMARK    2  A    between atoms: C_7  and  C_9
REMARK    3  A    between atoms: C_7  and  O_19
REMARK    4  A    between atoms: C_9  and  C_10
REMARK    5  A    between atoms: C_10  and  N_11
REMARK    6  A    between atoms: C_15  and  O_18
REMARK                            x       y       z     vdW  Elec       q    Type
REMARK                         _______ _______ _______ _____ _____    ______ ____
ROOT
ATOM      1  C   UNL     1      -1.616  -1.244  -1.410  0.00  0.00    +0.017 C 
ENDROOT
BRANCH   1   2
ATOM      2  C   UNL     1      -1.293  -0.775   0.010  0.00  0.00    +0.143 C 
BRANCH   2   8
ATOM      3  C   UNL     1      -0.017   1.378   0.010  0.00  0.00    +0.007 A 
ATOM      4  C   UNL     1       1.171   2.086   0.002  0.00  0.00    +0.015 A 
ATOM      5  C   UNL     1       2.378   1.411  -0.013  0.00  0.00    +0.018 A 
ATOM      6  C   UNL     1       2.396   0.027  -0.021  0.00  0.00    +0.015 A 
ATOM      7  C   UNL     1       1.208  -0.679  -0.013  0.00  0.00    +0.007 A 
ATOM      8  C   UNL     1       0.002  -0.004   0.002  0.00  0.00    -0.019 A 
ATOM      9 BR   UNL     1       4.003   2.378  -0.024  0.00  0.00    -0.050 Br
ENDBRANCH   2   8
BRANCH   2  10
ATOM     10  O   UNL     1      -1.166  -1.910   0.869  0.00  0.00    -0.387 OA
ATOM     11  H   UNL     1      -0.469  -2.526   0.606  0.00  0.00    +0.210 HD
ENDBRANCH   2  10
ENDBRANCH   1   2
BRANCH   1  12
ATOM     12  C   UNL     1      -2.990  -1.917  -1.424  0.00  0.00    -0.076 C 
BRANCH  12  13
ATOM     13  N   UNL     1      -3.301  -2.367  -2.787  0.00  0.00    +0.381 N 
ATOM     14  C   UNL     1      -3.422  -1.201  -3.670  0.00  0.00    -0.079 C 
ATOM     15  C   UNL     1      -3.665  -1.667  -5.107  0.00  0.00    -0.016 C 
ATOM     16  C   UNL     1      -4.958  -2.486  -5.160  0.00  0.00    +0.027 C 
ATOM     17  C   UNL     1      -4.849  -3.658  -4.181  0.00  0.00    +0.098 C 
ATOM     18  C   UNL     1      -4.562  -3.118  -2.778  0.00  0.00    -0.047 C 
ATOM     19  H   UNL     1      -2.558  -2.963  -3.121  0.00  0.00    -0.082 HD
BRANCH  17  20
ATOM     20  O   UNL     1      -6.078  -4.387  -4.170  0.00  0.00    -0.394 OA
ATOM     21  H   UNL     1      -6.324  -4.756  -5.029  0.00  0.00    +0.210 HD
ENDBRANCH  17  20
ENDBRANCH  12  13
ENDBRANCH   1  12
TORSDOF 6
