REMARK  Name = ZINC12875432
REMARK  6 active torsions:
REMARK  status: ('A' for Active; 'I' for Inactive)
REMARK    1  A    between atoms: C_1  and  C_2
REMARK    2  A    between atoms: C_2  and  O_3
REMARK    3  A    between atoms: O_3  and  C_4
REMARK    4  A    between atoms: C_4  and  C_6
REMARK    5  A    between atoms: C_9  and  N_12
REMARK    6  A    between atoms: C_31  and  C_36
REMARK                            x       y       z     vdW  Elec       q    Type
REMARK                         _______ _______ _______ _____ _____    ______ ____
ROOT
ATOM      1  N   UNL     1      -4.940   3.966   0.048  0.00  0.00    -0.210 N 
ATOM      2  C   UNL     1      -6.119   3.341  -0.047  0.00  0.00    +0.228 C 
ATOM      3  O   UNL     1      -6.271   2.143  -0.151  0.00  0.00    -0.275 OA
ATOM      4  C   UNL     1      -7.234   4.363  -0.005  0.00  0.00    +0.074 C 
ATOM      5  C   UNL     1      -7.919   4.427  -1.383  0.00  0.00    -0.054 C 
ATOM      6  C   UNL     1      -7.715   3.088  -2.115  0.00  0.00    -0.016 C 
ATOM      7  C   UNL     1      -6.398   3.295  -2.937  0.00  0.00    -0.020 C 
ATOM      8  C   UNL     1      -5.925   4.723  -2.601  0.00  0.00    -0.076 C 
ATOM      9  C   UNL     1      -6.785   6.466  -1.162  0.00  0.00    +0.053 C 
ATOM     10  C   UNL     1      -6.478   5.712   0.136  0.00  0.00    +0.089 C 
ATOM     11  C   UNL     1      -5.024   5.297   0.159  0.00  0.00    +0.229 C 
ATOM     12  O   UNL     1      -4.081   6.052   0.260  0.00  0.00    -0.275 OA
ATOM     13  C   UNL     1      -5.611   7.288  -1.614  0.00  0.00    -0.026 A 
ATOM     14  C   UNL     1      -4.312   6.978  -1.952  0.00  0.00    +0.024 A 
ATOM     15  C   UNL     1      -3.439   7.981  -2.340  0.00  0.00    +0.042 A 
ATOM     16  C   UNL     1      -3.877   9.293  -2.387  0.00  0.00    +0.025 A 
ATOM     17  C   UNL     1      -5.177   9.607  -2.050  0.00  0.00    -0.028 A 
ATOM     18  C   UNL     1      -6.061   8.604  -1.659  0.00  0.00    +0.039 A 
ATOM     19  N   UNL     1      -7.403   8.669  -1.276  0.00  0.00    -0.286 N 
ATOM     20  C   UNL     1      -7.902   7.456  -0.969  0.00  0.00    +0.212 C 
ATOM     21  O   UNL     1      -9.033   7.210  -0.606  0.00  0.00    -0.277 OA
ATOM     22  C   UNL     1      -5.642  11.039  -2.106  0.00  0.00    +0.046 C 
ATOM     23 CL   UNL     1      -1.802   7.593  -2.764  0.00  0.00    -0.084 Cl
ATOM     24  H   UNL     1      -7.915   9.491  -1.237  0.00  0.00    +0.155 HD
ATOM     25  N   UNL     1      -7.140   5.404  -2.108  0.00  0.00    +0.395 N 
ATOM     26  H   UNL     1      -7.676   5.791  -2.894  0.00  0.00    -0.079 HD
ENDROOT
BRANCH   1  30
ATOM     27  C   UNL     1      -1.302   1.931   0.018  0.00  0.00    +0.059 A 
ATOM     28  C   UNL     1      -2.182   1.776   1.093  0.00  0.00    +0.017 A 
ATOM     29  C   UNL     1      -3.381   2.454   1.102  0.00  0.00    +0.025 A 
ATOM     30  C   UNL     1      -3.720   3.284   0.038  0.00  0.00    +0.044 A 
ATOM     31  C   UNL     1      -2.849   3.435  -1.036  0.00  0.00    +0.025 A 
ATOM     32  C   UNL     1      -1.647   2.765  -1.049  0.00  0.00    +0.017 A 
BRANCH  27  33
ATOM     33  C   UNL     1      -0.015   1.210   0.007  0.00  0.00    +0.339 C 
ATOM     34  O   UNL     1       0.747   1.341  -0.930  0.00  0.00    -0.245 OA
BRANCH  33  35
ATOM     35  O   UNL     1       0.318   0.411   1.039  0.00  0.00    -0.461 OA
BRANCH  35  37
ATOM     36  C   UNL     1       1.804  -1.119   2.216  0.00  0.00    +0.048 C 
ATOM     37  C   UNL     1       1.603  -0.262   0.964  0.00  0.00    +0.229 C 
ENDBRANCH  35  37
ENDBRANCH  33  35
ENDBRANCH  27  33
ENDBRANCH   1  30
TORSDOF 4
