REMARK  Name = ZINC53517443
REMARK  6 active torsions:
REMARK  status: ('A' for Active; 'I' for Inactive)
REMARK    1  A    between atoms: C_1  and  C_2
REMARK    2  A    between atoms: N_5  and  C_8
REMARK    3  A    between atoms: C_8  and  C_10
REMARK    4  A    between atoms: C_8  and  C_25
REMARK    5  A    between atoms: C_10  and  N_11
REMARK    6  A    between atoms: C_12  and  N_14
REMARK                            x       y       z     vdW  Elec       q    Type
REMARK                         _______ _______ _______ _____ _____    ______ ____
ROOT
ATOM      1  N   UNL     1       2.745  -5.799   1.126  0.00  0.00    -0.299 N 
ATOM      2  C   UNL     1       3.397  -6.415   2.133  0.00  0.00    +0.326 C 
ATOM      3  O   UNL     1       3.877  -5.758   3.040  0.00  0.00    -0.251 OA
ATOM      4  H   UNL     1       2.363  -6.322   0.404  0.00  0.00    +0.150 HD
ENDROOT
BRANCH   2   5
ATOM      5  N   UNL     1       3.516  -7.748   2.136  0.00  0.00    -0.129 NA
ATOM      6  C   UNL     1       4.241  -8.347   3.071  0.00  0.00    +0.200 A 
ATOM      7  N   UNL     1       4.809  -7.731   4.144  0.00  0.00    -0.326 N 
ATOM      8  H   UNL     1       4.752  -6.785   4.352  0.00  0.00    +0.169 HD
ATOM      9  C   UNL     1       5.485  -8.691   4.891  0.00  0.00    +0.065 A 
ATOM     10  C   UNL     1       6.227  -8.630   6.061  0.00  0.00    +0.028 A 
ATOM     11  C   UNL     1       6.793  -9.778   6.579  0.00  0.00    +0.002 A 
ATOM     12  C   UNL     1       6.622 -10.992   5.934  0.00  0.00    +0.002 A 
ATOM     13  C   UNL     1       5.885 -11.063   4.769  0.00  0.00    +0.028 A 
ATOM     14  C   UNL     1       5.312  -9.915   4.241  0.00  0.00    +0.065 A 
ATOM     15  N   UNL     1       4.531  -9.676   3.115  0.00  0.00    -0.326 N 
ATOM     16  H   UNL     1       4.244 -10.341   2.470  0.00  0.00    +0.169 HD
ENDBRANCH   2   5
BRANCH   1  17
ATOM     17  C   UNL     1       2.615  -4.340   1.123  0.00  0.00    +0.095 C 
BRANCH  17  18
ATOM     18  C   UNL     1       1.737  -3.909  -0.054  0.00  0.00    -0.013 C 
BRANCH  18  23
ATOM     19  C   UNL     1      -0.201   1.451   0.134  0.00  0.00    +0.007 C 
ATOM     20  C   UNL     1      -0.119  -0.076   0.084  0.00  0.00    -0.018 C 
ATOM     21  C   UNL     1       0.626  -0.507  -1.183  0.00  0.00    -0.015 C 
ATOM     22  C   UNL     1       0.774  -2.030  -1.188  0.00  0.00    -0.078 C 
ATOM     23  N   UNL     1       1.531  -2.455  -0.005  0.00  0.00    +0.386 N 
ATOM     24  C   UNL     1       0.788  -2.109   1.213  0.00  0.00    -0.078 C 
ATOM     25  C   UNL     1       0.640  -0.589   1.310  0.00  0.00    -0.015 C 
ATOM     26  H   UNL     1       2.426  -1.991   0.005  0.00  0.00    -0.081 HD
ENDBRANCH  18  23
BRANCH  18  27
ATOM     27  C   UNL     1       2.416  -4.276  -1.348  0.00  0.00    -0.022 A 
ATOM     28  C   UNL     1       2.184  -5.334  -2.163  0.00  0.00    +0.009 A 
ATOM     29  C   UNL     1       2.938  -5.472  -3.314  0.00  0.00    +0.008 A 
ATOM     30  C   UNL     1       3.886  -4.544  -3.593  0.00  0.00    +0.045 A 
ATOM     31  S   UNL     1       3.729  -3.427  -2.210  0.00  0.00    -0.103 S 
ENDBRANCH  18  27
ENDBRANCH  17  18
ENDBRANCH   1  17
TORSDOF 5
