REMARK  Name = ZINC48026436
REMARK  8 active torsions:
REMARK  status: ('A' for Active; 'I' for Inactive)
REMARK    1  A    between atoms: C_4  and  O_8
REMARK    2  A    between atoms: O_8  and  C_9
REMARK    3  A    between atoms: C_9  and  C_10
REMARK    4  A    between atoms: C_10  and  C_12
REMARK    5  A    between atoms: C_10  and  O_23
REMARK    6  A    between atoms: C_12  and  N_13
REMARK    7  A    between atoms: C_16  and  C_19
REMARK    8  A    between atoms: C_19  and  C_20
REMARK                            x       y       z     vdW  Elec       q    Type
REMARK                         _______ _______ _______ _____ _____    ______ ____
ROOT
ATOM      1  C   UNL     1       4.900  -4.149   0.056  0.00  0.00    -0.044 C 
ENDROOT
BRANCH   1   2
ATOM      2  N   UNL     1       6.301  -4.571   0.192  0.00  0.00    +0.381 N 
ATOM      3  C   UNL     1       7.046  -4.183  -1.011  0.00  0.00    -0.078 C 
ATOM      4  C   UNL     1       8.523  -4.547  -0.841  0.00  0.00    -0.015 C 
ATOM      5  C   UNL     1       8.649  -6.058  -0.626  0.00  0.00    -0.006 C 
ATOM      6  C   UNL     1       7.807  -6.462   0.588  0.00  0.00    -0.015 C 
ATOM      7  C   UNL     1       6.357  -6.027   0.365  0.00  0.00    -0.078 C 
ATOM      8  H   UNL     1       6.709  -4.121   0.998  0.00  0.00    -0.082 HD
BRANCH   5   9
ATOM      9  C   UNL     1      10.114  -6.418  -0.376  0.00  0.00    +0.099 C 
BRANCH   9  10
ATOM     10  C   UNL     1      10.255  -7.916  -0.286  0.00  0.00    +0.211 C 
ATOM     11  O   UNL     1       9.279  -8.625  -0.410  0.00  0.00    -0.276 OA
ATOM     12  N   UNL     1      11.465  -8.467  -0.068  0.00  0.00    -0.329 N 
ATOM     13  H   UNL     1      12.246  -7.900   0.031  0.00  0.00    +0.145 HD
ATOM     14  H   UNL     1      11.556  -9.431  -0.011  0.00  0.00    +0.145 HD
ENDBRANCH   9  10
ENDBRANCH   5   9
ENDBRANCH   1   2
BRANCH   1  15
ATOM     15  C   UNL     1       4.160  -4.408   1.370  0.00  0.00    +0.135 C 
BRANCH  15  16
ATOM     16  O   UNL     1       4.772  -3.653   2.418  0.00  0.00    -0.390 OA
ATOM     17  H   UNL     1       4.766  -2.698   2.270  0.00  0.00    +0.210 HD
ENDBRANCH  15  16
BRANCH  15  18
ATOM     18  C   UNL     1       2.697  -3.983   1.223  0.00  0.00    +0.258 C 
BRANCH  18  19
ATOM     19  O   UNL     1       1.979  -4.331   2.409  0.00  0.00    -0.488 OA
BRANCH  19  23
ATOM     20  C   UNL     1      -2.038  -3.388   2.512  0.00  0.00    +0.021 A 
ATOM     21  C   UNL     1      -1.448  -4.013   3.595  0.00  0.00    +0.025 A 
ATOM     22  C   UNL     1      -0.102  -4.330   3.563  0.00  0.00    +0.083 A 
ATOM     23  C   UNL     1       0.656  -4.021   2.442  0.00  0.00    +0.140 A 
ATOM     24  C   UNL     1       0.062  -3.394   1.357  0.00  0.00    +0.067 A 
ATOM     25  C   UNL     1      -1.284  -3.079   1.394  0.00  0.00    +0.045 A 
ATOM     26 CL   UNL     1      -2.028  -2.295   0.036  0.00  0.00    -0.083 Cl
ATOM     27 CL   UNL     1       0.638  -5.114   4.924  0.00  0.00    -0.080 Cl
ENDBRANCH  19  23
ENDBRANCH  18  19
ENDBRANCH  15  18
ENDBRANCH   1  15
TORSDOF 8
