REMARK  Name = ZINC20180065
REMARK  14 active torsions:
REMARK  status: ('A' for Active; 'I' for Inactive)
REMARK    1  A    between atoms: C_1  and  C_2
REMARK    2  A    between atoms: C_2  and  C_3
REMARK    3  A    between atoms: C_3  and  C_4
REMARK    4  A    between atoms: C_4  and  N_5
REMARK    5  A    between atoms: N_5  and  C_6
REMARK    6  A    between atoms: N_5  and  C_32
REMARK    7  A    between atoms: C_6  and  C_7
REMARK    8  A    between atoms: C_7  and  C_8
REMARK    9  A    between atoms: C_8  and  N_9
REMARK   10  A    between atoms: C_10  and  C_12
REMARK   11  A    between atoms: N_18  and  C_31
REMARK   12  A    between atoms: C_22  and  C_23
REMARK   13  A    between atoms: C_27  and  C_29
REMARK   14  A    between atoms: C_32  and  C_33
REMARK                            x       y       z     vdW  Elec       q    Type
REMARK                         _______ _______ _______ _____ _____    ______ ____
ROOT
ATOM      1  N   UNL     1       1.929  -7.135  -3.562  0.00  0.00    -0.311 N 
ATOM      2  C   UNL     1       1.488  -6.343  -2.565  0.00  0.00    +0.244 C 
ATOM      3  O   UNL     1       0.364  -6.490  -2.124  0.00  0.00    -0.270 OA
ATOM      4  H   UNL     1       2.946  -7.002  -3.962  0.00  0.00    +0.149 HD
ENDROOT
BRANCH   2   5
ATOM      5  C   UNL     1       2.368  -5.298  -2.009  0.00  0.00    +0.039 A 
ATOM      6  C   UNL     1       3.659  -5.130  -2.518  0.00  0.00    +0.014 A 
ATOM      7  C   UNL     1       4.476  -4.154  -1.994  0.00  0.00    +0.017 A 
ATOM      8  C   UNL     1       4.020  -3.340  -0.965  0.00  0.00    +0.034 A 
ATOM      9  C   UNL     1       2.730  -3.492  -0.445  0.00  0.00    +0.051 A 
ATOM     10  C   UNL     1       1.909  -4.479  -0.977  0.00  0.00    +0.037 A 
ATOM     11  N   UNL     1       2.231  -2.699   0.580  0.00  0.00    -0.269 N 
ATOM     12  C   UNL     1       2.684  -1.499   0.953  0.00  0.00    +0.257 C 
ATOM     13  O   UNL     1       2.095  -0.872   1.813  0.00  0.00    -0.269 OA
ATOM     14  C   UNL     1       3.897  -0.926   0.328  0.00  0.00    +0.075 C 
ATOM     15  C   UNL     1       4.093   0.411   0.237  0.00  0.00    +0.028 C 
ATOM     16  S   UNL     1       5.076  -2.091  -0.302  0.00  0.00    -0.082 S 
ATOM     17  C   UNL     1       1.091  -3.233   1.330  0.00  0.00    +0.138 C 
BRANCH  15  18
ATOM     18  C   UNL     1       3.005   1.339   0.585  0.00  0.00    -0.024 A 
ATOM     19  C   UNL     1       1.676   0.996   0.317  0.00  0.00    +0.008 A 
ATOM     20  C   UNL     1       0.662   1.869   0.650  0.00  0.00    +0.001 A 
ATOM     21  C   UNL     1       0.958   3.086   1.238  0.00  0.00    +0.003 A 
ATOM     22  C   UNL     1       2.270   3.435   1.502  0.00  0.00    -0.050 A 
ATOM     23  C   UNL     1       3.296   2.571   1.180  0.00  0.00    +0.011 A 
ATOM     24  C   UNL     1       2.580   4.763   2.143  0.00  0.00    +0.044 C 
ENDBRANCH  15  18
ENDBRANCH   2   5
BRANCH   1  25
ATOM     25  C   UNL     1       1.056  -8.173  -4.115  0.00  0.00    +0.102 C 
BRANCH  25  26
ATOM     26  C   UNL     1       1.794  -8.923  -5.226  0.00  0.00    +0.000 C 
BRANCH  26  27
ATOM     27  C   UNL     1       0.881 -10.007  -5.803  0.00  0.00    -0.077 C 
BRANCH  27  28
ATOM     28  N   UNL     1       1.590 -10.727  -6.869  0.00  0.00    +0.382 N 
ATOM     29  H   UNL     1       1.983  -9.982  -7.576  0.00  0.00    -0.081 HD
BRANCH  28  30
ATOM     30  C   UNL     1       2.729 -11.481  -6.328  0.00  0.00    -0.078 C 
BRANCH  30  31
ATOM     31  C   UNL     1       3.656 -11.896  -7.473  0.00  0.00    -0.019 C 
BRANCH  31  33
ATOM     32  C   UNL     1       5.728 -13.160  -8.063  0.00  0.00    +0.004 C 
ATOM     33  C   UNL     1       4.801 -12.745  -6.919  0.00  0.00    -0.005 C 
ENDBRANCH  31  33
ENDBRANCH  30  31
ENDBRANCH  28  30
BRANCH  28  34
ATOM     34  C   UNL     1       0.676 -11.611  -7.605  0.00  0.00    -0.043 C 
BRANCH  34  35
ATOM     35  C   UNL     1      -0.179 -10.788  -8.534  0.00  0.00    -0.064 A 
ATOM     36  C   UNL     1      -1.444 -10.394  -8.142  0.00  0.00    +0.002 A 
ATOM     37  C   UNL     1      -2.226  -9.635  -8.993  0.00  0.00    +0.000 A 
ATOM     38  C   UNL     1      -1.746  -9.279 -10.239  0.00  0.00    +0.000 A 
ATOM     39  C   UNL     1      -0.483  -9.678 -10.633  0.00  0.00    +0.000 A 
ATOM     40  C   UNL     1       0.301 -10.432  -9.781  0.00  0.00    +0.002 A 
ENDBRANCH  34  35
ENDBRANCH  28  34
ENDBRANCH  27  28
ENDBRANCH  26  27
ENDBRANCH  25  26
ENDBRANCH   1  25
TORSDOF 11
