REMARK  Name = ZINC37164465
REMARK  11 active torsions:
REMARK  status: ('A' for Active; 'I' for Inactive)
REMARK    1  A    between atoms: C_1  and  C_2
REMARK    2  A    between atoms: C_2  and  C_3
REMARK    3  A    between atoms: C_3  and  C_4
REMARK    4  A    between atoms: C_4  and  C_5
REMARK    5  A    between atoms: C_5  and  N_6
REMARK    6  A    between atoms: N_6  and  C_7
REMARK    7  A    between atoms: N_6  and  C_8
REMARK    8  A    between atoms: C_8  and  C_9
REMARK    9  A    between atoms: C_9  and  C_10
REMARK   10  A    between atoms: N_12  and  C_13
REMARK   11  A    between atoms: C_14  and  N_21
REMARK                            x       y       z     vdW  Elec       q    Type
REMARK                         _______ _______ _______ _____ _____    ______ ____
ROOT
ATOM      1  C   UNL     1      -5.130  -7.299   1.488  0.00  0.00    +0.215 C 
ATOM      2  O   UNL     1      -5.686  -7.054   2.537  0.00  0.00    -0.276 OA
ATOM      3  N   UNL     1      -5.795  -7.943   0.508  0.00  0.00    -0.283 N 
ATOM      4  H   UNL     1      -5.375  -8.075  -0.357  0.00  0.00    +0.155 HD
ENDROOT
BRANCH   3   5
ATOM      5  C   UNL     1      -7.093  -8.422   0.738  0.00  0.00    +0.073 A 
ATOM      6  C   UNL     1      -7.284  -9.695   1.272  0.00  0.00    +0.049 A 
ATOM      7  C   UNL     1      -8.570 -10.163   1.498  0.00  0.00    +0.044 A 
ATOM      8  C   UNL     1      -9.659  -9.367   1.194  0.00  0.00    +0.044 A 
ATOM      9  C   UNL     1      -9.470  -8.103   0.663  0.00  0.00    +0.042 A 
ATOM     10  C   UNL     1      -8.190  -7.627   0.440  0.00  0.00    +0.065 A 
ATOM     11 CL   UNL     1      -7.958  -6.037  -0.219  0.00  0.00    -0.082 Cl
ATOM     12 CL   UNL     1     -11.268  -9.954   1.477  0.00  0.00    -0.083 Cl
BRANCH   6  13
ATOM     13  N   UNL     1      -6.181 -10.500   1.579  0.00  0.00    -0.356 N 
ATOM     14  H   UNL     1      -5.282 -10.171   1.420  0.00  0.00    +0.142 HD
ATOM     15  H   UNL     1      -6.316 -11.386   1.951  0.00  0.00    +0.142 HD
ENDBRANCH   6  13
ENDBRANCH   3   5
BRANCH   1  16
ATOM     16  C   UNL     1      -3.696  -6.885   1.279  0.00  0.00    +0.077 C 
BRANCH  16  17
ATOM     17  C   UNL     1      -3.182  -6.178   2.535  0.00  0.00    -0.070 C 
BRANCH  17  18
ATOM     18  N   UNL     1      -1.784  -5.774   2.332  0.00  0.00    +0.378 N 
ATOM     19  C   UNL     1      -1.716  -4.768   1.264  0.00  0.00    -0.096 C 
ATOM     20  H   UNL     1      -1.236  -6.580   2.071  0.00  0.00    -0.082 HD
BRANCH  18  21
ATOM     21  C   UNL     1      -1.254  -5.204   3.578  0.00  0.00    -0.079 C 
BRANCH  21  22
ATOM     22  C   UNL     1       0.235  -4.898   3.405  0.00  0.00    -0.019 C 
BRANCH  22  23
ATOM     23  C   UNL     1       0.788  -4.304   4.702  0.00  0.00    -0.002 C 
BRANCH  23  25
ATOM     24  C   UNL     1       2.830  -3.404   5.826  0.00  0.00    +0.004 C 
ATOM     25  C   UNL     1       2.277  -3.998   4.529  0.00  0.00    -0.003 C 
ENDBRANCH  23  25
ENDBRANCH  22  23
ENDBRANCH  21  22
ENDBRANCH  18  21
ENDBRANCH  17  18
ENDBRANCH  16  17
ENDBRANCH   1  16
TORSDOF 9
