REMARK  Name = ZINC27564040
REMARK  9 active torsions:
REMARK  status: ('A' for Active; 'I' for Inactive)
REMARK    1  A    between atoms: C_1  and  C_2
REMARK    2  A    between atoms: C_2  and  N_3
REMARK    3  A    between atoms: N_3  and  C_4
REMARK    4  A    between atoms: N_3  and  C_16
REMARK    5  A    between atoms: C_4  and  C_5
REMARK    6  A    between atoms: N_7  and  C_8
REMARK    7  A    between atoms: C_16  and  C_17
REMARK    8  A    between atoms: N_22  and  C_23
REMARK    9  A    between atoms: C_23  and  C_24
REMARK                            x       y       z     vdW  Elec       q    Type
REMARK                         _______ _______ _______ _____ _____    ______ ____
ROOT
ATOM      1  N   UNL     1       5.894   1.751   1.396  0.00  0.00    +0.391 N 
ATOM      2  H   UNL     1       6.068   2.051   2.440  0.00  0.00    -0.080 HD
ENDROOT
BRANCH   1   4
ATOM      3  C   UNL     1       4.295   3.598   1.565  0.00  0.00    -0.017 C 
ATOM      4  C   UNL     1       5.334   2.906   0.681  0.00  0.00    -0.081 C 
ENDBRANCH   1   4
BRANCH   1   5
ATOM      5  C   UNL     1       7.184   1.350   0.820  0.00  0.00    +0.020 C 
BRANCH   5   6
ATOM      6  C   UNL     1       8.198   2.440   1.052  0.00  0.00    +0.201 C 
ATOM      7  O   UNL     1       7.877   3.452   1.639  0.00  0.00    -0.278 OA
ATOM      8  N   UNL     1       9.462   2.291   0.607  0.00  0.00    -0.285 N 
ATOM      9  H   UNL     1       9.768   1.351   0.125  0.00  0.00    +0.155 HD
BRANCH   8  10
ATOM     10  C   UNL     1      10.384   3.334   0.758  0.00  0.00    +0.070 A 
ATOM     11  C   UNL     1      10.002   4.645   0.504  0.00  0.00    +0.064 A 
ATOM     12  C   UNL     1      10.914   5.672   0.658  0.00  0.00    +0.022 A 
ATOM     13  C   UNL     1      12.209   5.394   1.056  0.00  0.00    +0.003 A 
ATOM     14  C   UNL     1      12.595   4.090   1.304  0.00  0.00    +0.022 A 
ATOM     15  C   UNL     1      11.687   3.059   1.157  0.00  0.00    +0.064 A 
ATOM     16 CL   UNL     1      12.172   1.421   1.469  0.00  0.00    -0.082 Cl
ATOM     17 CL   UNL     1       8.378   4.994  -0.001  0.00  0.00    -0.082 Cl
ENDBRANCH   8  10
ENDBRANCH   5   6
ENDBRANCH   1   5
BRANCH   1  18
ATOM     18  C   UNL     1       4.948   0.627   1.401  0.00  0.00    +0.020 C 
BRANCH  18  19
ATOM     19  C   UNL     1       5.302  -0.323   2.517  0.00  0.00    +0.204 C 
ATOM     20  O   UNL     1       6.296  -0.130   3.184  0.00  0.00    -0.277 OA
ATOM     21  N   UNL     1       4.514  -1.385   2.774  0.00  0.00    -0.242 N 
ATOM     22  C   UNL     1       4.831  -2.234   3.771  0.00  0.00    +0.306 C 
ATOM     23  O   UNL     1       5.827  -2.041   4.439  0.00  0.00    -0.252 OA
ATOM     24  N   UNL     1       4.042  -3.297   4.028  0.00  0.00    -0.294 N 
ATOM     25  H   UNL     1       3.612  -1.559   2.169  0.00  0.00    +0.159 HD
ATOM     26  H   UNL     1       3.143  -3.474   3.420  0.00  0.00    +0.151 HD
BRANCH  24  27
ATOM     27  C   UNL     1       4.383  -4.216   5.116  0.00  0.00    +0.148 C 
BRANCH  27  28
ATOM     28  C   UNL     1       3.346  -5.306   5.197  0.00  0.00    +0.007 A 
ATOM     29  C   UNL     1       3.319  -6.506   4.567  0.00  0.00    +0.013 A 
ATOM     30  C   UNL     1       2.256  -7.359   4.797  0.00  0.00    +0.008 A 
ATOM     31  C   UNL     1       1.267  -6.966   5.637  0.00  0.00    +0.045 A 
ATOM     32  S   UNL     1       1.831  -5.349   6.139  0.00  0.00    -0.100 S 
ENDBRANCH  27  28
ENDBRANCH  24  27
ENDBRANCH  18  19
ENDBRANCH   1  18
TORSDOF 8
