REMARK  Name = ZINC00138853
REMARK  7 active torsions:
REMARK  status: ('A' for Active; 'I' for Inactive)
REMARK    1  A    between atoms: C_1  and  C_2
REMARK    2  A    between atoms: C_3  and  C_21
REMARK    3  A    between atoms: C_7  and  N_8
REMARK    4  A    between atoms: C_9  and  C_11
REMARK    5  A    between atoms: C_15  and  O_17
REMARK    6  A    between atoms: O_17  and  C_18
REMARK    7  A    between atoms: C_18  and  C_20
REMARK                            x       y       z     vdW  Elec       q    Type
REMARK                         _______ _______ _______ _____ _____    ______ ____
ROOT
ATOM      1  N   UNL     1       0.692   6.327   0.697  0.00  0.00    -0.281 N 
ATOM      2  C   UNL     1      -0.574   5.872   0.776  0.00  0.00    +0.248 C 
ATOM      3  O   UNL     1      -1.502   6.658   0.795  0.00  0.00    -0.270 OA
ATOM      4  H   UNL     1       1.435   5.706   0.758  0.00  0.00    +0.155 HD
ENDROOT
BRANCH   1  11
ATOM      5  C   UNL     1       3.246   7.336   1.434  0.00  0.00    +0.046 C 
ATOM      6  C   UNL     1       2.167   8.227   0.874  0.00  0.00    -0.015 A 
ATOM      7  C   UNL     1       2.406   9.590   0.698  0.00  0.00    +0.068 A 
ATOM      8  C   UNL     1       1.399  10.410   0.184  0.00  0.00    +0.015 A 
ATOM      9  C   UNL     1       0.175   9.870  -0.153  0.00  0.00    +0.003 A 
ATOM     10  C   UNL     1      -0.060   8.519   0.017  0.00  0.00    +0.023 A 
ATOM     11  C   UNL     1       0.935   7.694   0.528  0.00  0.00    +0.037 A 
BRANCH   7  12
ATOM     12  C   UNL     1       3.718  10.165   1.059  0.00  0.00    +0.387 C 
ATOM     13  O   UNL     1       4.632   9.435   1.387  0.00  0.00    -0.241 OA
ATOM     14  O   UNL     1       3.901  11.500   1.025  0.00  0.00    -0.241 OA
ENDBRANCH   7  12
ENDBRANCH   1  11
BRANCH   2  15
ATOM     15  C   UNL     1      -0.835   4.419   0.839  0.00  0.00    +0.040 A 
ATOM     16  C   UNL     1       0.228   3.514   0.817  0.00  0.00    +0.013 A 
ATOM     17  C   UNL     1      -0.019   2.158   0.875  0.00  0.00    +0.004 A 
ATOM     18  C   UNL     1      -1.318   1.691   0.956  0.00  0.00    +0.046 A 
ATOM     19  C   UNL     1      -2.382   2.582   0.973  0.00  0.00    +0.132 A 
ATOM     20  C   UNL     1      -2.145   3.945   0.920  0.00  0.00    +0.059 A 
BRANCH  19  21
ATOM     21  O   UNL     1      -3.657   2.116   1.047  0.00  0.00    -0.426 OA
BRANCH  21  22
ATOM     22  C   UNL     1      -4.375   2.122  -0.088  0.00  0.00    +0.309 C 
ATOM     23  O   UNL     1      -3.858   2.455  -1.128  0.00  0.00    -0.251 OA
ATOM     24  C   UNL     1      -5.824   1.712  -0.064  0.00  0.00    +0.136 C 
ENDBRANCH  21  22
ENDBRANCH  19  21
ENDBRANCH   2  15
TORSDOF 5
