REMARK  Name = ZINC43527229
REMARK  8 active torsions:
REMARK  status: ('A' for Active; 'I' for Inactive)
REMARK    1  A    between atoms: C_1  and  C_2
REMARK    2  A    between atoms: C_2  and  C_4
REMARK    3  A    between atoms: C_7  and  N_10
REMARK    4  A    between atoms: N_13  and  C_14
REMARK    5  A    between atoms: C_14  and  C_15
REMARK    6  A    between atoms: C_24  and  C_26
REMARK    7  A    between atoms: C_26  and  N_27
REMARK    8  A    between atoms: N_30  and  C_33
REMARK                            x       y       z     vdW  Elec       q    Type
REMARK                         _______ _______ _______ _____ _____    ______ ____
ROOT
ATOM      1  C   UNL     1      -7.441  -6.347   0.142  0.00  0.00    -0.051 C 
ATOM      2  C   UNL     1      -7.289  -7.856  -0.058  0.00  0.00    -0.010 C 
ATOM      3  C   UNL     1      -8.118  -8.583   1.010  0.00  0.00    -0.012 C 
ATOM      4  C   UNL     1      -7.599  -8.166   2.392  0.00  0.00    -0.015 C 
ATOM      5  C   UNL     1      -7.721  -6.647   2.528  0.00  0.00    -0.078 C 
ATOM      6  N   UNL     1      -8.323  -6.080   1.281  0.00  0.00    +0.383 N 
ATOM      7  C   UNL     1      -9.659  -6.628   1.037  0.00  0.00    -0.073 C 
ATOM      8  C   UNL     1      -9.581  -8.144   0.867  0.00  0.00    -0.011 C 
ATOM      9  H   UNL     1      -8.410  -5.081   1.389  0.00  0.00    -0.081 HD
ENDROOT
BRANCH   1  10
ATOM     10  C   UNL     1      -6.067  -5.728   0.408  0.00  0.00    +0.090 C 
BRANCH  10  14
ATOM     11  N   UNL     1      -5.283  -2.239   1.260  0.00  0.00    -0.269 N 
ATOM     12  C   UNL     1      -5.139  -3.549   0.981  0.00  0.00    +0.304 C 
ATOM     13  O   UNL     1      -4.032  -4.051   0.972  0.00  0.00    -0.253 OA
ATOM     14  N   UNL     1      -6.223  -4.304   0.712  0.00  0.00    -0.301 N 
ATOM     15  H   UNL     1      -6.170  -1.855   1.343  0.00  0.00    +0.156 HD
ATOM     16  H   UNL     1      -7.107  -3.903   0.719  0.00  0.00    +0.150 HD
BRANCH  11  20
ATOM     17  C   UNL     1      -1.927   0.159   1.766  0.00  0.00    +0.017 A 
ATOM     18  C   UNL     1      -1.899  -0.906   0.856  0.00  0.00    +0.013 A 
ATOM     19  C   UNL     1      -3.005  -1.692   0.693  0.00  0.00    +0.024 A 
ATOM     20  C   UNL     1      -4.158  -1.435   1.430  0.00  0.00    +0.035 A 
ATOM     21  C   UNL     1      -4.190  -0.379   2.336  0.00  0.00    +0.024 A 
ATOM     22  C   UNL     1      -3.087   0.409   2.509  0.00  0.00    +0.013 A 
BRANCH  17  24
ATOM     23  C   UNL     1       0.507   0.734   1.144  0.00  0.00    +0.091 C 
ATOM     24  C   UNL     1      -0.741   1.006   1.945  0.00  0.00    +0.160 C 
ATOM     25  O   UNL     1      -0.765   1.924   2.737  0.00  0.00    -0.292 OA
ENDBRANCH  17  24
ENDBRANCH  11  20
ENDBRANCH  10  14
ENDBRANCH   1  10
BRANCH   8  26
ATOM     26  C   UNL     1     -10.428  -8.825   1.944  0.00  0.00    +0.086 C 
BRANCH  26  27
ATOM     27  N   UNL     1     -11.846  -8.509   1.725  0.00  0.00    -0.306 NA
ATOM     28  C   UNL     1     -12.631  -8.738   2.946  0.00  0.00    +0.066 C 
ATOM     29  C   UNL     1     -14.088  -8.341   2.694  0.00  0.00    -0.064 C 
ATOM     30  N   UNL     1     -14.628  -9.140   1.586  0.00  0.00    +0.379 N 
ATOM     31  C   UNL     1     -13.849  -8.882   0.368  0.00  0.00    -0.064 C 
ATOM     32  C   UNL     1     -12.390  -9.283   0.601  0.00  0.00    +0.066 C 
ATOM     33  C   UNL     1     -16.031  -8.772   1.356  0.00  0.00    -0.096 C 
ATOM     34  H   UNL     1     -14.572 -10.120   1.819  0.00  0.00    -0.082 HD
ENDBRANCH  26  27
ENDBRANCH   8  26
TORSDOF 6
