REMARK  Name = ZINC43260271
REMARK  10 active torsions:
REMARK  status: ('A' for Active; 'I' for Inactive)
REMARK    1  A    between atoms: C_1  and  C_2
REMARK    2  A    between atoms: C_2  and  C_3
REMARK    3  A    between atoms: C_3  and  C_5
REMARK    4  A    between atoms: C_3  and  N_23
REMARK    5  A    between atoms: C_5  and  C_7
REMARK    6  A    between atoms: C_5  and  N_13
REMARK    7  A    between atoms: N_13  and  C_14
REMARK    8  A    between atoms: N_13  and  C_15
REMARK    9  A    between atoms: C_15  and  C_16
REMARK   10  A    between atoms: C_21  and  C_22
REMARK                            x       y       z     vdW  Elec       q    Type
REMARK                         _______ _______ _______ _____ _____    ______ ____
ROOT
ATOM      1  C   UNL     1       0.849  -2.287  -1.045  0.00  0.00    -0.014 C 
ENDROOT
BRANCH   1   2
ATOM      2  C   UNL     1      -0.272  -3.279  -1.221  0.00  0.00    -0.021 A 
ATOM      3  C   UNL     1      -0.713  -3.876  -2.356  0.00  0.00    +0.011 A 
ATOM      4  C   UNL     1      -1.769  -4.765  -2.279  0.00  0.00    +0.023 A 
ATOM      5  C   UNL     1      -2.332  -5.013  -1.070  0.00  0.00    +0.055 A 
ATOM      6  S   UNL     1      -1.356  -3.980   0.011  0.00  0.00    -0.088 S 
ATOM      7 BR   UNL     1      -3.771  -6.162  -0.640  0.00  0.00    -0.043 Br
ENDBRANCH   1   2
BRANCH   1   8
ATOM      8  N   UNL     1       1.595  -2.603   0.180  0.00  0.00    +0.386 N 
ATOM      9  C   UNL     1       2.092  -3.983   0.107  0.00  0.00    -0.095 C 
ATOM     10  H   UNL     1       0.987  -2.506   0.979  0.00  0.00    -0.081 HD
BRANCH   8  11
ATOM     11  C   UNL     1       2.730  -1.680   0.314  0.00  0.00    -0.042 C 
BRANCH  11  12
ATOM     12  C   UNL     1       3.438  -1.940   1.618  0.00  0.00    -0.061 A 
ATOM     13  C   UNL     1       4.621  -2.656   1.631  0.00  0.00    +0.002 A 
ATOM     14  C   UNL     1       5.271  -2.895   2.828  0.00  0.00    +0.000 A 
ATOM     15  C   UNL     1       4.738  -2.418   4.011  0.00  0.00    +0.000 A 
ATOM     16  C   UNL     1       3.556  -1.702   3.998  0.00  0.00    +0.003 A 
ATOM     17  C   UNL     1       2.909  -1.459   2.800  0.00  0.00    -0.049 A 
ATOM     18  C   UNL     1       1.623  -0.673   2.785  0.00  0.00    +0.044 C 
ENDBRANCH  11  12
ENDBRANCH   8  11
ENDBRANCH   1   8
BRANCH   1  19
ATOM     19  C   UNL     1       0.267  -0.875  -0.938  0.00  0.00    +0.042 C 
BRANCH  19  20
ATOM     20  N   UNL     1      -0.512  -0.574  -2.146  0.00  0.00    -0.328 NA
ATOM     21  H   UNL     1      -1.271  -1.229  -2.260  0.00  0.00    +0.118 HD
ATOM     22  H   UNL     1      -0.853   0.376  -2.129  0.00  0.00    +0.118 HD
ENDBRANCH  19  20
BRANCH  19  24
ATOM     23  C   UNL     1      -1.188   0.633   0.422  0.00  0.00    +0.005 C 
ATOM     24  C   UNL     1      -0.642  -0.790   0.290  0.00  0.00    +0.014 C 
ENDBRANCH  19  24
ENDBRANCH   1  19
TORSDOF 7
