REMARK  Name = ZINC08945095
REMARK  9 active torsions:
REMARK  status: ('A' for Active; 'I' for Inactive)
REMARK    1  A    between atoms: C_1  and  C_2
REMARK    2  A    between atoms: C_2  and  C_4
REMARK    3  A    between atoms: C_2  and  N_61
REMARK    4  A    between atoms: N_6  and  C_7
REMARK    5  A    between atoms: C_7  and  C_8
REMARK    6  A    between atoms: C_8  and  C_9
REMARK    7  A    between atoms: C_12  and  S_15
REMARK    8  A    between atoms: S_15  and  N_18
REMARK    9  A    between atoms: C_22  and  C_24
REMARK                            x       y       z     vdW  Elec       q    Type
REMARK                         _______ _______ _______ _____ _____    ______ ____
ROOT
ATOM      1  C   UNL     1      -0.421  -2.539   1.302  0.00  0.00    -0.004 C 
ATOM      2  C   UNL     1      -1.241  -1.913   0.171  0.00  0.00    +0.017 C 
ENDROOT
BRANCH   2   7
ATOM      3  C   UNL     1      -2.488  -3.997   0.182  0.00  0.00    -0.077 C 
ATOM      4  C   UNL     1      -3.678  -4.491  -0.677  0.00  0.00    -0.020 C 
ATOM      5  C   UNL     1      -3.707  -3.431  -1.810  0.00  0.00    -0.013 C 
ATOM      6  C   UNL     1      -3.307  -2.131  -1.080  0.00  0.00    -0.037 C 
ATOM      7  N   UNL     1      -2.594  -2.527   0.147  0.00  0.00    +0.392 N 
ATOM      8  H   UNL     1      -3.123  -2.205   0.967  0.00  0.00    -0.080 HD
BRANCH   6   9
ATOM      9  C   UNL     1      -2.418  -1.296  -1.965  0.00  0.00    -0.057 A 
ATOM     10  C   UNL     1      -2.632   0.066  -2.069  0.00  0.00    +0.006 A 
ATOM     11  C   UNL     1      -1.819   0.836  -2.879  0.00  0.00    +0.049 A 
ATOM     12  C   UNL     1      -0.786   0.243  -3.591  0.00  0.00    +0.162 A 
ATOM     13  C   UNL     1      -0.569  -1.125  -3.484  0.00  0.00    +0.162 A 
ATOM     14  C   UNL     1      -1.386  -1.891  -2.665  0.00  0.00    +0.051 A 
ATOM     15  O   UNL     1       0.442  -1.726  -4.170  0.00  0.00    -0.485 OA
ATOM     16  C   UNL     1       1.002  -0.992  -5.264  0.00  0.00    +0.270 C 
ATOM     17  C   UNL     1       1.253   0.448  -4.797  0.00  0.00    +0.270 C 
ATOM     18  O   UNL     1       0.002   1.013  -4.391  0.00  0.00    -0.485 OA
ENDBRANCH   6   9
ENDBRANCH   2   7
BRANCH   2  19
ATOM     19  C   UNL     1      -1.370  -0.430   0.406  0.00  0.00    +0.199 C 
ATOM     20  O   UNL     1      -2.468   0.070   0.535  0.00  0.00    -0.278 OA
ATOM     21  N   UNL     1      -0.267   0.341   0.474  0.00  0.00    -0.316 N 
ATOM     22  H   UNL     1       0.611  -0.059   0.371  0.00  0.00    +0.149 HD
BRANCH  21  23
ATOM     23  C   UNL     1      -0.393   1.782   0.703  0.00  0.00    +0.109 C 
BRANCH  23  24
ATOM     24  C   UNL     1       0.999   2.417   0.736  0.00  0.00    +0.054 C 
BRANCH  24  25
ATOM     25  C   UNL     1       0.870   3.900   0.971  0.00  0.00    -0.046 A 
ATOM     26  C   UNL     1       0.761   4.763  -0.103  0.00  0.00    +0.005 A 
ATOM     27  C   UNL     1       0.637   6.123   0.113  0.00  0.00    +0.029 A 
ATOM     28  C   UNL     1       0.632   6.620   1.403  0.00  0.00    +0.105 A 
ATOM     29  C   UNL     1       0.746   5.758   2.477  0.00  0.00    +0.029 A 
ATOM     30  C   UNL     1       0.865   4.397   2.261  0.00  0.00    +0.005 A 
BRANCH  28  31
ATOM     31  S   UNL     1       0.479   8.354   1.678  0.00  0.00    +0.056 S 
ATOM     32  O   UNL     1      -0.161   8.893   0.529  0.00  0.00    -0.153 OA
ATOM     33  O   UNL     1      -0.048   8.512   2.988  0.00  0.00    -0.153 OA
BRANCH  31  34
ATOM     34  N   UNL     1       2.011   8.982   1.704  0.00  0.00    -0.204 NA
ATOM     35  H   UNL     1       2.777   8.400   1.579  0.00  0.00    +0.144 HD
ATOM     36  H   UNL     1       2.143   9.933   1.845  0.00  0.00    +0.144 HD
ENDBRANCH  31  34
ENDBRANCH  28  31
ENDBRANCH  24  25
ENDBRANCH  23  24
ENDBRANCH  21  23
ENDBRANCH   2  19
TORSDOF 8
