REMARK  Name = ZINC36954811
REMARK  6 active torsions:
REMARK  status: ('A' for Active; 'I' for Inactive)
REMARK    1  A    between atoms: C_1  and  C_2
REMARK    2  A    between atoms: C_2  and  C_4
REMARK    3  A    between atoms: C_2  and  N_14
REMARK    4  A    between atoms: C_7  and  S_10
REMARK    5  A    between atoms: S_10  and  N_13
REMARK    6  A    between atoms: N_14  and  C_15
REMARK                            x       y       z     vdW  Elec       q    Type
REMARK                         _______ _______ _______ _____ _____    ______ ____
ROOT
ATOM      1  C   UNL     1       0.826  -0.295  -1.247  0.00  0.00    -0.009 C 
ATOM      2  C   UNL     1      -0.069  -0.138  -0.016  0.00  0.00    -0.044 C 
ENDROOT
BRANCH   2   3
ATOM      3  C   UNL     1      -1.317  -0.963  -0.194  0.00  0.00    -0.062 A 
ATOM      4  C   UNL     1      -1.288  -2.323   0.051  0.00  0.00    +0.004 A 
ATOM      5  C   UNL     1      -2.433  -3.080  -0.112  0.00  0.00    +0.029 A 
ATOM      6  C   UNL     1      -3.608  -2.476  -0.519  0.00  0.00    +0.105 A 
ATOM      7  C   UNL     1      -3.638  -1.116  -0.762  0.00  0.00    +0.029 A 
ATOM      8  C   UNL     1      -2.494  -0.358  -0.596  0.00  0.00    +0.004 A 
BRANCH   6   9
ATOM      9  S   UNL     1      -5.067  -3.441  -0.727  0.00  0.00    +0.056 S 
ATOM     10  O   UNL     1      -5.895  -2.733  -1.640  0.00  0.00    -0.153 OA
ATOM     11  O   UNL     1      -4.642  -4.776  -0.963  0.00  0.00    -0.153 OA
BRANCH   9  12
ATOM     12  N   UNL     1      -5.862  -3.448   0.726  0.00  0.00    -0.204 NA
ATOM     13  H   UNL     1      -6.829  -3.521   0.749  0.00  0.00    +0.144 HD
ATOM     14  H   UNL     1      -5.361  -3.378   1.553  0.00  0.00    +0.144 HD
ENDBRANCH   9  12
ENDBRANCH   6   9
ENDBRANCH   2   3
BRANCH   2  15
ATOM     15  N   UNL     1       0.655  -0.596   1.177  0.00  0.00    +0.385 N 
ATOM     16  H   UNL     1       0.832  -1.587   1.103  0.00  0.00    -0.085 HD
ATOM     17  H   UNL     1       1.533  -0.103   1.248  0.00  0.00    -0.085 HD
BRANCH  15  18
ATOM     18  C   UNL     1      -0.154  -0.330   2.373  0.00  0.00    -0.071 C 
ATOM     19  C   UNL     1      -0.289   1.181   2.572  0.00  0.00    -0.016 C 
ATOM     20  C   UNL     1      -1.430   1.466   3.551  0.00  0.00    -0.002 C 
ATOM     21  C   UNL     1      -2.633   0.586   3.204  0.00  0.00    -0.000 C 
ATOM     22  C   UNL     1      -2.863  -0.428   4.326  0.00  0.00    -0.000 C 
ATOM     23  C   UNL     1      -1.817  -1.541   4.229  0.00  0.00    -0.000 C 
ATOM     24  C   UNL     1      -0.475  -1.026   4.751  0.00  0.00    -0.002 C 
ATOM     25  C   UNL     1       0.526  -0.947   3.597  0.00  0.00    -0.016 C 
ENDBRANCH  15  18
ENDBRANCH   2  15
TORSDOF 5
