REMARK  Name = ZINC14184977
REMARK  10 active torsions:
REMARK  status: ('A' for Active; 'I' for Inactive)
REMARK    1  A    between atoms: C_1  and  O_2
REMARK    2  A    between atoms: O_2  and  C_3
REMARK    3  A    between atoms: C_7  and  N_9
REMARK    4  A    between atoms: C_10  and  C_12
REMARK    5  A    between atoms: C_12  and  C_14
REMARK    6  A    between atoms: C_12  and  N_65
REMARK    7  A    between atoms: C_20  and  C_21
REMARK    8  A    between atoms: C_20  and  N_65
REMARK    9  A    between atoms: C_24  and  S_27
REMARK   10  A    between atoms: S_27  and  N_30
REMARK                            x       y       z     vdW  Elec       q    Type
REMARK                         _______ _______ _______ _____ _____    ______ ____
ROOT
ATOM      1  C   UNL     1      -1.492   2.118  -0.003  0.00  0.00    +0.048 C 
ENDROOT
BRANCH   1   2
ATOM      2  C   UNL     1      -0.089   1.570  -0.056  0.00  0.00    -0.053 A 
ATOM      3  C   UNL     1       0.988   2.434  -0.124  0.00  0.00    +0.002 A 
ATOM      4  C   UNL     1       2.275   1.932  -0.180  0.00  0.00    +0.000 A 
ATOM      5  C   UNL     1       2.484   0.566  -0.165  0.00  0.00    +0.000 A 
ATOM      6  C   UNL     1       1.407  -0.298  -0.096  0.00  0.00    +0.000 A 
ATOM      7  C   UNL     1       0.121   0.204  -0.042  0.00  0.00    +0.002 A 
ENDBRANCH   1   2
BRANCH   1   9
ATOM      8  N   UNL     1      -1.770   1.659   2.412  0.00  0.00    -0.286 N 
ATOM      9  C   UNL     1      -1.809   2.554   1.404  0.00  0.00    +0.207 C 
ATOM     10  O   UNL     1      -2.098   3.710   1.630  0.00  0.00    -0.277 OA
ATOM     11  H   UNL     1      -1.614   0.721   2.221  0.00  0.00    +0.155 HD
BRANCH   8  16
ATOM     12  C   UNL     1      -1.692   3.754   5.436  0.00  0.00    +0.122 A 
ATOM     13  C   UNL     1      -2.323   2.919   6.348  0.00  0.00    +0.046 A 
ATOM     14  C   UNL     1      -2.767   1.672   5.952  0.00  0.00    +0.005 A 
ATOM     15  C   UNL     1      -2.585   1.253   4.648  0.00  0.00    +0.023 A 
ATOM     16  C   UNL     1      -1.955   2.084   3.732  0.00  0.00    +0.037 A 
ATOM     17  C   UNL     1      -1.503   3.335   4.129  0.00  0.00    +0.069 A 
BRANCH  12  19
ATOM     18  C   UNL     1      -1.479   5.345   7.191  0.00  0.00    +0.277 C 
ATOM     19  O   UNL     1      -1.255   4.981   5.827  0.00  0.00    -0.495 OA
ENDBRANCH  12  19
ENDBRANCH   8  16
ENDBRANCH   1   9
BRANCH   1  20
ATOM     20  N   UNL     1      -1.602   3.279  -0.906  0.00  0.00    +0.392 N 
ATOM     21  H   UNL     1      -0.716   3.799  -0.899  0.00  0.00    -0.084 HD
ATOM     22  H   UNL     1      -2.360   3.890  -0.581  0.00  0.00    -0.084 HD
BRANCH  20  23
ATOM     23  C   UNL     1      -1.892   2.832  -2.282  0.00  0.00    -0.045 C 
BRANCH  23  24
ATOM     24  C   UNL     1      -1.999   4.037  -3.180  0.00  0.00    -0.064 A 
ATOM     25  C   UNL     1      -3.222   4.652  -3.370  0.00  0.00    +0.003 A 
ATOM     26  C   UNL     1      -3.319   5.760  -4.191  0.00  0.00    +0.029 A 
ATOM     27  C   UNL     1      -2.194   6.248  -4.829  0.00  0.00    +0.105 A 
ATOM     28  C   UNL     1      -0.972   5.631  -4.643  0.00  0.00    +0.029 A 
ATOM     29  C   UNL     1      -0.874   4.525  -3.819  0.00  0.00    +0.003 A 
BRANCH  27  30
ATOM     30  S   UNL     1      -2.318   7.658  -5.879  0.00  0.00    +0.061 S 
ATOM     31  O   UNL     1      -3.467   8.380  -5.455  0.00  0.00    -0.153 OA
ATOM     32  O   UNL     1      -1.025   8.245  -5.926  0.00  0.00    -0.153 OA
BRANCH  30  33
ATOM     33  N   UNL     1      -2.643   7.104  -7.405  0.00  0.00    -0.177 NA
ATOM     34  C   UNL     1      -1.550   6.791  -8.336  0.00  0.00    +0.109 C 
ATOM     35  C   UNL     1      -1.743   5.357  -8.851  0.00  0.00    +0.017 C 
ATOM     36  C   UNL     1      -3.142   5.222  -9.457  0.00  0.00    +0.003 C 
ATOM     37  C   UNL     1      -4.194   5.492  -8.379  0.00  0.00    +0.017 C 
ATOM     38  C   UNL     1      -4.029   6.923  -7.856  0.00  0.00    +0.109 C 
ENDBRANCH  30  33
ENDBRANCH  27  30
ENDBRANCH  23  24
ENDBRANCH  20  23
ENDBRANCH   1  20
TORSDOF 9
