REMARK  Name = ZINC14651314
REMARK  8 active torsions:
REMARK  status: ('A' for Active; 'I' for Inactive)
REMARK    1  A    between atoms: C_4  and  N_13
REMARK    2  A    between atoms: C_5  and  C_7
REMARK    3  A    between atoms: N_9  and  C_10
REMARK    4  A    between atoms: C_10  and  C_11
REMARK    5  A    between atoms: C_11  and  O_12
REMARK    6  A    between atoms: N_13  and  C_14
REMARK    7  A    between atoms: C_14  and  N_16
REMARK    8  A    between atoms: C_17  and  C_19
REMARK                            x       y       z     vdW  Elec       q    Type
REMARK                         _______ _______ _______ _____ _____    ______ ____
ROOT
ATOM      1  N   UNL     1      -3.703   2.932   0.248  0.00  0.00    -0.296 N 
ATOM      2  H   UNL     1      -3.048   3.469  -0.224  0.00  0.00    +0.154 HD
ENDROOT
BRANCH   1   6
ATOM      3  C   UNL     1      -3.634  -1.222  -0.098  0.00  0.00    +0.001 A 
ATOM      4  C   UNL     1      -4.833  -0.533  -0.191  0.00  0.00    +0.002 A 
ATOM      5  C   UNL     1      -4.859   0.842  -0.077  0.00  0.00    +0.024 A 
ATOM      6  C   UNL     1      -3.679   1.545   0.132  0.00  0.00    +0.045 A 
ATOM      7  C   UNL     1      -2.464   0.851   0.227  0.00  0.00    +0.058 A 
ATOM      8  C   UNL     1      -2.454  -0.541   0.104  0.00  0.00    +0.015 A 
BRANCH   7   9
ATOM      9  C   UNL     1      -1.205   1.586   0.448  0.00  0.00    +0.246 C 
ATOM     10  O   UNL     1      -1.204   2.802   0.459  0.00  0.00    -0.270 OA
ATOM     11  N   UNL     1      -0.054   0.910   0.638  0.00  0.00    -0.309 N 
ATOM     12  H   UNL     1      -0.055  -0.060   0.629  0.00  0.00    +0.149 HD
BRANCH  11  13
ATOM     13  C   UNL     1       1.198   1.640   0.852  0.00  0.00    +0.132 C 
BRANCH  13  14
ATOM     14  C   UNL     1       2.344   0.643   1.033  0.00  0.00    +0.174 C 
BRANCH  14  15
ATOM     15  O   UNL     1       2.536  -0.088  -0.180  0.00  0.00    -0.393 OA
ATOM     16  H   UNL     1       3.249  -0.740  -0.138  0.00  0.00    +0.209 HD
ENDBRANCH  14  15
ENDBRANCH  13  14
ENDBRANCH  11  13
ENDBRANCH   7   9
ENDBRANCH   1   6
BRANCH   1  17
ATOM     17  C   UNL     1      -4.637   3.529   1.015  0.00  0.00    +0.141 C 
ATOM     18  S   UNL     1      -5.711   2.578   1.950  0.00  0.00    -0.018 S 
BRANCH  17  19
ATOM     19  N   UNL     1      -4.725   4.873   1.046  0.00  0.00    -0.264 N 
ATOM     20  C   UNL     1      -5.659   5.469   1.813  0.00  0.00    +0.251 C 
ATOM     21  O   UNL     1      -6.422   4.795   2.477  0.00  0.00    -0.270 OA
ATOM     22  H   UNL     1      -4.117   5.411   0.516  0.00  0.00    +0.157 HD
BRANCH  20  23
ATOM     23  C   UNL     1      -5.756   6.943   1.848  0.00  0.00    +0.050 A 
ATOM     24  C   UNL     1      -4.878   7.721   1.091  0.00  0.00    +0.014 A 
ATOM     25  C   UNL     1      -4.977   9.097   1.124  0.00  0.00    +0.001 A 
ATOM     26  C   UNL     1      -5.937   9.706   1.912  0.00  0.00    +0.001 A 
ATOM     27  C   UNL     1      -6.807   8.942   2.669  0.00  0.00    +0.015 A 
ATOM     28  C   UNL     1      -6.723   7.564   2.642  0.00  0.00    +0.025 A 
ATOM     29  I   UNL     1      -8.040   6.409   3.789  0.00  0.00    -0.043 I 
ENDBRANCH  20  23
ENDBRANCH  17  19
ENDBRANCH   1  17
TORSDOF 8
