REMARK  Name = ZINC63633429
REMARK  5 active torsions:
REMARK  status: ('A' for Active; 'I' for Inactive)
REMARK    1  A    between atoms: C_1  and  C_2
REMARK    2  A    between atoms: C_8  and  C_28
REMARK    3  A    between atoms: N_16  and  C_17
REMARK    4  A    between atoms: C_17  and  C_18
REMARK    5  A    between atoms: C_18  and  C_19
REMARK                            x       y       z     vdW  Elec       q    Type
REMARK                         _______ _______ _______ _____ _____    ______ ____
ROOT
ATOM      1  C   UNL     1      -0.019   1.526   0.010  0.00  0.00    +0.024 C 
ATOM      2  C   UNL     1       0.002  -0.004   0.002  0.00  0.00    +0.062 C 
ATOM      3  C   UNL     1       0.732  -0.505  -1.252  0.00  0.00    +0.114 C 
ATOM      4  C   UNL     1       0.802  -2.009  -1.174  0.00  0.00    +0.221 C 
ATOM      5  O   UNL     1       0.912  -2.658  -2.193  0.00  0.00    -0.275 OA
ATOM      6  N   UNL     1       0.743  -2.638   0.008  0.00  0.00    -0.247 N 
ATOM      7  C   UNL     1       0.675  -4.110   0.043  0.00  0.00    +0.203 C 
ATOM      8  N   UNL     1      -0.333  -4.521   1.018  0.00  0.00    -0.233 NA
ATOM      9  C   UNL     1      -0.829  -3.730   1.912  0.00  0.00    +0.180 C 
ATOM     10  N   UNL     1      -0.475  -2.405   2.015  0.00  0.00    -0.286 N 
ATOM     11  C   UNL     1       0.724  -1.944   1.295  0.00  0.00    +0.239 C 
ATOM     12  N   UNL     1       0.722  -0.495   1.181  0.00  0.00    -0.280 NA
ATOM     13  N   UNL     1      -1.752  -4.234   2.798  0.00  0.00    -0.317 N 
ATOM     14  H   UNL     1      -1.001  -1.789   2.549  0.00  0.00    +0.152 HD
ATOM     15  H   UNL     1      -2.137  -3.659   3.477  0.00  0.00    +0.149 HD
ATOM     16  H   UNL     1       1.662  -0.129   1.210  0.00  0.00    +0.125 HD
ENDROOT
BRANCH   7  17
ATOM     17  C   UNL     1       2.038  -4.676   0.446  0.00  0.00    +0.036 C 
ATOM     18  C   UNL     1       3.097  -4.249  -0.579  0.00  0.00    +0.011 C 
ATOM     19  C   UNL     1       4.472  -4.674  -0.060  0.00  0.00    +0.027 C 
ATOM     20  C   UNL     1       4.442  -6.113   0.366  0.00  0.00    -0.031 C 
ATOM     21  C   UNL     1       3.356  -6.777   0.599  0.00  0.00    -0.031 C 
ATOM     22  C   UNL     1       1.973  -6.204   0.473  0.00  0.00    +0.034 C 
ENDBRANCH   7  17
BRANCH  13  23
ATOM     23  C   UNL     1      -2.152  -5.641   2.716  0.00  0.00    +0.108 C 
BRANCH  23  24
ATOM     24  C   UNL     1      -3.181  -5.943   3.807  0.00  0.00    +0.052 C 
BRANCH  24  25
ATOM     25  C   UNL     1      -3.593  -7.390   3.723  0.00  0.00    -0.040 C 
ATOM     26  C   UNL     1      -3.083  -8.423   4.431  0.00  0.00    -0.001 A 
ATOM     27  C   UNL     1      -2.031  -8.506   5.451  0.00  0.00    +0.010 A 
ATOM     28  C   UNL     1      -1.734  -9.710   5.990  0.00  0.00    +0.001 A 
ATOM     29  C   UNL     1      -2.404 -10.878   5.600  0.00  0.00    +0.002 A 
ATOM     30  C   UNL     1      -3.382 -10.882   4.670  0.00  0.00    +0.026 A 
ATOM     31  C   UNL     1      -3.776  -9.671   4.037  0.00  0.00    +0.043 A 
ATOM     32  N   UNL     1      -4.679  -9.418   3.121  0.00  0.00    -0.380 N 
ATOM     33  C   UNL     1      -4.666  -7.979   2.835  0.00  0.00    +0.144 C 
ATOM     34  H   UNL     1      -5.262 -10.073   2.705  0.00  0.00    +0.160 HD
ENDBRANCH  24  25
ENDBRANCH  23  24
ENDBRANCH  13  23
TORSDOF 4
