REMARK  Name = ZINC19345593
REMARK  6 active torsions:
REMARK  status: ('A' for Active; 'I' for Inactive)
REMARK    1  A    between atoms: C_6  and  C_7
REMARK    2  A    between atoms: C_7  and  C_9
REMARK    3  A    between atoms: C_7  and  O_28
REMARK    4  A    between atoms: C_9  and  N_10
REMARK    5  A    between atoms: C_17  and  O_27
REMARK    6  A    between atoms: C_21  and  O_26
REMARK                            x       y       z     vdW  Elec       q    Type
REMARK                         _______ _______ _______ _____ _____    ______ ____
ROOT
ATOM      1  N   UNL     1      -4.619  -0.120  -1.749  0.00  0.00    +0.382 N 
ATOM      2  C   UNL     1      -4.141  -0.503  -0.415  0.00  0.00    -0.075 C 
ATOM      3  C   UNL     1      -2.636  -0.239  -0.314  0.00  0.00    +0.029 C 
ATOM      4  C   UNL     1      -2.364   1.244  -0.572  0.00  0.00    +0.110 C 
ATOM      5  C   UNL     1      -2.917   1.632  -1.945  0.00  0.00    +0.029 C 
ATOM      6  C   UNL     1      -4.414   1.314  -1.995  0.00  0.00    -0.075 C 
ATOM      7  C   UNL     1      -0.855   1.501  -0.539  0.00  0.00    +0.084 C 
ATOM      8  C   UNL     1      -0.310   1.010   0.805  0.00  0.00    +0.152 C 
ATOM      9  C   UNL     1      -1.171   1.540   1.924  0.00  0.00    +0.026 A 
ATOM     10  C   UNL     1      -0.658   1.548   3.211  0.00  0.00    +0.055 A 
ATOM     11  C   UNL     1      -1.422   2.026   4.263  0.00  0.00    +0.117 A 
ATOM     12  C   UNL     1      -2.705   2.496   4.028  0.00  0.00    +0.049 A 
ATOM     13  C   UNL     1      -3.216   2.489   2.747  0.00  0.00    +0.049 A 
ATOM     14  C   UNL     1      -2.449   2.012   1.688  0.00  0.00    +0.127 A 
ATOM     15  O   UNL     1      -2.986   2.035   0.439  0.00  0.00    -0.485 OA
ATOM     16  H   UNL     1      -4.025  -0.675  -2.490  0.00  0.00    -0.082 HD
ENDROOT
BRANCH  11  17
ATOM     17  O   UNL     1      -0.914   2.032   5.525  0.00  0.00    -0.507 OA
ATOM     18  H   UNL     1      -1.521   2.412   6.360  0.00  0.00    +0.292 HD
ENDBRANCH  11  17
BRANCH   8  19
ATOM     19  O   UNL     1       1.030   1.476   0.974  0.00  0.00    -0.387 OA
ATOM     20  H   UNL     1       1.590   1.222   1.886  0.00  0.00    +0.210 HD
ENDBRANCH   8  19
BRANCH   1  21
ATOM     21  C   UNL     1      -6.029  -0.488  -1.929  0.00  0.00    -0.042 C 
BRANCH  21  22
ATOM     22  C   UNL     1      -6.136  -1.997  -2.161  0.00  0.00    +0.128 C 
BRANCH  22  28
ATOM     23  C   UNL     1      -8.239  -2.280  -3.486  0.00  0.00    +0.010 A 
ATOM     24  C   UNL     1      -9.570  -2.641  -3.596  0.00  0.00    +0.050 A 
ATOM     25  C   UNL     1     -10.252  -3.099  -2.482  0.00  0.00    +0.162 A 
ATOM     26  C   UNL     1      -9.600  -3.200  -1.261  0.00  0.00    +0.162 A 
ATOM     27  C   UNL     1      -8.266  -2.843  -1.155  0.00  0.00    +0.055 A 
ATOM     28  C   UNL     1      -7.588  -2.386  -2.272  0.00  0.00    -0.017 A 
ATOM     29  O   UNL     1     -10.280  -3.653  -0.168  0.00  0.00    -0.488 OA
ATOM     30  C   UNL     1     -11.305  -2.790   0.332  0.00  0.00    +0.232 C 
ATOM     31  C   UNL     1     -12.605  -3.001  -0.427  0.00  0.00    +0.082 C 
ATOM     32  C   UNL     1     -12.492  -2.606  -1.891  0.00  0.00    +0.232 C 
ATOM     33  O   UNL     1     -11.567  -3.453  -2.575  0.00  0.00    -0.488 OA
ENDBRANCH  22  28
BRANCH  22  34
ATOM     34  O   UNL     1      -5.457  -2.342  -3.370  0.00  0.00    -0.389 OA
ATOM     35  H   UNL     1      -4.383  -2.133  -3.476  0.00  0.00    +0.210 HD
ENDBRANCH  22  34
ENDBRANCH  21  22
ENDBRANCH   1  21
TORSDOF 6
