REMARK  Name = ZINC63781088
REMARK  6 active torsions:
REMARK  status: ('A' for Active; 'I' for Inactive)
REMARK    1  A    between atoms: C_1  and  C_2
REMARK    2  A    between atoms: C_2  and  C_3
REMARK    3  A    between atoms: C_2  and  C_4
REMARK    4  A    between atoms: N_9  and  C_10
REMARK    5  A    between atoms: C_10  and  C_12
REMARK    6  A    between atoms: N_17  and  C_19
REMARK                            x       y       z     vdW  Elec       q    Type
REMARK                         _______ _______ _______ _____ _____    ______ ____
ROOT
ATOM      1  C   UNL     1      -3.743  -4.590  -4.213  0.00  0.00    +0.103 C 
ATOM      2  C   UNL     1      -2.515  -5.394  -4.700  0.00  0.00    +0.110 C 
ATOM      3  C   UNL     1      -2.921  -5.900  -6.066  0.00  0.00    +0.221 C 
ATOM      4  O   UNL     1      -2.366  -6.794  -6.669  0.00  0.00    -0.275 OA
ATOM      5  N   UNL     1      -3.987  -5.215  -6.515  0.00  0.00    -0.271 N 
ATOM      6  C   UNL     1      -4.411  -4.195  -5.548  0.00  0.00    +0.127 C 
ENDROOT
BRANCH   5   7
ATOM      7  C   UNL     1      -4.613  -5.446  -7.745  0.00  0.00    +0.036 A 
ATOM      8  C   UNL     1      -4.072  -6.358  -8.641  0.00  0.00    +0.024 A 
ATOM      9  C   UNL     1      -4.692  -6.584  -9.854  0.00  0.00    +0.017 A 
ATOM     10  C   UNL     1      -5.852  -5.902 -10.177  0.00  0.00    +0.018 A 
ATOM     11  C   UNL     1      -6.393  -4.992  -9.286  0.00  0.00    +0.017 A 
ATOM     12  C   UNL     1      -5.780  -4.767  -8.070  0.00  0.00    +0.024 A 
ATOM     13 BR   UNL     1      -6.697  -6.213 -11.840  0.00  0.00    -0.050 Br
ENDBRANCH   5   7
BRANCH   1  14
ATOM     14  C   UNL     1      -3.316  -3.368  -3.441  0.00  0.00    +0.243 C 
ATOM     15  O   UNL     1      -3.567  -2.260  -3.870  0.00  0.00    -0.273 OA
BRANCH  14  20
ATOM     16  C   UNL     1      -1.397  -0.526  -0.007  0.00  0.00    +0.195 C 
ATOM     17  N   UNL     1      -2.107  -0.174  -1.260  0.00  0.00    -0.170 NA
ATOM     18  N   UNL     1      -2.480  -1.113  -1.932  0.00  0.00    -0.129 NA
ATOM     19  C   UNL     1      -2.286  -2.430  -1.607  0.00  0.00    +0.203 C 
ATOM     20  N   UNL     1      -2.661  -3.504  -2.285  0.00  0.00    -0.153 NA
ATOM     21  S   UNL     1      -1.457  -2.362  -0.137  0.00  0.00    -0.058 S 
BRANCH  16  23
ATOM     22  C   UNL     1       0.040   1.518  -0.018  0.00  0.00    +0.010 C 
ATOM     23  C   UNL     1       0.044  -0.011  -0.018  0.00  0.00    +0.020 C 
ATOM     24  C   UNL     1       0.777  -0.519   1.226  0.00  0.00    +0.010 C 
ENDBRANCH  16  23
ENDBRANCH  14  20
ENDBRANCH   1  14
TORSDOF 4
