REMARK  Name = ZINC12289759
REMARK  8 active torsions:
REMARK  status: ('A' for Active; 'I' for Inactive)
REMARK    1  A    between atoms: C_4  and  C_7
REMARK    2  A    between atoms: N_9  and  C_10
REMARK    3  A    between atoms: C_13  and  C_16
REMARK    4  A    between atoms: N_18  and  N_19
REMARK    5  A    between atoms: N_19  and  C_20
REMARK    6  A    between atoms: C_20  and  N_22
REMARK    7  A    between atoms: C_23  and  C_25
REMARK    8  A    between atoms: C_26  and  C_27
REMARK                            x       y       z     vdW  Elec       q    Type
REMARK                         _______ _______ _______ _____ _____    ______ ____
ROOT
ATOM      1  C   UNL     1      -0.020   1.203  -0.014  0.00  0.00    +0.260 C 
ATOM      2  O   UNL     1      -0.001  -0.001  -0.182  0.00  0.00    -0.269 OA
ATOM      3  N   UNL     1       1.135   1.878   0.153  0.00  0.00    -0.231 N 
ATOM      4  H   UNL     1       1.120   2.838   0.287  0.00  0.00    +0.173 HD
ENDROOT
BRANCH   1   8
ATOM      5  C   UNL     1      -3.722   3.283   0.032  0.00  0.00    +0.034 A 
ATOM      6  C   UNL     1      -3.702   1.905  -0.161  0.00  0.00    +0.024 A 
ATOM      7  C   UNL     1      -2.504   1.228  -0.176  0.00  0.00    +0.015 A 
ATOM      8  C   UNL     1      -1.306   1.925   0.002  0.00  0.00    +0.038 A 
ATOM      9  C   UNL     1      -1.330   3.308   0.202  0.00  0.00    +0.015 A 
ATOM     10  C   UNL     1      -2.531   3.981   0.210  0.00  0.00    +0.024 A 
BRANCH   5  13
ATOM     11  C   UNL     1      -6.039   3.368   0.543  0.00  0.00    +0.248 C 
ATOM     12  O   UNL     1      -5.955   2.273   1.064  0.00  0.00    -0.270 OA
ATOM     13  N   UNL     1      -4.937   3.965   0.047  0.00  0.00    -0.282 N 
ATOM     14  H   UNL     1      -4.989   4.870  -0.299  0.00  0.00    +0.155 HD
BRANCH  11  18
ATOM     15  C   UNL     1      -9.806   5.314   0.286  0.00  0.00    +0.000 A 
ATOM     16  C   UNL     1      -9.714   4.067   0.879  0.00  0.00    +0.001 A 
ATOM     17  C   UNL     1      -8.493   3.430   0.966  0.00  0.00    +0.013 A 
ATOM     18  C   UNL     1      -7.350   4.045   0.453  0.00  0.00    +0.037 A 
ATOM     19  C   UNL     1      -7.449   5.305  -0.139  0.00  0.00    +0.013 A 
ATOM     20  C   UNL     1      -8.676   5.929  -0.224  0.00  0.00    +0.001 A 
ENDBRANCH  11  18
ENDBRANCH   5  13
ENDBRANCH   1   8
BRANCH   3  21
ATOM     21  N   UNL     1       2.356   1.192   0.132  0.00  0.00    -0.245 N 
ATOM     22  H   UNL     1       2.371   0.232  -0.002  0.00  0.00    +0.172 HD
BRANCH  21  23
ATOM     23  C   UNL     1       3.511   1.868   0.299  0.00  0.00    +0.153 C 
ATOM     24  S   UNL     1       5.004   1.030   0.274  0.00  0.00    -0.017 S 
BRANCH  23  25
ATOM     25  N   UNL     1       3.490   3.202   0.486  0.00  0.00    -0.263 N 
ATOM     26  C   UNL     1       4.644   3.877   0.653  0.00  0.00    +0.242 C 
ATOM     27  O   UNL     1       5.705   3.282   0.634  0.00  0.00    -0.270 OA
ATOM     28  H   UNL     1       2.644   3.677   0.500  0.00  0.00    +0.157 HD
BRANCH  26  29
ATOM     29  C   UNL     1       4.622   5.326   0.855  0.00  0.00    +0.068 C 
ATOM     30  C   UNL     1       5.777   6.002   1.022  0.00  0.00    +0.014 C 
BRANCH  30  31
ATOM     31  C   UNL     1       5.755   7.459   1.226  0.00  0.00    -0.007 A 
ATOM     32  C   UNL     1       4.537   8.147   1.248  0.00  0.00    +0.009 A 
ATOM     33  C   UNL     1       4.524   9.512   1.440  0.00  0.00    +0.001 A 
ATOM     34  C   UNL     1       5.712  10.203   1.611  0.00  0.00    +0.001 A 
ATOM     35  C   UNL     1       6.920   9.531   1.591  0.00  0.00    +0.020 A 
ATOM     36  C   UNL     1       6.951   8.163   1.405  0.00  0.00    +0.048 A 
ATOM     37 CL   UNL     1       8.469   7.320   1.388  0.00  0.00    -0.083 Cl
ENDBRANCH  30  31
ENDBRANCH  26  29
ENDBRANCH  23  25
ENDBRANCH  21  23
ENDBRANCH   3  21
TORSDOF 8
