REMARK  Name = ZINC21548924
REMARK  13 active torsions:
REMARK  status: ('A' for Active; 'I' for Inactive)
REMARK    1  A    between atoms: C_1  and  C_2
REMARK    2  A    between atoms: C_2  and  O_3
REMARK    3  A    between atoms: O_3  and  C_4
REMARK    4  A    between atoms: C_4  and  C_6
REMARK    5  A    between atoms: C_7  and  C_34
REMARK    6  A    between atoms: C_8  and  C_25
REMARK    7  A    between atoms: C_10  and  N_11
REMARK    8  A    between atoms: C_12  and  C_14
REMARK    9  A    between atoms: C_14  and  N_15
REMARK   10  A    between atoms: N_15  and  C_16
REMARK   11  A    between atoms: C_16  and  C_17
REMARK   12  A    between atoms: C_17  and  C_18
REMARK   13  A    between atoms: N_27  and  C_28
REMARK                            x       y       z     vdW  Elec       q    Type
REMARK                         _______ _______ _______ _____ _____    ______ ____
ROOT
ATOM      1  C   UNL     1      -0.023   1.800   2.427  0.00  0.00    +0.091 A 
ATOM      2  C   UNL     1      -0.719   1.566   1.250  0.00  0.00    -0.015 A 
ATOM      3  C   UNL     1      -2.069   1.789   1.255  0.00  0.00    +0.080 A 
ATOM      4  S   UNL     1      -2.373   2.321   2.929  0.00  0.00    -0.068 S 
ATOM      5  C   UNL     1      -0.752   2.241   3.537  0.00  0.00    +0.087 A 
ATOM      6  C   UNL     1      -0.012   1.090   0.007  0.00  0.00    +0.046 C 
ENDROOT
BRANCH   5   7
ATOM      7  N   UNL     1      -0.292   2.539   4.805  0.00  0.00    -0.281 N 
ATOM      8  C   UNL     1      -1.154   2.954   5.754  0.00  0.00    +0.201 C 
ATOM      9  O   UNL     1      -2.333   3.066   5.495  0.00  0.00    -0.278 OA
ATOM     10  H   UNL     1       0.778   2.438   5.040  0.00  0.00    +0.155 HD
BRANCH   8  11
ATOM     11  C   UNL     1      -0.652   3.280   7.137  0.00  0.00    +0.015 C 
BRANCH  11  12
ATOM     12  N   UNL     1      -1.779   3.706   7.979  0.00  0.00    +0.385 N 
ATOM     13  H   UNL     1      -2.248   4.598   7.539  0.00  0.00    -0.085 HD
ATOM     14  H   UNL     1      -2.519   2.894   8.039  0.00  0.00    -0.085 HD
BRANCH  12  15
ATOM     15  C   UNL     1      -1.326   4.032   9.338  0.00  0.00    -0.077 C 
BRANCH  15  16
ATOM     16  C   UNL     1      -2.524   4.470  10.183  0.00  0.00    +0.016 C 
BRANCH  16  17
ATOM     17  C   UNL     1      -2.060   4.805  11.577  0.00  0.00    -0.049 A 
ATOM     18  C   UNL     1      -2.033   3.823  12.550  0.00  0.00    +0.006 A 
ATOM     19  C   UNL     1      -1.603   4.128  13.828  0.00  0.00    +0.038 A 
ATOM     20  C   UNL     1      -1.210   5.420  14.135  0.00  0.00    +0.123 A 
ATOM     21  C   UNL     1      -1.242   6.403  13.161  0.00  0.00    +0.038 A 
ATOM     22  C   UNL     1      -1.667   6.094  11.883  0.00  0.00    +0.006 A 
ATOM     23  F   UNL     1      -0.793   5.720  15.385  0.00  0.00    -0.205 F 
ENDBRANCH  16  17
ENDBRANCH  15  16
ENDBRANCH  12  15
ENDBRANCH  11  12
ENDBRANCH   8  11
ENDBRANCH   5   7
BRANCH   3  24
ATOM     24  C   UNL     1      -3.026   1.628   0.159  0.00  0.00    +0.255 C 
ATOM     25  O   UNL     1      -2.644   1.249  -0.933  0.00  0.00    -0.269 OA
ATOM     26  N   UNL     1      -4.331   1.900   0.359  0.00  0.00    -0.281 N 
ATOM     27  H   UNL     1      -4.690   2.169   1.363  0.00  0.00    +0.155 HD
BRANCH  26  28
ATOM     28  C   UNL     1      -5.230   1.840  -0.711  0.00  0.00    +0.034 A 
ATOM     29  C   UNL     1      -6.297   2.726  -0.775  0.00  0.00    +0.023 A 
ATOM     30  C   UNL     1      -7.179   2.668  -1.835  0.00  0.00    +0.002 A 
ATOM     31  C   UNL     1      -7.008   1.720  -2.828  0.00  0.00    +0.000 A 
ATOM     32  C   UNL     1      -5.949   0.832  -2.765  0.00  0.00    +0.002 A 
ATOM     33  C   UNL     1      -5.060   0.889  -1.710  0.00  0.00    +0.023 A 
ENDBRANCH  26  28
ENDBRANCH   3  24
BRANCH   1  34
ATOM     34  C   UNL     1       1.427   1.591   2.505  0.00  0.00    +0.342 C 
ATOM     35  O   UNL     1       2.187   2.504   2.245  0.00  0.00    -0.245 OA
BRANCH  34  36
ATOM     36  O   UNL     1       1.916   0.388   2.865  0.00  0.00    -0.461 OA
BRANCH  36  38
ATOM     37  C   UNL     1       3.725  -1.171   3.345  0.00  0.00    +0.048 C 
ATOM     38  C   UNL     1       3.361   0.254   2.921  0.00  0.00    +0.229 C 
ENDBRANCH  36  38
ENDBRANCH  34  36
ENDBRANCH   1  34
TORSDOF 11
