REMARK  Name = ZINC20238731
REMARK  4 active torsions:
REMARK  status: ('A' for Active; 'I' for Inactive)
REMARK    1  A    between atoms: C_4  and  C_7
REMARK    2  A    between atoms: C_13  and  C_14
REMARK    3  A    between atoms: C_17  and  S_19
REMARK    4  A    between atoms: S_19  and  C_20
REMARK                            x       y       z     vdW  Elec       q    Type
REMARK                         _______ _______ _______ _____ _____    ______ ____
ROOT
ATOM      1  C   UNL     1       2.218  -1.449  -0.863  0.00  0.00    +0.130 C 
ATOM      2  N   UNL     1       2.881  -2.580  -0.864  0.00  0.00    -0.164 NA
ATOM      3  N   UNL     1       4.236  -2.609  -0.611  0.00  0.00    -0.152 N 
ATOM      4  C   UNL     1       5.063  -3.751  -0.678  0.00  0.00    +0.153 C 
ATOM      5  N   UNL     1       4.763  -4.816  -1.378  0.00  0.00    -0.283 NA
ATOM      6  C   UNL     1       6.308  -3.625   0.122  0.00  0.00    +0.084 C 
ATOM      7  C   UNL     1       6.891  -4.724   0.747  0.00  0.00    +0.063 C 
ATOM      8  C   UNL     1       6.896  -2.272   0.220  0.00  0.00    +0.273 C 
ATOM      9  O   UNL     1       8.089  -2.120   0.435  0.00  0.00    -0.268 OA
ATOM     10  N   UNL     1       6.078  -1.210   0.065  0.00  0.00    -0.152 NA
ATOM     11  C   UNL     1       4.835  -1.409  -0.292  0.00  0.00    +0.181 C 
ATOM     12  S   UNL     1       3.497  -0.260  -0.479  0.00  0.00    -0.033 S 
ATOM     13  H   UNL     1       3.919  -4.862  -1.854  0.00  0.00    +0.188 HD
ENDROOT
BRANCH   1  17
ATOM     14  C   UNL     1      -1.912  -0.778  -1.599  0.00  0.00    +0.000 A 
ATOM     15  C   UNL     1      -1.081   0.290  -1.316  0.00  0.00    +0.001 A 
ATOM     16  C   UNL     1       0.262   0.079  -1.076  0.00  0.00    +0.010 A 
ATOM     17  C   UNL     1       0.780  -1.215  -1.119  0.00  0.00    +0.009 A 
ATOM     18  C   UNL     1      -0.064  -2.289  -1.405  0.00  0.00    +0.010 A 
ATOM     19  C   UNL     1      -1.405  -2.064  -1.643  0.00  0.00    +0.001 A 
ENDBRANCH   1  17
BRANCH   7  20
ATOM     20  C   UNL     1       6.186  -5.926   0.848  0.00  0.00    +0.130 A 
ATOM     21  C   UNL     1       6.684  -7.126   1.344  0.00  0.00    +0.050 A 
ATOM     22  C   UNL     1       5.651  -8.055   1.261  0.00  0.00    +0.057 A 
ATOM     23  C   UNL     1       4.561  -7.402   0.721  0.00  0.00    +0.167 A 
ATOM     24  O   UNL     1       4.898  -6.125   0.485  0.00  0.00    -0.449 OA
BRANCH  23  25
ATOM     25  S   UNL     1       2.986  -8.126   0.402  0.00  0.00    -0.051 S 
BRANCH  25  26
ATOM     26  C   UNL     1       2.020  -7.679   1.806  0.00  0.00    +0.023 A 
ATOM     27  C   UNL     1       2.593  -6.992   2.856  0.00  0.00    +0.016 A 
ATOM     28  C   UNL     1       1.838  -6.636   3.969  0.00  0.00    +0.002 A 
ATOM     29  C   UNL     1       0.516  -6.953   4.053  0.00  0.00    +0.008 A 
ATOM     30  C   UNL     1      -0.106  -7.652   3.005  0.00  0.00    -0.017 A 
ATOM     31  C   UNL     1       0.650  -8.017   1.864  0.00  0.00    -0.004 A 
ATOM     32  C   UNL     1       0.025  -8.711   0.817  0.00  0.00    +0.009 A 
ATOM     33  C   UNL     1      -1.298  -9.020   0.907  0.00  0.00    +0.001 A 
ATOM     34  C   UNL     1      -2.044  -8.657   2.026  0.00  0.00    +0.001 A 
ATOM     35  C   UNL     1      -1.469  -7.992   3.066  0.00  0.00    +0.008 A 
ENDBRANCH  25  26
ENDBRANCH  23  25
ENDBRANCH   7  20
TORSDOF 4
