REMARK  Name = ZINC05017570
REMARK  6 active torsions:
REMARK  status: ('A' for Active; 'I' for Inactive)
REMARK    1  A    between atoms: C_1  and  O_2
REMARK    2  A    between atoms: O_2  and  C_3
REMARK    3  A    between atoms: C_3  and  C_5
REMARK    4  A    between atoms: C_6  and  C_20
REMARK    5  A    between atoms: C_11  and  C_13
REMARK    6  A    between atoms: C_20  and  N_45
REMARK                            x       y       z     vdW  Elec       q    Type
REMARK                         _______ _______ _______ _____ _____    ______ ____
ROOT
ATOM      1  C   UNL     1       1.869   2.599  -1.107  0.00  0.00    +0.076 C 
ATOM      2  C   UNL     1       1.360   2.104   0.041  0.00  0.00    +0.008 C 
ATOM      3  N   UNL     1       2.140   1.954   1.152  0.00  0.00    -0.274 N 
ATOM      4  C   UNL     1       3.442   2.265   1.193  0.00  0.00    +0.304 C 
ATOM      5  O   UNL     1       4.056   2.092   2.227  0.00  0.00    -0.252 OA
ATOM      6  N   UNL     1       4.092   2.771   0.126  0.00  0.00    -0.288 N 
ATOM      7  C   UNL     1       3.337   2.977  -1.122  0.00  0.00    +0.143 C 
ATOM      8  H   UNL     1       1.729   1.598   1.955  0.00  0.00    +0.156 HD
ATOM      9  H   UNL     1       5.034   2.993   0.178  0.00  0.00    +0.151 HD
ENDROOT
BRANCH   7  10
ATOM     10  C   UNL     1       3.438   4.434  -1.491  0.00  0.00    -0.022 A 
ATOM     11  C   UNL     1       3.208   5.406  -0.535  0.00  0.00    +0.007 A 
ATOM     12  C   UNL     1       3.307   6.744  -0.871  0.00  0.00    +0.020 A 
ATOM     13  C   UNL     1       3.624   7.109  -2.167  0.00  0.00    +0.041 A 
ATOM     14  C   UNL     1       3.848   6.136  -3.125  0.00  0.00    +0.020 A 
ATOM     15  C   UNL     1       3.755   4.799  -2.786  0.00  0.00    +0.007 A 
ATOM     16 CL   UNL     1       3.740   8.788  -2.592  0.00  0.00    -0.084 Cl
ENDBRANCH   7  10
BRANCH   1  17
ATOM     17  C   UNL     1       1.061   2.760  -2.256  0.00  0.00    +0.338 C 
ATOM     18  O   UNL     1       1.121   1.948  -3.161  0.00  0.00    -0.245 OA
BRANCH  17  20
ATOM     19  C   UNL     1      -0.563   3.914  -3.539  0.00  0.00    +0.280 C 
ATOM     20  O   UNL     1       0.224   3.814  -2.350  0.00  0.00    -0.465 OA
ENDBRANCH  17  20
ENDBRANCH   1  17
BRANCH   2  21
ATOM     21  C   UNL     1      -0.096   1.716   0.100  0.00  0.00    -0.026 C 
BRANCH  21  27
ATOM     22  C   UNL     1       0.302  -0.483  -0.833  0.00  0.00    -0.050 C 
ATOM     23  C   UNL     1       0.221  -1.983  -0.535  0.00  0.00    +0.141 C 
ATOM     24  O   UNL     1      -1.129  -2.329  -0.217  0.00  0.00    -0.383 OA
ATOM     25  C   UNL     1      -1.657  -1.616   0.904  0.00  0.00    +0.141 C 
ATOM     26  C   UNL     1      -1.596  -0.112   0.621  0.00  0.00    -0.050 C 
ATOM     27  N   UNL     1      -0.193   0.261   0.344  0.00  0.00    +0.386 N 
ATOM     28  H   UNL     1       0.384   0.020   1.158  0.00  0.00    -0.081 HD
ENDBRANCH  21  27
ENDBRANCH   2  21
TORSDOF 5
