REMARK  Name = ZINC12750518
REMARK  6 active torsions:
REMARK  status: ('A' for Active; 'I' for Inactive)
REMARK    1  A    between atoms: C_4  and  C_7
REMARK    2  A    between atoms: C_7  and  C_9
REMARK    3  A    between atoms: C_7  and  N_51
REMARK    4  A    between atoms: N_11  and  C_12
REMARK    5  A    between atoms: C_16  and  C_18
REMARK    6  A    between atoms: C_22  and  N_51
REMARK                            x       y       z     vdW  Elec       q    Type
REMARK                         _______ _______ _______ _____ _____    ______ ____
ROOT
ATOM      1  C   UNL     1      -1.211  -0.781   0.131  0.00  0.00    +0.048 C 
ENDROOT
BRANCH   1   5
ATOM      2  C   UNL     1      -3.164   0.120   3.822  0.00  0.00    +0.000 A 
ATOM      3  C   UNL     1      -3.620   0.681   2.644  0.00  0.00    +0.000 A 
ATOM      4  C   UNL     1      -2.988   0.389   1.450  0.00  0.00    +0.002 A 
ATOM      5  C   UNL     1      -1.900  -0.463   1.433  0.00  0.00    -0.053 A 
ATOM      6  C   UNL     1      -1.447  -1.028   2.611  0.00  0.00    +0.002 A 
ATOM      7  C   UNL     1      -2.076  -0.733   3.806  0.00  0.00    +0.000 A 
ENDBRANCH   1   5
BRANCH   1   8
ATOM      8  C   UNL     1       0.034   0.058   0.004  0.00  0.00    +0.207 C 
ATOM      9  O   UNL     1       1.118  -0.478  -0.099  0.00  0.00    -0.277 OA
ATOM     10  N   UNL     1      -0.056   1.402   0.005  0.00  0.00    -0.287 N 
ATOM     11  H   UNL     1      -0.926   1.830   0.017  0.00  0.00    +0.155 HD
BRANCH  10  12
ATOM     12  C   UNL     1       1.106   2.181  -0.018  0.00  0.00    +0.034 A 
ATOM     13  C   UNL     1       2.219   1.752  -0.730  0.00  0.00    +0.023 A 
ATOM     14  C   UNL     1       3.364   2.523  -0.751  0.00  0.00    +0.002 A 
ATOM     15  C   UNL     1       3.404   3.723  -0.064  0.00  0.00    +0.012 A 
ATOM     16  C   UNL     1       2.298   4.153   0.646  0.00  0.00    +0.057 A 
ATOM     17  C   UNL     1       1.148   3.389   0.667  0.00  0.00    +0.035 A 
BRANCH  16  18
ATOM     18  C   UNL     1       2.346   5.461   1.393  0.00  0.00    +0.417 C 
ATOM     19  F   UNL     1       3.603   6.052   1.219  0.00  0.00    -0.166 F 
ATOM     20  F   UNL     1       1.356   6.317   0.898  0.00  0.00    -0.166 F 
ATOM     21  F   UNL     1       2.124   5.229   2.754  0.00  0.00    -0.166 F 
ENDBRANCH  16  18
ENDBRANCH  10  12
ENDBRANCH   1   8
BRANCH   1  22
ATOM     22  N   UNL     1      -0.839  -2.208   0.108  0.00  0.00    +0.394 N 
ATOM     23  H   UNL     1      -0.654  -2.526   1.067  0.00  0.00    -0.083 HD
ATOM     24  H   UNL     1       0.007  -2.328  -0.461  0.00  0.00    -0.083 HD
BRANCH  22  25
ATOM     25  C   UNL     1      -1.932  -3.013  -0.469  0.00  0.00    -0.033 C 
ATOM     26  C   UNL     1      -2.880  -3.460   0.646  0.00  0.00    +0.030 C 
ATOM     27  C   UNL     1      -3.821  -4.530   0.079  0.00  0.00    +0.228 C 
ATOM     28  O   UNL     1      -3.041  -5.673  -0.276  0.00  0.00    -0.492 OA
ATOM     29  C   UNL     1      -1.926  -5.474  -1.025  0.00  0.00    +0.122 A 
ATOM     30  C   UNL     1      -1.347  -4.224  -1.152  0.00  0.00    -0.020 A 
ATOM     31  C   UNL     1      -0.206  -4.069  -1.921  0.00  0.00    +0.005 A 
ATOM     32  C   UNL     1       0.355  -5.155  -2.564  0.00  0.00    +0.000 A 
ATOM     33  C   UNL     1      -0.223  -6.405  -2.440  0.00  0.00    +0.004 A 
ATOM     34  C   UNL     1      -1.359  -6.565  -1.676  0.00  0.00    +0.046 A 
ENDBRANCH  22  25
ENDBRANCH   1  22
TORSDOF 6
