REMARK  Name = ZINC39631208
REMARK  14 active torsions:
REMARK  status: ('A' for Active; 'I' for Inactive)
REMARK    1  A    between atoms: C_1  and  C_2
REMARK    2  A    between atoms: C_2  and  C_3
REMARK    3  A    between atoms: C_3  and  C_4
REMARK    4  A    between atoms: C_4  and  C_5
REMARK    5  A    between atoms: C_9  and  C_18
REMARK    6  A    between atoms: N_20  and  C_21
REMARK    7  A    between atoms: C_21  and  C_23
REMARK    8  A    between atoms: C_21  and  C_24
REMARK    9  A    between atoms: C_24  and  C_25
REMARK   10  A    between atoms: C_25  and  C_26
REMARK   11  A    between atoms: C_26  and  C_27
REMARK   12  A    between atoms: C_27  and  C_28
REMARK   13  A    between atoms: C_27  and  C_29
REMARK   14  A    between atoms: C_27  and  O_30
REMARK                            x       y       z     vdW  Elec       q    Type
REMARK                         _______ _______ _______ _____ _____    ______ ____
ROOT
ATOM      1  C   UNL     1       1.525  -2.525  -2.594  0.00  0.00    +0.216 C 
ATOM      2  O   UNL     1       1.940  -1.745  -3.424  0.00  0.00    -0.276 OA
ATOM      3  N   UNL     1       1.629  -3.852  -2.805  0.00  0.00    -0.300 N 
ATOM      4  C   UNL     1       1.178  -4.951  -1.919  0.00  0.00    +0.121 C 
ATOM      5  C   UNL     1       0.599  -6.015  -2.880  0.00  0.00    +0.100 C 
ATOM      6  C   UNL     1       1.288  -5.742  -4.228  0.00  0.00    -0.004 C 
ATOM      7  C   UNL     1       2.214  -4.542  -3.980  0.00  0.00    +0.115 C 
ATOM      8  C   UNL     1       2.101  -6.958  -4.661  0.00  0.00    -0.010 C 
ATOM      9  C   UNL     1       2.729  -6.685  -6.031  0.00  0.00    -0.082 C 
ATOM     10  N   UNL     1       1.671  -6.405  -7.009  0.00  0.00    +0.379 N 
ATOM     11  C   UNL     1       0.953  -5.181  -6.633  0.00  0.00    -0.082 C 
ATOM     12  C   UNL     1       0.250  -5.391  -5.289  0.00  0.00    -0.010 C 
ATOM     13  H   UNL     1       2.082  -6.285  -7.922  0.00  0.00    -0.086 HD
ATOM     14  H   UNL     1       1.024  -7.179  -7.033  0.00  0.00    -0.086 HD
ENDROOT
BRANCH   5  15
ATOM     15  C   UNL     1       0.931  -7.401  -2.389  0.00  0.00    +0.218 C 
ATOM     16  O   UNL     1       1.963  -7.599  -1.785  0.00  0.00    -0.275 OA
ATOM     17  N   UNL     1       0.080  -8.419  -2.622  0.00  0.00    -0.312 N 
ATOM     18  H   UNL     1      -0.746  -8.260  -3.106  0.00  0.00    +0.149 HD
BRANCH  17  19
ATOM     19  C   UNL     1       0.402  -9.767  -2.145  0.00  0.00    +0.070 C 
ATOM     20  C   UNL     1      -0.050  -9.915  -0.691  0.00  0.00    +0.028 C 
BRANCH  19  21
ATOM     21  C   UNL     1      -0.320 -10.800  -3.012  0.00  0.00    +0.022 C 
BRANCH  21  22
ATOM     22  C   UNL     1       0.223 -10.736  -4.441  0.00  0.00    +0.005 C 
BRANCH  22  23
ATOM     23  C   UNL     1      -0.499 -11.770  -5.308  0.00  0.00    +0.034 C 
BRANCH  23  24
ATOM     24  C   UNL     1       0.043 -11.706  -6.737  0.00  0.00    +0.061 C 
ATOM     25  C   UNL     1      -0.763 -12.650  -7.631  0.00  0.00    +0.041 C 
ATOM     26  C   UNL     1      -0.079 -10.275  -7.265  0.00  0.00    +0.041 C 
BRANCH  24  27
ATOM     27  O   UNL     1       1.417 -12.100  -6.743  0.00  0.00    -0.389 OA
ATOM     28  H   UNL     1       1.827 -12.084  -7.618  0.00  0.00    +0.210 HD
ENDBRANCH  24  27
ENDBRANCH  23  24
ENDBRANCH  22  23
ENDBRANCH  21  22
ENDBRANCH  19  21
ENDBRANCH  17  19
ENDBRANCH   5  15
BRANCH   1  29
ATOM     29  C   UNL     1       0.893  -2.012  -1.326  0.00  0.00    +0.096 C 
BRANCH  29  30
ATOM     30  C   UNL     1       0.900  -0.482  -1.336  0.00  0.00    +0.009 C 
BRANCH  30  32
ATOM     31  C   UNL     1       0.266   1.570  -0.058  0.00  0.00    +0.004 C 
ATOM     32  C   UNL     1       0.259   0.040  -0.048  0.00  0.00    -0.003 C 
ENDBRANCH  30  32
ENDBRANCH  29  30
ENDBRANCH   1  29
TORSDOF 10
