REMARK  Name = ZINC51676148
REMARK  7 active torsions:
REMARK  status: ('A' for Active; 'I' for Inactive)
REMARK    1  A    between atoms: C_1  and  O_2
REMARK    2  A    between atoms: O_2  and  C_3
REMARK    3  A    between atoms: C_6  and  C_9
REMARK    4  A    between atoms: C_9  and  C_11
REMARK    5  A    between atoms: C_9  and  N_25
REMARK    6  A    between atoms: C_11  and  N_12
REMARK    7  A    between atoms: C_19  and  C_22
REMARK                            x       y       z     vdW  Elec       q    Type
REMARK                         _______ _______ _______ _____ _____    ______ ____
ROOT
ATOM      1  C   UNL     1       2.542  -2.471  -4.322  0.00  0.00    -0.020 C 
ENDROOT
BRANCH   1   2
ATOM      2  N   UNL     1       3.236  -3.736  -4.043  0.00  0.00    +0.385 N 
ATOM      3  C   UNL     1       4.208  -3.531  -2.963  0.00  0.00    -0.078 C 
ATOM      4  C   UNL     1       4.876  -4.863  -2.614  0.00  0.00    -0.019 C 
ATOM      5  C   UNL     1       5.594  -5.408  -3.852  0.00  0.00    -0.004 C 
ATOM      6  C   UNL     1       4.585  -5.547  -4.995  0.00  0.00    -0.019 C 
ATOM      7  C   UNL     1       3.927  -4.190  -5.256  0.00  0.00    -0.078 C 
ATOM      8  H   UNL     1       2.563  -4.432  -3.760  0.00  0.00    -0.081 HD
ENDBRANCH   1   2
BRANCH   1  12
ATOM      9  C   UNL     1       0.729  -1.022  -0.734  0.00  0.00    +0.120 A 
ATOM     10  C   UNL     1       1.345  -0.138  -1.607  0.00  0.00    +0.046 A 
ATOM     11  C   UNL     1       1.931  -0.609  -2.766  0.00  0.00    +0.005 A 
ATOM     12  C   UNL     1       1.903  -1.960  -3.056  0.00  0.00    -0.059 A 
ATOM     13  C   UNL     1       1.289  -2.844  -2.188  0.00  0.00    +0.005 A 
ATOM     14  C   UNL     1       0.707  -2.378  -1.024  0.00  0.00    +0.046 A 
BRANCH   9  16
ATOM     15  C   UNL     1       0.212   0.848   0.641  0.00  0.00    +0.277 C 
ATOM     16  O   UNL     1       0.152  -0.561   0.407  0.00  0.00    -0.495 OA
ENDBRANCH   9  16
ENDBRANCH   1  12
BRANCH   1  17
ATOM     17  C   UNL     1       1.463  -2.704  -5.380  0.00  0.00    +0.095 C 
BRANCH  17  18
ATOM     18  N   UNL     1       0.832  -1.427  -5.723  0.00  0.00    -0.300 N 
ATOM     19  C   UNL     1      -0.223  -1.401  -6.562  0.00  0.00    +0.302 C 
ATOM     20  O   UNL     1      -0.594  -2.424  -7.105  0.00  0.00    -0.253 OA
ATOM     21  N   UNL     1      -0.866  -0.240  -6.800  0.00  0.00    -0.281 N 
ATOM     22  C   UNL     1      -0.365   1.029  -6.250  0.00  0.00    +0.137 C 
ATOM     23  C   UNL     1      -0.283   2.051  -7.390  0.00  0.00    +0.180 C 
ATOM     24  O   UNL     1      -1.541   2.104  -8.066  0.00  0.00    -0.364 OA
ATOM     25  C   UNL     1      -1.922   0.876  -8.691  0.00  0.00    +0.221 C 
ATOM     26  C   UNL     1      -2.085  -0.205  -7.623  0.00  0.00    +0.150 C 
ATOM     27  H   UNL     1       1.172  -0.601  -5.346  0.00  0.00    +0.150 HD
BRANCH  25  28
ATOM     28  C   UNL     1      -3.226   1.067  -9.422  0.00  0.00    +0.241 C 
ATOM     29  O   UNL     1      -3.821   2.120  -9.336  0.00  0.00    -0.273 OA
ATOM     30  N   UNL     1      -3.730   0.067 -10.172  0.00  0.00    -0.327 N 
ATOM     31  H   UNL     1      -3.254  -0.775 -10.242  0.00  0.00    +0.145 HD
ATOM     32  H   UNL     1      -4.570   0.190 -10.643  0.00  0.00    +0.145 HD
ENDBRANCH  25  28
ENDBRANCH  17  18
ENDBRANCH   1  17
TORSDOF 6
