REMARK  Name = ZINC43450573
REMARK  5 active torsions:
REMARK  status: ('A' for Active; 'I' for Inactive)
REMARK    1  A    between atoms: C_3  and  N_9
REMARK    2  A    between atoms: N_12  and  C_13
REMARK    3  A    between atoms: C_13  and  C_14
REMARK    4  A    between atoms: C_14  and  C_16
REMARK    5  A    between atoms: C_14  and  N_21
REMARK                            x       y       z     vdW  Elec       q    Type
REMARK                         _______ _______ _______ _____ _____    ______ ____
ROOT
ATOM      1  N   UNL     1       2.059   6.405   2.386  0.00  0.00    -0.267 N 
ATOM      2  C   UNL     1       2.737   5.811   1.385  0.00  0.00    +0.304 C 
ATOM      3  O   UNL     1       2.159   5.063   0.619  0.00  0.00    -0.253 OA
ATOM      4  N   UNL     1       4.056   6.044   1.231  0.00  0.00    -0.300 N 
ATOM      5  H   UNL     1       2.500   7.062   2.947  0.00  0.00    +0.156 HD
ATOM      6  H   UNL     1       4.516   6.641   1.842  0.00  0.00    +0.150 HD
ENDROOT
BRANCH   1   9
ATOM      7  C   UNL     1      -1.102   4.524   2.429  0.00  0.00    +0.003 A 
ATOM      8  C   UNL     1       0.222   4.848   2.201  0.00  0.00    +0.026 A 
ATOM      9  C   UNL     1       0.717   6.076   2.616  0.00  0.00    +0.072 A 
ATOM     10  C   UNL     1      -0.121   6.979   3.260  0.00  0.00    +0.163 A 
ATOM     11  C   UNL     1      -1.446   6.649   3.486  0.00  0.00    +0.078 A 
ATOM     12  C   UNL     1      -1.935   5.422   3.070  0.00  0.00    +0.023 A 
ATOM     13 CL   UNL     1      -2.496   7.774   4.290  0.00  0.00    -0.081 Cl
ATOM     14  F   UNL     1       0.357   8.175   3.666  0.00  0.00    -0.202 F 
ENDBRANCH   1   9
BRANCH   4  15
ATOM     15  C   UNL     1       4.793   5.398   0.143  0.00  0.00    +0.095 C 
BRANCH  15  16
ATOM     16  C   UNL     1       6.281   5.730   0.266  0.00  0.00    -0.013 C 
BRANCH  16  17
ATOM     17  N   UNL     1       7.037   4.976  -0.743  0.00  0.00    +0.386 N 
ATOM     18  C   UNL     1       8.496   5.138  -0.516  0.00  0.00    -0.078 C 
ATOM     19  C   UNL     1       9.104   3.906  -1.232  0.00  0.00    -0.020 C 
ATOM     20  C   UNL     1       8.076   2.790  -0.934  0.00  0.00    -0.020 C 
ATOM     21  C   UNL     1       6.766   3.528  -0.606  0.00  0.00    -0.078 C 
ATOM     22  H   UNL     1       6.790   5.290  -1.669  0.00  0.00    -0.081 HD
ENDBRANCH  16  17
BRANCH  16  23
ATOM     23  C   UNL     1       6.485   7.207   0.046  0.00  0.00    -0.022 A 
ATOM     24  C   UNL     1       6.665   8.190   0.963  0.00  0.00    +0.009 A 
ATOM     25  C   UNL     1       6.836   9.490   0.527  0.00  0.00    +0.008 A 
ATOM     26  C   UNL     1       6.819   9.744  -0.805  0.00  0.00    +0.045 A 
ATOM     27  S   UNL     1       6.562   8.115  -1.489  0.00  0.00    -0.103 S 
ENDBRANCH  16  23
ENDBRANCH  15  16
ENDBRANCH   4  15
TORSDOF 5
