REMARK  Name = ZINC63755524
REMARK  7 active torsions:
REMARK  status: ('A' for Active; 'I' for Inactive)
REMARK    1  A    between atoms: C_1  and  C_2
REMARK    2  A    between atoms: C_5  and  C_8
REMARK    3  A    between atoms: C_10  and  S_18
REMARK    4  A    between atoms: S_18  and  C_19
REMARK    5  A    between atoms: C_19  and  C_20
REMARK    6  A    between atoms: C_20  and  N_21
REMARK    7  A    between atoms: C_22  and  C_24
REMARK                            x       y       z     vdW  Elec       q    Type
REMARK                         _______ _______ _______ _____ _____    ______ ____
ROOT
ATOM      1  C   UNL     1       0.067  -4.303  -0.044  0.00  0.00    +0.147 C 
ATOM      2  C   UNL     1      -1.321  -4.832   0.241  0.00  0.00    +0.021 C 
ATOM      3  C   UNL     1      -1.205  -5.585   1.405  0.00  0.00    +0.010 A 
ATOM      4  C   UNL     1      -2.144  -6.322   2.160  0.00  0.00    +0.011 A 
ATOM      5  C   UNL     1      -1.742  -6.976   3.280  0.00  0.00    +0.001 A 
ATOM      6  C   UNL     1      -0.415  -6.941   3.711  0.00  0.00    +0.002 A 
ATOM      7  C   UNL     1       0.539  -6.254   3.033  0.00  0.00    +0.026 A 
ATOM      8  C   UNL     1       0.195  -5.546   1.854  0.00  0.00    +0.044 A 
ATOM      9  N   UNL     1       0.925  -4.815   1.030  0.00  0.00    -0.373 N 
ATOM     10  H   UNL     1       1.875  -4.644   1.119  0.00  0.00    +0.161 HD
ENDROOT
BRANCH   1  15
ATOM     11  C   UNL     1       0.041   1.476   0.016  0.00  0.00    +0.044 C 
ATOM     12  C   UNL     1       0.048  -0.031   0.001  0.00  0.00    -0.050 A 
ATOM     13  C   UNL     1       0.035  -0.710  -1.204  0.00  0.00    +0.004 A 
ATOM     14  C   UNL     1       0.042  -2.092  -1.218  0.00  0.00    +0.006 A 
ATOM     15  C   UNL     1       0.061  -2.796  -0.028  0.00  0.00    -0.020 A 
ATOM     16  C   UNL     1       0.075  -2.117   1.176  0.00  0.00    +0.006 A 
ATOM     17  C   UNL     1       0.072  -0.735   1.190  0.00  0.00    +0.004 A 
ENDBRANCH   1  15
BRANCH   2  18
ATOM     18  S   UNL     1      -2.697  -4.569  -0.650  0.00  0.00    -0.125 S 
BRANCH  18  19
ATOM     19  C   UNL     1      -3.946  -5.611   0.152  0.00  0.00    +0.093 C 
BRANCH  19  20
ATOM     20  C   UNL     1      -5.240  -5.574  -0.662  0.00  0.00    +0.115 C 
BRANCH  20  21
ATOM     21  N   UNL     1      -6.249  -6.416  -0.015  0.00  0.00    -0.308 N 
ATOM     22  C   UNL     1      -7.477  -6.536  -0.558  0.00  0.00    +0.279 C 
ATOM     23  O   UNL     1      -7.747  -5.945  -1.587  0.00  0.00    -0.267 OA
ATOM     24  H   UNL     1      -6.033  -6.887   0.805  0.00  0.00    +0.149 HD
BRANCH  22  25
ATOM     25  C   UNL     1      -8.486  -7.378   0.090  0.00  0.00    +0.191 A 
ATOM     26  C   UNL     1      -9.760  -7.591  -0.354  0.00  0.00    +0.056 A 
ATOM     27  C   UNL     1     -10.370  -8.456   0.566  0.00  0.00    +0.058 A 
ATOM     28  C   UNL     1      -9.452  -8.732   1.522  0.00  0.00    +0.171 A 
ATOM     29  O   UNL     1      -8.317  -8.085   1.228  0.00  0.00    -0.444 OA
ATOM     30 BR   UNL     1      -9.726  -9.852   3.020  0.00  0.00    -0.008 Br
ENDBRANCH  22  25
ENDBRANCH  20  21
ENDBRANCH  19  20
ENDBRANCH  18  19
ENDBRANCH   2  18
TORSDOF 6
