REMARK  Name = ZINC63617074
REMARK  7 active torsions:
REMARK  status: ('A' for Active; 'I' for Inactive)
REMARK    1  A    between atoms: C_7  and  C_10
REMARK    2  A    between atoms: C_10  and  C_11
REMARK    3  A    between atoms: N_13  and  C_14
REMARK    4  A    between atoms: N_13  and  C_21
REMARK    5  A    between atoms: C_14  and  C_15
REMARK    6  A    between atoms: C_21  and  C_27
REMARK    7  A    between atoms: N_29  and  C_30
REMARK                            x       y       z     vdW  Elec       q    Type
REMARK                         _______ _______ _______ _____ _____    ______ ____
ROOT
ATOM      1  C   UNL     1       0.624  -3.604  -0.798  0.00  0.00    +0.221 C 
ATOM      2  O   UNL     1       1.497  -3.058  -1.440  0.00  0.00    -0.275 OA
ATOM      3  N   UNL     1      -0.167  -4.525  -1.383  0.00  0.00    -0.285 N 
ENDROOT
BRANCH   3   4
ATOM      4  C   UNL     1      -0.067  -4.767  -2.824  0.00  0.00    +0.113 C 
ATOM      5  C   UNL     1      -1.453  -4.638  -3.460  0.00  0.00    +0.035 C 
ATOM      6  C   UNL     1      -1.997  -3.229  -3.216  0.00  0.00    +0.003 C 
ATOM      7  C   UNL     1      -1.050  -2.202  -3.842  0.00  0.00    +0.000 C 
ATOM      8  C   UNL     1       0.335  -2.331  -3.206  0.00  0.00    +0.003 C 
ATOM      9  C   UNL     1       0.879  -3.740  -3.450  0.00  0.00    +0.035 C 
BRANCH   4  10
ATOM     10  C   UNL     1       0.468  -6.155  -3.064  0.00  0.00    +0.237 C 
ATOM     11  O   UNL     1       0.076  -6.801  -4.013  0.00  0.00    -0.273 OA
ATOM     12  N   UNL     1       1.383  -6.679  -2.225  0.00  0.00    -0.311 N 
ATOM     13  H   UNL     1       1.698  -6.162  -1.466  0.00  0.00    +0.149 HD
BRANCH  12  14
ATOM     14  C   UNL     1       1.904  -8.028  -2.458  0.00  0.00    +0.073 C 
ATOM     15  C   UNL     1       3.067  -7.961  -3.450  0.00  0.00    +0.022 C 
ATOM     16  C   UNL     1       3.611  -9.371  -3.694  0.00  0.00    +0.002 C 
ATOM     17  C   UNL     1       4.102  -9.964  -2.372  0.00  0.00    +0.000 C 
ATOM     18  C   UNL     1       2.939 -10.030  -1.380  0.00  0.00    +0.002 C 
ATOM     19  C   UNL     1       2.395  -8.621  -1.136  0.00  0.00    +0.022 C 
ENDBRANCH  12  14
ENDBRANCH   4  10
ENDBRANCH   3   4
BRANCH   1  20
ATOM     20  C   UNL     1       0.425  -3.252   0.654  0.00  0.00    +0.129 C 
BRANCH  20  27
ATOM     21  C   UNL     1       0.215   1.327   0.874  0.00  0.00    +0.001 A 
ATOM     22  C   UNL     1       1.406   1.924   1.312  0.00  0.00    +0.002 A 
ATOM     23  C   UNL     1       2.503   1.208   1.637  0.00  0.00    +0.026 A 
ATOM     24  C   UNL     1       2.490  -0.211   1.543  0.00  0.00    +0.043 A 
ATOM     25  N   UNL     1       3.409  -1.111   1.795  0.00  0.00    -0.380 N 
ATOM     26  C   UNL     1       2.850  -2.439   1.523  0.00  0.00    +0.145 C 
ATOM     27  C   UNL     1       1.430  -2.205   1.060  0.00  0.00    -0.033 C 
ATOM     28  C   UNL     1       1.245  -0.865   1.082  0.00  0.00    -0.001 A 
ATOM     29  C   UNL     1       0.096  -0.014   0.749  0.00  0.00    +0.010 A 
ATOM     30  H   UNL     1       4.309  -0.929   2.110  0.00  0.00    +0.160 HD
ENDBRANCH  20  27
ENDBRANCH   1  20
BRANCH   3  31
ATOM     31  C   UNL     1      -1.127  -5.284  -0.577  0.00  0.00    +0.140 C 
BRANCH  31  32
ATOM     32  C   UNL     1      -2.414  -4.471  -0.418  0.00  0.00    +0.136 C 
ATOM     33  C   UNL     1      -3.261  -5.053   0.734  0.00  0.00    +0.035 C 
ATOM     34  C   UNL     1      -4.705  -4.934   0.174  0.00  0.00    +0.031 C 
ATOM     35  C   UNL     1      -4.457  -5.184  -1.335  0.00  0.00    +0.160 C 
ATOM     36  O   UNL     1      -3.194  -4.557  -1.617  0.00  0.00    -0.375 OA
ENDBRANCH  31  32
ENDBRANCH   3  31
TORSDOF 7
