REMARK  Name = ZINC22561444
REMARK  12 active torsions:
REMARK  status: ('A' for Active; 'I' for Inactive)
REMARK    1  A    between atoms: C_1  and  C_2
REMARK    2  A    between atoms: C_2  and  C_4
REMARK    3  A    between atoms: C_2  and  N_32
REMARK    4  A    between atoms: C_7  and  S_16
REMARK    5  A    between atoms: N_8  and  C_9
REMARK    6  A    between atoms: S_16  and  C_17
REMARK    7  A    between atoms: C_17  and  C_19
REMARK    8  A    between atoms: C_17  and  C_20
REMARK    9  A    between atoms: N_22  and  C_23
REMARK   10  A    between atoms: C_26  and  C_29
REMARK   11  A    between atoms: N_32  and  C_33
REMARK   12  A    between atoms: N_32  and  C_34
REMARK                            x       y       z     vdW  Elec       q    Type
REMARK                         _______ _______ _______ _____ _____    ______ ____
ROOT
ATOM      1  C   UNL     1      -1.643   3.805   2.340  0.00  0.00    +0.125 A 
ATOM      2  N   UNL     1      -2.653   3.185   2.881  0.00  0.00    -0.135 NA
ATOM      3  N   UNL     1      -2.986   3.758   3.982  0.00  0.00    -0.122 NA
ATOM      4  C   UNL     1      -2.207   4.792   4.202  0.00  0.00    +0.197 A 
ATOM      5  N   UNL     1      -1.323   4.855   3.159  0.00  0.00    -0.275 N 
ENDROOT
BRANCH   5   6
ATOM      6  C   UNL     1      -0.303   5.800   2.969  0.00  0.00    +0.050 A 
ATOM      7  C   UNL     1       1.026   5.401   2.994  0.00  0.00    +0.028 A 
ATOM      8  C   UNL     1       2.028   6.332   2.801  0.00  0.00    +0.022 A 
ATOM      9  C   UNL     1       1.708   7.662   2.594  0.00  0.00    +0.041 A 
ATOM     10  C   UNL     1       0.384   8.062   2.575  0.00  0.00    +0.022 A 
ATOM     11  C   UNL     1      -0.622   7.135   2.761  0.00  0.00    +0.028 A 
ATOM     12 CL   UNL     1       2.970   8.831   2.359  0.00  0.00    -0.084 Cl
ENDBRANCH   5   6
BRANCH   1  14
ATOM     13  C   UNL     1      -1.845   3.844  -0.131  0.00  0.00    -0.005 C 
ATOM     14  C   UNL     1      -0.958   3.440   1.048  0.00  0.00    -0.003 C 
BRANCH  14  15
ATOM     15  N   UNL     1      -0.725   1.990   1.011  0.00  0.00    +0.382 N 
ATOM     16  C   UNL     1      -0.057   1.597  -0.237  0.00  0.00    -0.096 C 
ATOM     17  C   UNL     1       0.046   1.551   2.182  0.00  0.00    -0.096 C 
ATOM     18  H   UNL     1      -1.703   1.489   1.043  0.00  0.00    -0.082 HD
ENDBRANCH  14  15
ENDBRANCH   1  14
BRANCH   4  19
ATOM     19  S   UNL     1      -2.284   5.889   5.578  0.00  0.00    -0.073 S 
BRANCH  19  20
ATOM     20  C   UNL     1      -3.672   5.160   6.484  0.00  0.00    +0.137 C 
ATOM     21  C   UNL     1      -4.949   5.291   5.652  0.00  0.00    +0.029 C 
BRANCH  20  22
ATOM     22  C   UNL     1      -3.850   5.881   7.795  0.00  0.00    +0.230 C 
ATOM     23  O   UNL     1      -3.466   7.024   7.915  0.00  0.00    -0.274 OA
ATOM     24  N   UNL     1      -4.437   5.254   8.834  0.00  0.00    -0.285 N 
ATOM     25  H   UNL     1      -4.864   4.249   8.700  0.00  0.00    +0.155 HD
BRANCH  24  26
ATOM     26  C   UNL     1      -4.504   5.880  10.078  0.00  0.00    +0.033 A 
ATOM     27  C   UNL     1      -3.473   6.718  10.490  0.00  0.00    +0.024 A 
ATOM     28  C   UNL     1      -3.537   7.341  11.716  0.00  0.00    +0.015 A 
ATOM     29  C   UNL     1      -4.636   7.123  12.551  0.00  0.00    +0.037 A 
ATOM     30  C   UNL     1      -5.668   6.276  12.137  0.00  0.00    +0.015 A 
ATOM     31  C   UNL     1      -5.599   5.660  10.908  0.00  0.00    +0.024 A 
BRANCH  29  32
ATOM     32  C   UNL     1      -4.706   7.785  13.868  0.00  0.00    +0.242 C 
ATOM     33  O   UNL     1      -5.663   7.595  14.594  0.00  0.00    -0.270 OA
ATOM     34  N   UNL     1      -3.710   8.601  14.266  0.00  0.00    -0.325 N 
ATOM     35  H   UNL     1      -3.763   9.095  15.248  0.00  0.00    +0.145 HD
ATOM     36  H   UNL     1      -2.845   8.774  13.610  0.00  0.00    +0.145 HD
ENDBRANCH  29  32
ENDBRANCH  24  26
ENDBRANCH  20  22
ENDBRANCH  19  20
ENDBRANCH   4  19
TORSDOF 8
