REMARK  Name = ZINC37822342
REMARK  10 active torsions:
REMARK  status: ('A' for Active; 'I' for Inactive)
REMARK    1  A    between atoms: C_1  and  C_2
REMARK    2  A    between atoms: C_2  and  C_3
REMARK    3  A    between atoms: C_3  and  C_4
REMARK    4  A    between atoms: C_4  and  C_5
REMARK    5  A    between atoms: C_4  and  C_6
REMARK    6  A    between atoms: C_4  and  N_21
REMARK    7  A    between atoms: N_8  and  C_9
REMARK    8  A    between atoms: N_8  and  C_17
REMARK    9  A    between atoms: C_9  and  C_10
REMARK   10  A    between atoms: C_17  and  C_18
REMARK                            x       y       z     vdW  Elec       q    Type
REMARK                         _______ _______ _______ _____ _____    ______ ____
ROOT
ATOM      1  C   UNL     1      -2.786  -2.544   0.221  0.00  0.00    +0.205 C 
ATOM      2  O   UNL     1      -3.735  -1.909  -0.190  0.00  0.00    -0.277 OA
ATOM      3  N   UNL     1      -2.979  -3.566   1.077  0.00  0.00    -0.290 N 
ENDROOT
BRANCH   1   4
ATOM      4  C   UNL     1      -1.392  -2.189  -0.227  0.00  0.00    +0.004 C 
ATOM      5  C   UNL     1      -1.428  -0.879  -1.017  0.00  0.00    -0.001 C 
BRANCH   4   6
ATOM      6  N   UNL     1      -0.864  -3.261  -1.081  0.00  0.00    +0.387 N 
ATOM      7  H   UNL     1      -1.002  -4.151  -0.628  0.00  0.00    -0.089 HD
ATOM      8  H   UNL     1      -1.348  -3.255  -1.966  0.00  0.00    -0.089 HD
ATOM      9  H   UNL     1       0.122  -3.113  -1.236  0.00  0.00    -0.089 HD
ENDBRANCH   4   6
BRANCH   4  10
ATOM     10  C   UNL     1      -0.490  -2.021   0.997  0.00  0.00    -0.004 C 
BRANCH  10  12
ATOM     11  C   UNL     1       1.784  -1.342   1.778  0.00  0.00    +0.004 C 
ATOM     12  C   UNL     1       0.882  -1.510   0.554  0.00  0.00    -0.004 C 
ENDBRANCH  10  12
ENDBRANCH   4  10
ENDBRANCH   1   4
BRANCH   3  13
ATOM     13  C   UNL     1      -4.331  -3.889   1.540  0.00  0.00    +0.143 C 
BRANCH  13  14
ATOM     14  C   UNL     1      -4.959  -4.887   0.602  0.00  0.00    -0.030 A 
ATOM     15  C   UNL     1      -5.682  -4.448  -0.491  0.00  0.00    +0.006 A 
ATOM     16  C   UNL     1      -6.258  -5.363  -1.352  0.00  0.00    +0.015 A 
ATOM     17  C   UNL     1      -6.110  -6.718  -1.120  0.00  0.00    +0.018 A 
ATOM     18  C   UNL     1      -5.386  -7.157  -0.026  0.00  0.00    +0.015 A 
ATOM     19  C   UNL     1      -4.806  -6.242   0.832  0.00  0.00    +0.006 A 
ATOM     20 BR   UNL     1      -6.898  -7.971  -2.297  0.00  0.00    -0.050 Br
ENDBRANCH  13  14
ENDBRANCH   3  13
BRANCH   3  21
ATOM     21  C   UNL     1      -1.837  -4.356   1.544  0.00  0.00    +0.203 C 
BRANCH  21  22
ATOM     22  C   UNL     1      -1.424  -3.880   2.914  0.00  0.00    +0.228 C 
ATOM     23  O   UNL     1      -2.025  -2.971   3.446  0.00  0.00    -0.274 OA
ATOM     24  N   UNL     1      -0.387  -4.465   3.546  0.00  0.00    -0.328 N 
ATOM     25  H   UNL     1       0.093  -5.191   3.120  0.00  0.00    +0.145 HD
ATOM     26  H   UNL     1      -0.122  -4.159   4.427  0.00  0.00    +0.145 HD
ENDBRANCH  21  22
ENDBRANCH   3  21
TORSDOF 8
