REMARK  Name = ZINC57380343
REMARK  8 active torsions:
REMARK  status: ('A' for Active; 'I' for Inactive)
REMARK    1  A    between atoms: C_1  and  C_2
REMARK    2  A    between atoms: C_2  and  C_25
REMARK    3  A    between atoms: C_4  and  N_10
REMARK    4  A    between atoms: C_6  and  C_8
REMARK    5  A    between atoms: C_6  and  C_9
REMARK    6  A    between atoms: C_11  and  C_13
REMARK    7  A    between atoms: C_13  and  C_14
REMARK    8  A    between atoms: C_17  and  C_19
REMARK                            x       y       z     vdW  Elec       q    Type
REMARK                         _______ _______ _______ _____ _____    ______ ____
ROOT
ATOM      1  N   UNL     1       2.615  -0.819  -2.626  0.00  0.00    -0.312 N 
ATOM      2  C   UNL     1       3.770  -0.334  -3.123  0.00  0.00    +0.219 C 
ATOM      3  O   UNL     1       4.374   0.530  -2.523  0.00  0.00    -0.275 OA
ATOM      4  H   UNL     1       2.133  -1.510  -3.106  0.00  0.00    +0.149 HD
ENDROOT
BRANCH   1   8
ATOM      5  C   UNL     1      -0.019   1.528   0.010  0.00  0.00    -0.010 C 
ATOM      6  C   UNL     1       0.002  -0.004   0.002  0.00  0.00    -0.072 C 
ATOM      7  C   UNL     1       0.573  -0.505  -1.321  0.00  0.00    +0.009 C 
ATOM      8  C   UNL     1       2.088  -0.301  -1.357  0.00  0.00    +0.070 C 
ATOM      9  C   UNL     1       2.703  -1.086  -0.198  0.00  0.00    +0.009 C 
ATOM     10  C   UNL     1       2.147  -0.590   1.133  0.00  0.00    -0.072 C 
ATOM     11  N   UNL     1       0.697  -0.529   1.164  0.00  0.00    +0.386 N 
ATOM     12  C   UNL     1       2.769   0.766   1.481  0.00  0.00    -0.010 C 
ATOM     13  C   UNL     1       2.600  -1.589   2.223  0.00  0.00    -0.010 C 
ATOM     14  C   UNL     1      -1.468  -0.478   0.079  0.00  0.00    -0.010 C 
ATOM     15  H   UNL     1       0.416   0.021   1.982  0.00  0.00    -0.084 HD
ATOM     16  H   UNL     1       0.341  -1.472   1.351  0.00  0.00    -0.084 HD
ENDBRANCH   1   8
BRANCH   2  17
ATOM     17  C   UNL     1       4.312  -0.866  -4.426  0.00  0.00    +0.151 C 
BRANCH  17  18
ATOM     18  C   UNL     1       5.603  -0.163  -4.757  0.00  0.00    +0.058 A 
ATOM     19  C   UNL     1       6.728  -0.886  -4.997  0.00  0.00    +0.071 A 
ATOM     20  S   UNL     1       7.901   0.424  -5.322  0.00  0.00    -0.075 S 
ATOM     21  C   UNL     1       6.769   1.790  -5.104  0.00  0.00    +0.115 A 
ATOM     22  N   UNL     1       5.642   1.148  -4.818  0.00  0.00    -0.243 NA
BRANCH  21  23
ATOM     23  C   UNL     1       7.017   3.236  -5.215  0.00  0.00    +0.046 A 
ATOM     24  C   UNL     1       8.183   3.891  -5.521  0.00  0.00    +0.019 A 
ATOM     25  C   UNL     1       8.175   5.267  -5.568  0.00  0.00    +0.028 A 
ATOM     26  C   UNL     1       7.017   5.932  -5.310  0.00  0.00    +0.079 A 
ATOM     27  S   UNL     1       5.878   4.593  -4.994  0.00  0.00    -0.075 S 
ATOM     28 CL   UNL     1       6.720   7.642  -5.298  0.00  0.00    -0.076 Cl
ENDBRANCH  21  23
ENDBRANCH  17  18
ENDBRANCH   2  17
TORSDOF 4
