REMARK  Name = ZINC14128970
REMARK  11 active torsions:
REMARK  status: ('A' for Active; 'I' for Inactive)
REMARK    1  A    between atoms: C_1  and  C_2
REMARK    2  A    between atoms: C_5  and  S_24
REMARK    3  A    between atoms: C_7  and  N_8
REMARK    4  A    between atoms: C_9  and  C_11
REMARK    5  A    between atoms: C_11  and  C_13
REMARK    6  A    between atoms: C_11  and  S_14
REMARK    7  A    between atoms: S_14  and  C_15
REMARK    8  A    between atoms: C_21  and  N_23
REMARK    9  A    between atoms: S_24  and  N_27
REMARK   10  A    between atoms: N_27  and  C_28
REMARK   11  A    between atoms: N_27  and  C_29
REMARK                            x       y       z     vdW  Elec       q    Type
REMARK                         _______ _______ _______ _____ _____    ______ ____
ROOT
ATOM      1  N   UNL     1      -0.033   0.011  -2.413  0.00  0.00    -0.284 N 
ATOM      2  C   UNL     1      -0.530  -0.573  -3.521  0.00  0.00    +0.230 C 
ATOM      3  O   UNL     1      -1.036  -1.672  -3.453  0.00  0.00    -0.274 OA
ATOM      4  H   UNL     1       0.299   0.922  -2.451  0.00  0.00    +0.155 HD
ENDROOT
BRANCH   1  11
ATOM      5  C   UNL     1      -0.013   1.495   0.015  0.00  0.00    +0.045 C 
ATOM      6  C   UNL     1       0.015  -0.012   0.002  0.00  0.00    -0.029 A 
ATOM      7  C   UNL     1       0.046  -0.713   1.191  0.00  0.00    +0.007 A 
ATOM      8  C   UNL     1       0.071  -2.096   1.180  0.00  0.00    +0.029 A 
ATOM      9  C   UNL     1       0.065  -2.780  -0.022  0.00  0.00    +0.107 A 
ATOM     10  C   UNL     1       0.035  -2.085  -1.214  0.00  0.00    +0.052 A 
ATOM     11  C   UNL     1       0.004  -0.696  -1.206  0.00  0.00    +0.038 A 
BRANCH   9  12
ATOM     12  S   UNL     1       0.096  -4.542  -0.031  0.00  0.00    +0.060 S 
ATOM     13  O   UNL     1       0.635  -4.932  -1.286  0.00  0.00    -0.153 OA
ATOM     14  O   UNL     1       0.672  -4.945   1.204  0.00  0.00    -0.153 OA
BRANCH  12  15
ATOM     15  N   UNL     1      -1.477  -5.060  -0.010  0.00  0.00    -0.183 NA
ATOM     16  C   UNL     1      -2.192  -5.282  -1.269  0.00  0.00    +0.131 C 
ATOM     17  C   UNL     1      -2.154  -5.295   1.268  0.00  0.00    +0.131 C 
ENDBRANCH  12  15
ENDBRANCH   9  12
ENDBRANCH   1  11
BRANCH   2  18
ATOM     18  C   UNL     1      -0.456   0.141  -4.846  0.00  0.00    +0.137 C 
ATOM     19  C   UNL     1       0.904  -0.124  -5.494  0.00  0.00    +0.029 C 
BRANCH  18  20
ATOM     20  S   UNL     1      -1.770  -0.466  -5.933  0.00  0.00    -0.075 S 
BRANCH  20  21
ATOM     21  C   UNL     1      -1.552   0.613  -7.309  0.00  0.00    +0.171 A 
ATOM     22  N   UNL     1      -2.368   0.485  -8.393  0.00  0.00    -0.302 N 
ATOM     23  H   UNL     1      -3.059  -0.195  -8.401  0.00  0.00    +0.171 HD
ATOM     24  C   UNL     1      -2.218   1.306  -9.454  0.00  0.00    +0.254 A 
ATOM     25  O   UNL     1      -2.948   1.201 -10.427  0.00  0.00    -0.268 OA
ATOM     26  C   UNL     1      -1.210   2.274  -9.421  0.00  0.00    +0.113 A 
ATOM     27  C   UNL     1      -0.403   2.360  -8.296  0.00  0.00    +0.124 A 
ATOM     28  N   UNL     1      -0.601   1.523  -7.271  0.00  0.00    -0.209 NA
BRANCH  27  29
ATOM     29  N   UNL     1       0.602   3.305  -8.234  0.00  0.00    -0.343 N 
ATOM     30  H   UNL     1       1.165   3.363  -7.447  0.00  0.00    +0.144 HD
ATOM     31  H   UNL     1       0.743   3.911  -8.978  0.00  0.00    +0.144 HD
ENDBRANCH  27  29
ENDBRANCH  20  21
ENDBRANCH  18  20
ENDBRANCH   2  18
TORSDOF 7
