REMARK  Name = ZINC08705588
REMARK  5 active torsions:
REMARK  status: ('A' for Active; 'I' for Inactive)
REMARK    1  A    between atoms: C_1  and  N_2
REMARK    2  A    between atoms: C_6  and  C_8
REMARK    3  A    between atoms: C_8  and  N_51
REMARK    4  A    between atoms: N_11  and  S_14
REMARK    5  A    between atoms: S_14  and  N_17
REMARK                            x       y       z     vdW  Elec       q    Type
REMARK                         _______ _______ _______ _____ _____    ______ ____
ROOT
ATOM      1  C   UNL     1      -0.026  -2.746  -0.048  0.00  0.00    -0.061 C 
ATOM      2  C   UNL     1      -1.469  -2.952  -0.521  0.00  0.00    +0.092 C 
ATOM      3  N   UNL     1      -1.819  -1.860  -1.442  0.00  0.00    -0.170 NA
ATOM      4  C   UNL     1      -0.913  -1.579  -2.565  0.00  0.00    +0.092 C 
ATOM      5  C   UNL     1       0.511  -1.423  -2.009  0.00  0.00    -0.061 C 
ATOM      6  N   UNL     1       0.852  -2.636  -1.234  0.00  0.00    +0.387 N 
ATOM      7  H   UNL     1       0.711  -3.461  -1.829  0.00  0.00    -0.081 HD
ENDROOT
BRANCH   3   8
ATOM      8  S   UNL     1      -3.201  -0.974  -1.222  0.00  0.00    +0.099 S 
ATOM      9  O   UNL     1      -4.109  -1.806  -0.513  0.00  0.00    -0.141 OA
ATOM     10  O   UNL     1      -3.520  -0.401  -2.483  0.00  0.00    -0.141 OA
BRANCH   8  11
ATOM     11  N   UNL     1      -2.823   0.282  -0.212  0.00  0.00    -0.166 NA
ATOM     12  C   UNL     1      -3.054   0.178   1.199  0.00  0.00    +0.110 C 
ATOM     13  C   UNL     1      -4.455   0.616   1.694  0.00  0.00    +0.017 C 
ATOM     14  C   UNL     1      -4.902   1.903   0.959  0.00  0.00    +0.001 C 
ATOM     15  C   UNL     1      -3.743   2.839   0.772  0.00  0.00    +0.001 C 
ATOM     16  C   UNL     1      -3.249   2.594  -0.650  0.00  0.00    +0.017 C 
ATOM     17  C   UNL     1      -2.231   1.550  -0.760  0.00  0.00    +0.110 C 
ENDBRANCH   8  11
ENDBRANCH   3   8
BRANCH   6  18
ATOM     18  C   UNL     1       2.266  -2.584  -0.812  0.00  0.00    +0.019 C 
BRANCH  18  24
ATOM     19  C   UNL     1       7.458  -2.890  -4.056  0.00  0.00    +0.129 C 
ATOM     20  N   UNL     1       6.607  -2.784  -2.868  0.00  0.00    -0.302 N 
ATOM     21  C   UNL     1       5.266  -2.788  -2.997  0.00  0.00    +0.306 C 
ATOM     22  O   UNL     1       4.762  -2.879  -4.099  0.00  0.00    -0.252 OA
ATOM     23  N   UNL     1       4.483  -2.690  -1.904  0.00  0.00    -0.242 N 
ATOM     24  C   UNL     1       3.142  -2.694  -2.034  0.00  0.00    +0.204 C 
ATOM     25  O   UNL     1       2.639  -2.785  -3.133  0.00  0.00    -0.277 OA
ATOM     26  H   UNL     1       7.010  -2.711  -1.988  0.00  0.00    +0.150 HD
ATOM     27  H   UNL     1       4.885  -2.617  -1.025  0.00  0.00    +0.159 HD
ENDBRANCH  18  24
ENDBRANCH   6  18
TORSDOF 4
