REMARK  Name = ZINC34677235
REMARK  9 active torsions:
REMARK  status: ('A' for Active; 'I' for Inactive)
REMARK    1  A    between atoms: C_4  and  C_7
REMARK    2  A    between atoms: C_7  and  C_8
REMARK    3  A    between atoms: C_8  and  C_10
REMARK    4  A    between atoms: C_8  and  O_35
REMARK    5  A    between atoms: C_10  and  N_11
REMARK    6  A    between atoms: N_14  and  C_17
REMARK    7  A    between atoms: C_17  and  C_18
REMARK    8  A    between atoms: C_20  and  C_23
REMARK    9  A    between atoms: N_25  and  C_26
REMARK                            x       y       z     vdW  Elec       q    Type
REMARK                         _______ _______ _______ _____ _____    ______ ____
ROOT
ATOM      1  C   UNL     1       8.242  -1.947   6.297  0.00  0.00    +0.019 C 
ENDROOT
BRANCH   1   5
ATOM      2  N   UNL     1       6.028  -1.853   2.717  0.00  0.00    -0.303 NA
ATOM      3  C   UNL     1       6.230  -0.587   3.435  0.00  0.00    +0.066 C 
ATOM      4  C   UNL     1       6.622  -0.882   4.884  0.00  0.00    -0.063 C 
ATOM      5  N   UNL     1       7.856  -1.679   4.905  0.00  0.00    +0.387 N 
ATOM      6  C   UNL     1       7.631  -2.951   4.207  0.00  0.00    -0.063 C 
ATOM      7  C   UNL     1       7.247  -2.673   2.752  0.00  0.00    +0.066 C 
ATOM      8  H   UNL     1       8.594  -1.168   4.445  0.00  0.00    -0.081 HD
BRANCH   2   9
ATOM      9  C   UNL     1       5.594  -1.612   1.335  0.00  0.00    +0.115 C 
BRANCH   9  10
ATOM     10  C   UNL     1       4.202  -0.977   1.340  0.00  0.00    +0.133 C 
BRANCH  10  11
ATOM     11  O   UNL     1       3.279  -1.859   1.982  0.00  0.00    -0.390 OA
ATOM     12  H   UNL     1       3.197  -2.722   1.554  0.00  0.00    +0.210 HD
ENDBRANCH  10  11
BRANCH  10  13
ATOM     13  C   UNL     1       3.751  -0.725  -0.100  0.00  0.00    +0.067 C 
BRANCH  13  17
ATOM     14  C   UNL     1       0.024   1.362  -0.082  0.00  0.00    +0.000 A 
ATOM     15  C   UNL     1       1.211   2.069  -0.085  0.00  0.00    +0.000 A 
ATOM     16  C   UNL     1       2.418   1.393  -0.090  0.00  0.00    +0.004 A 
ATOM     17  C   UNL     1       2.436   0.011  -0.092  0.00  0.00    -0.045 A 
ATOM     18  C   UNL     1       1.248  -0.696  -0.089  0.00  0.00    +0.004 A 
ATOM     19  C   UNL     1       0.042  -0.021  -0.085  0.00  0.00    +0.000 A 
ENDBRANCH  13  17
ENDBRANCH  10  13
ENDBRANCH   9  10
ENDBRANCH   2   9
ENDBRANCH   1   5
BRANCH   1  20
ATOM     20  C   UNL     1       9.570  -2.658   6.322  0.00  0.00    +0.179 A 
ATOM     21  N   UNL     1      10.732  -2.079   6.382  0.00  0.00    -0.210 NA
ATOM     22  C   UNL     1      11.694  -3.042   6.386  0.00  0.00    +0.164 A 
ATOM     23  C   UNL     1      11.057  -4.243   6.326  0.00  0.00    +0.230 A 
ATOM     24  O   UNL     1       9.739  -3.987   6.293  0.00  0.00    -0.449 OA
BRANCH  22  25
ATOM     25  C   UNL     1      13.150  -2.824   6.444  0.00  0.00    +0.270 C 
ATOM     26  O   UNL     1      13.908  -3.776   6.441  0.00  0.00    -0.268 OA
ATOM     27  N   UNL     1      13.643  -1.571   6.499  0.00  0.00    -0.280 N 
ATOM     28  H   UNL     1      13.043  -0.811   6.433  0.00  0.00    +0.155 HD
BRANCH  27  29
ATOM     29  C   UNL     1      15.018  -1.366   6.651  0.00  0.00    +0.034 A 
ATOM     30  C   UNL     1      15.922  -2.233   6.052  0.00  0.00    +0.023 A 
ATOM     31  C   UNL     1      17.277  -2.026   6.205  0.00  0.00    +0.006 A 
ATOM     32  C   UNL     1      17.741  -0.957   6.956  0.00  0.00    -0.044 A 
ATOM     33  C   UNL     1      16.843  -0.092   7.554  0.00  0.00    -0.042 A 
ATOM     34  C   UNL     1      15.483  -0.292   7.397  0.00  0.00    +0.027 A 
ATOM     35  C   UNL     1      17.595   0.982   8.311  0.00  0.00    +0.036 C 
ATOM     36  C   UNL     1      19.028   0.433   8.476  0.00  0.00    +0.009 C 
ATOM     37  C   UNL     1      19.157  -0.523   7.270  0.00  0.00    +0.036 C 
ENDBRANCH  27  29
ENDBRANCH  22  25
ENDBRANCH   1  20
TORSDOF 9
