REMARK  Name = ZINC35679364
REMARK  8 active torsions:
REMARK  status: ('A' for Active; 'I' for Inactive)
REMARK    1  A    between atoms: C_1  and  C_2
REMARK    2  A    between atoms: C_7  and  N_12
REMARK    3  A    between atoms: C_9  and  C_11
REMARK    4  A    between atoms: N_12  and  S_13
REMARK    5  A    between atoms: S_13  and  C_16
REMARK    6  A    between atoms: C_19  and  C_21
REMARK    7  A    between atoms: C_21  and  C_22
REMARK    8  A    between atoms: C_22  and  N_23
REMARK                            x       y       z     vdW  Elec       q    Type
REMARK                         _______ _______ _______ _____ _____    ______ ____
ROOT
ATOM      1  S   UNL     1       2.396  -3.897   2.329  0.00  0.00    +0.065 S 
ATOM      2  O   UNL     1       2.966  -4.088   3.617  0.00  0.00    -0.153 OA
ATOM      3  O   UNL     1       1.596  -4.885   1.696  0.00  0.00    -0.153 OA
ENDROOT
BRANCH   1   4
ATOM      4  C   UNL     1       3.732  -3.552   1.234  0.00  0.00    +0.143 A 
ATOM      5  C   UNL     1       4.961  -3.053   1.516  0.00  0.00    +0.036 A 
ATOM      6  C   UNL     1       5.861  -2.864   0.484  0.00  0.00    +0.013 A 
ATOM      7  C   UNL     1       5.488  -3.182  -0.780  0.00  0.00    -0.010 A 
ATOM      8  S   UNL     1       3.822  -3.777  -0.535  0.00  0.00    -0.074 S 
BRANCH   7   9
ATOM      9  C   UNL     1       6.277  -3.069  -2.059  0.00  0.00    +0.023 C 
BRANCH   9  10
ATOM     10  C   UNL     1       7.044  -4.370  -2.302  0.00  0.00    -0.081 C 
BRANCH  10  11
ATOM     11  N   UNL     1       7.813  -4.260  -3.549  0.00  0.00    +0.378 N 
ATOM     12  H   UNL     1       7.183  -4.092  -4.319  0.00  0.00    -0.090 HD
ATOM     13  H   UNL     1       8.465  -3.494  -3.475  0.00  0.00    -0.090 HD
ATOM     14  H   UNL     1       8.319  -5.118  -3.709  0.00  0.00    -0.090 HD
ENDBRANCH  10  11
ENDBRANCH   9  10
ENDBRANCH   7   9
ENDBRANCH   1   4
BRANCH   1  15
ATOM     15  N   UNL     1       1.471  -2.526   2.420  0.00  0.00    -0.186 NA
ATOM     16  H   UNL     1       1.399  -2.045   3.259  0.00  0.00    +0.148 HD
BRANCH  15  22
ATOM     17  C   UNL     1      -0.019   1.526   0.010  0.00  0.00    +0.008 C 
ATOM     18  C   UNL     1       0.002  -0.004   0.002  0.00  0.00    -0.010 C 
ATOM     19  C   UNL     1      -1.433  -0.534   0.013  0.00  0.00    +0.003 C 
ATOM     20  C   UNL     1      -1.413  -2.063   0.004  0.00  0.00    +0.002 C 
ATOM     21  C   UNL     1      -0.673  -2.570   1.244  0.00  0.00    +0.020 C 
ATOM     22  C   UNL     1       0.763  -2.041   1.233  0.00  0.00    +0.080 C 
ATOM     23  C   UNL     1       0.742  -0.511   1.242  0.00  0.00    +0.007 C 
ATOM     24  C   UNL     1       0.026  -0.018   2.500  0.00  0.00    +0.009 C 
ENDBRANCH  15  22
ENDBRANCH   1  15
TORSDOF 6
