REMARK  Name = ZINC54202213
REMARK  3 active torsions:
REMARK  status: ('A' for Active; 'I' for Inactive)
REMARK    1  A    between atoms: C_6  and  N_7
REMARK    2  A    between atoms: C_20  and  C_22
REMARK    3  A    between atoms: N_24  and  C_25
REMARK                            x       y       z     vdW  Elec       q    Type
REMARK                         _______ _______ _______ _____ _____    ______ ____
ROOT
ATOM      1  N   UNL     1      -1.256  -0.724   0.007  0.00  0.00    -0.285 N 
ATOM      2  C   UNL     1      -1.227  -2.090  -0.104  0.00  0.00    +0.202 A 
ATOM      3  N   UNL     1      -2.399  -2.773  -0.213  0.00  0.00    -0.295 N 
ATOM      4  H   UNL     1      -3.241  -2.293  -0.224  0.00  0.00    +0.172 HD
ATOM      5  C   UNL     1      -2.389  -4.120  -0.305  0.00  0.00    +0.258 A 
ATOM      6  O   UNL     1      -3.434  -4.747  -0.388  0.00  0.00    -0.267 OA
ATOM      7  C   UNL     1      -1.158  -4.784  -0.305  0.00  0.00    +0.069 A 
ATOM      8  C   UNL     1       0.006  -4.042  -0.213  0.00  0.00    +0.138 A 
ATOM      9  N   UNL     1      -0.066  -2.710  -0.107  0.00  0.00    -0.200 NA
ATOM     10  N   UNL     1       1.239  -4.671  -0.254  0.00  0.00    -0.270 N 
ATOM     11  C   UNL     1       1.348  -5.953  -0.641  0.00  0.00    +0.219 C 
ATOM     12  O   UNL     1       2.421  -6.512  -0.566  0.00  0.00    -0.275 OA
ATOM     13  C   UNL     1       0.152  -6.705  -1.165  0.00  0.00    +0.114 C 
ATOM     14  C   UNL     1      -1.100  -6.285  -0.394  0.00  0.00    +0.122 C 
ATOM     15  H   UNL     1      -2.105  -0.262   0.088  0.00  0.00    +0.155 HD
ATOM     16  H   UNL     1       2.035  -4.178  -0.001  0.00  0.00    +0.156 HD
ENDROOT
BRANCH   1  22
ATOM     17  C   UNL     1       1.019  -0.436  -0.752  0.00  0.00    +0.026 A 
ATOM     18  C   UNL     1       2.197   0.285  -0.755  0.00  0.00    +0.040 A 
ATOM     19  C   UNL     1       2.303   1.445  -0.007  0.00  0.00    +0.124 A 
ATOM     20  C   UNL     1       1.227   1.886   0.746  0.00  0.00    +0.040 A 
ATOM     21  C   UNL     1       0.047   1.168   0.752  0.00  0.00    +0.026 A 
ATOM     22  C   UNL     1      -0.061   0.005   0.002  0.00  0.00    +0.034 A 
ATOM     23  F   UNL     1       3.456   2.148  -0.012  0.00  0.00    -0.205 F 
ENDBRANCH   1  22
BRANCH  14  24
ATOM     24  C   UNL     1      -1.054  -6.868   0.995  0.00  0.00    +0.225 C 
ATOM     25  O   UNL     1      -1.066  -6.135   1.962  0.00  0.00    -0.275 OA
ATOM     26  N   UNL     1      -0.998  -8.204   1.164  0.00  0.00    -0.285 N 
ATOM     27  H   UNL     1      -0.919  -8.787   0.393  0.00  0.00    +0.155 HD
BRANCH  26  28
ATOM     28  C   UNL     1      -1.054  -8.750   2.453  0.00  0.00    +0.037 A 
ATOM     29  C   UNL     1      -1.704  -9.959   2.667  0.00  0.00    +0.027 A 
ATOM     30  C   UNL     1      -1.760 -10.497   3.938  0.00  0.00    +0.051 A 
ATOM     31  C   UNL     1      -1.168  -9.835   5.003  0.00  0.00    +0.162 A 
ATOM     32  C   UNL     1      -0.515  -8.626   4.791  0.00  0.00    +0.164 A 
ATOM     33  C   UNL     1      -0.456  -8.087   3.515  0.00  0.00    +0.072 A 
ATOM     34  O   UNL     1       0.078  -7.965   5.822  0.00  0.00    -0.485 OA
ATOM     35  C   UNL     1      -0.317  -8.347   7.144  0.00  0.00    +0.270 C 
ATOM     36  C   UNL     1      -0.314  -9.880   7.222  0.00  0.00    +0.270 C 
ATOM     37  O   UNL     1      -1.238 -10.379   6.249  0.00  0.00    -0.485 OA
ENDBRANCH  26  28
ENDBRANCH  14  24
TORSDOF 3
