REMARK  Name = ZINC04299478
REMARK  10 active torsions:
REMARK  status: ('A' for Active; 'I' for Inactive)
REMARK    1  A    between atoms: N_9  and  C_10
REMARK    2  A    between atoms: C_10  and  C_11
REMARK    3  A    between atoms: C_11  and  C_13
REMARK    4  A    between atoms: C_11  and  O_26
REMARK    5  A    between atoms: C_13  and  N_46
REMARK    6  A    between atoms: C_14  and  C_15
REMARK    7  A    between atoms: C_14  and  N_46
REMARK    8  A    between atoms: C_15  and  N_16
REMARK    9  A    between atoms: N_16  and  C_17
REMARK   10  A    between atoms: C_20  and  C_22
REMARK                            x       y       z     vdW  Elec       q    Type
REMARK                         _______ _______ _______ _____ _____    ______ ____
ROOT
ATOM      1  N   UNL     1      -2.336   4.211   8.133  0.00  0.00    +0.382 N 
ATOM      2  H   UNL     1      -1.879   3.348   8.450  0.00  0.00    -0.086 HD
ATOM      3  H   UNL     1      -1.626   4.935   7.972  0.00  0.00    -0.086 HD
ENDROOT
BRANCH   1   4
ATOM      4  C   UNL     1      -3.274   4.674   9.173  0.00  0.00    -0.049 C 
BRANCH   4   5
ATOM      5  C   UNL     1      -2.499   4.940  10.466  0.00  0.00    +0.117 C 
BRANCH   5   6
ATOM      6  O   UNL     1      -1.862   3.735  10.895  0.00  0.00    -0.392 OA
ATOM      7  H   UNL     1      -2.475   3.008  11.074  0.00  0.00    +0.210 HD
ENDBRANCH   5   6
BRANCH   5   8
ATOM      8  C   UNL     1      -3.465   5.420  11.550  0.00  0.00    +0.151 C 
BRANCH   8  17
ATOM      9  C   UNL     1      -0.746   9.209  13.970  0.00  0.00    +0.001 A 
ATOM     10  C   UNL     1      -1.356   9.270  12.725  0.00  0.00    +0.002 A 
ATOM     11  C   UNL     1      -2.039   8.184  12.222  0.00  0.00    +0.026 A 
ATOM     12  C   UNL     1      -2.118   7.012  12.968  0.00  0.00    +0.049 A 
ATOM     13  C   UNL     1      -1.500   6.956  14.230  0.00  0.00    -0.000 A 
ATOM     14  C   UNL     1      -0.818   8.070  14.722  0.00  0.00    +0.010 A 
ATOM     15  C   UNL     1      -1.755   5.609  14.746  0.00  0.00    +0.027 A 
ATOM     16  C   UNL     1      -2.480   4.964  13.818  0.00  0.00    +0.087 A 
ATOM     17  N   UNL     1      -2.709   5.788  12.750  0.00  0.00    -0.344 N 
ENDBRANCH   8  17
ENDBRANCH   5   8
ENDBRANCH   4   5
ENDBRANCH   1   4
BRANCH   1  18
ATOM     18  C   UNL     1      -3.057   3.947   6.874  0.00  0.00    -0.064 C 
BRANCH  18  19
ATOM     19  C   UNL     1      -2.060   3.470   5.816  0.00  0.00    +0.084 C 
BRANCH  19  20
ATOM     20  N   UNL     1      -2.769   3.205   4.561  0.00  0.00    -0.332 N 
ATOM     21  H   UNL     1      -3.728   3.342   4.508  0.00  0.00    +0.147 HD
BRANCH  20  22
ATOM     22  C   UNL     1      -2.068   2.757   3.448  0.00  0.00    +0.096 A 
ATOM     23  C   UNL     1      -0.692   2.563   3.532  0.00  0.00    +0.042 A 
ATOM     24  C   UNL     1      -0.007   2.118   2.416  0.00  0.00    +0.017 A 
ATOM     25  C   UNL     1      -0.722   1.881   1.250  0.00  0.00    +0.071 A 
ATOM     26  C   UNL     1      -2.085   2.100   1.236  0.00  0.00    +0.096 A 
ATOM     27  N   UNL     1      -2.792   2.532   2.314  0.00  0.00    -0.349 N 
ATOM     28  H   UNL     1      -3.808   2.679   2.277  0.00  0.00    +0.167 HD
BRANCH  25  29
ATOM     29  C   UNL     1      -0.017   1.395   0.010  0.00  0.00    +0.419 C 
ATOM     30  F   UNL     1       0.002  -0.004   0.002  0.00  0.00    -0.166 F 
ATOM     31  F   UNL     1       1.296   1.879  -0.000  0.00  0.00    -0.166 F 
ATOM     32  F   UNL     1      -0.694   1.858  -1.124  0.00  0.00    -0.166 F 
ENDBRANCH  25  29
ENDBRANCH  20  22
ENDBRANCH  19  20
ENDBRANCH  18  19
ENDBRANCH   1  18
TORSDOF 10
