REMARK  Name = ZINC32089107
REMARK  8 active torsions:
REMARK  status: ('A' for Active; 'I' for Inactive)
REMARK    1  A    between atoms: C_1  and  C_2
REMARK    2  A    between atoms: C_2  and  O_3
REMARK    3  A    between atoms: O_3  and  C_4
REMARK    4  A    between atoms: C_6  and  C_12
REMARK    5  A    between atoms: C_9  and  O_10
REMARK    6  A    between atoms: C_12  and  C_14
REMARK    7  A    between atoms: C_12  and  N_16
REMARK    8  A    between atoms: C_14  and  N_15
REMARK                            x       y       z     vdW  Elec       q    Type
REMARK                         _______ _______ _______ _____ _____    ______ ____
ROOT
ATOM      1  C   UNL     1      -0.462   2.805  -3.548  0.00  0.00    +0.163 A 
ATOM      2  C   UNL     1       0.111   2.351  -2.371  0.00  0.00    +0.051 A 
ATOM      3  C   UNL     1      -0.686   2.071  -1.276  0.00  0.00    -0.058 A 
ATOM      4  C   UNL     1      -2.054   2.253  -1.349  0.00  0.00    +0.021 A 
ATOM      5  C   UNL     1      -2.633   2.711  -2.519  0.00  0.00    +0.063 A 
ATOM      6  C   UNL     1      -1.839   2.988  -3.622  0.00  0.00    +0.173 A 
ATOM      7 BR   UNL     1      -4.505   2.958  -2.615  0.00  0.00    -0.046 Br
ENDROOT
BRANCH   6   8
ATOM      8  O   UNL     1      -2.406   3.438  -4.773  0.00  0.00    -0.503 OA
ATOM      9  H   UNL     1      -3.495   3.583  -4.830  0.00  0.00    +0.292 HD
ENDBRANCH   6   8
BRANCH   1  10
ATOM     10  O   UNL     1       0.320   3.075  -4.627  0.00  0.00    -0.489 OA
BRANCH  10  12
ATOM     11  C   UNL     1       2.435   3.219  -5.787  0.00  0.00    +0.048 C 
ATOM     12  C   UNL     1       1.725   2.864  -4.479  0.00  0.00    +0.226 C 
ENDBRANCH  10  12
ENDBRANCH   1  10
BRANCH   3  13
ATOM     13  C   UNL     1      -0.060   1.572   0.001  0.00  0.00    -0.055 C 
BRANCH  13  14
ATOM     14  N   UNL     1      -0.640   2.291   1.143  0.00  0.00    +0.383 N 
ATOM     15  C   UNL     1       0.021   1.894   2.413  0.00  0.00    -0.078 C 
ATOM     16  C   UNL     1      -0.310   3.069   3.367  0.00  0.00    -0.020 C 
ATOM     17  C   UNL     1      -0.227   4.302   2.439  0.00  0.00    -0.020 C 
ATOM     18  C   UNL     1      -0.425   3.749   1.016  0.00  0.00    -0.078 C 
ATOM     19  H   UNL     1      -1.711   2.039   1.143  0.00  0.00    -0.081 HD
ENDBRANCH  13  14
BRANCH  13  20
ATOM     20  C   UNL     1      -0.332   0.074   0.150  0.00  0.00    -0.098 C 
BRANCH  20  21
ATOM     21  N   UNL     1       0.270  -0.411   1.399  0.00  0.00    +0.377 N 
ATOM     22  H   UNL     1       0.074  -1.488   1.507  0.00  0.00    -0.090 HD
ATOM     23  H   UNL     1      -0.170   0.128   2.251  0.00  0.00    -0.090 HD
ATOM     24  H   UNL     1       1.355  -0.236   1.375  0.00  0.00    -0.090 HD
ENDBRANCH  20  21
ENDBRANCH  13  20
ENDBRANCH   3  13
TORSDOF 7
