REMARK  Name = ZINC38655431
REMARK  9 active torsions:
REMARK  status: ('A' for Active; 'I' for Inactive)
REMARK    1  A    between atoms: C_1  and  C_2
REMARK    2  A    between atoms: C_2  and  C_4
REMARK    3  A    between atoms: C_2  and  O_29
REMARK    4  A    between atoms: C_4  and  O_6
REMARK    5  A    between atoms: O_6  and  C_7
REMARK    6  A    between atoms: C_14  and  N_28
REMARK    7  A    between atoms: C_15  and  C_26
REMARK    8  A    between atoms: C_16  and  C_18
REMARK    9  A    between atoms: O_29  and  C_30
REMARK                            x       y       z     vdW  Elec       q    Type
REMARK                         _______ _______ _______ _____ _____    ______ ____
ROOT
ATOM      1  C   UNL     1       2.604  -0.502   2.740  0.00  0.00    +0.135 A 
ATOM      2  C   UNL     1       1.884  -1.344   3.576  0.00  0.00    +0.047 A 
ATOM      3  C   UNL     1       2.457  -1.812   4.742  0.00  0.00    +0.012 A 
ATOM      4  C   UNL     1       3.746  -1.444   5.083  0.00  0.00    +0.008 A 
ATOM      5  C   UNL     1       4.469  -0.603   4.251  0.00  0.00    +0.138 A 
ATOM      6  C   UNL     1       3.897  -0.136   3.075  0.00  0.00    +0.093 A 
ATOM      7  O   UNL     1       5.734  -0.231   4.568  0.00  0.00    -0.441 OA
ATOM      8  C   UNL     1       6.441  -0.947   5.458  0.00  0.00    +0.199 C 
ATOM      9  C   UNL     1       5.845  -1.788   6.336  0.00  0.00    +0.098 C 
ATOM     10  C   UNL     1       4.352  -1.964   6.360  0.00  0.00    +0.099 C 
ENDROOT
BRANCH  10  11
ATOM     11  C   UNL     1       3.779  -1.205   7.529  0.00  0.00    -0.016 A 
ATOM     12  C   UNL     1       3.940   0.166   7.609  0.00  0.00    +0.007 A 
ATOM     13  C   UNL     1       3.414   0.862   8.681  0.00  0.00    +0.020 A 
ATOM     14  C   UNL     1       2.727   0.187   9.675  0.00  0.00    +0.042 A 
ATOM     15  C   UNL     1       2.566  -1.184   9.595  0.00  0.00    +0.040 A 
ATOM     16  C   UNL     1       3.088  -1.880   8.519  0.00  0.00    +0.046 A 
ATOM     17 CL   UNL     1       2.881  -3.600   8.415  0.00  0.00    -0.083 Cl
ATOM     18 CL   UNL     1       2.068   1.062  11.022  0.00  0.00    -0.083 Cl
ENDBRANCH  10  11
BRANCH   8  19
ATOM     19  N   UNL     1       7.808  -0.824   5.478  0.00  0.00    -0.328 N 
ATOM     20  H   UNL     1       8.249  -0.225   4.855  0.00  0.00    +0.145 HD
ATOM     21  H   UNL     1       8.332  -1.334   6.114  0.00  0.00    +0.145 HD
ENDBRANCH   8  19
BRANCH   9  22
ATOM     22  C   UNL     1       6.652  -2.526   7.260  0.00  0.00    +0.101 C 
ATOM     23  N   UNL     1       7.293  -3.111   7.992  0.00  0.00    -0.191 NA
ENDBRANCH   9  22
BRANCH   1  24
ATOM     24  O   UNL     1       2.042  -0.041   1.591  0.00  0.00    -0.423 OA
BRANCH  24  25
ATOM     25  C   UNL     1       1.124   0.934   1.686  0.00  0.00    +0.353 C 
ATOM     26  O   UNL     1       0.887   1.440   2.758  0.00  0.00    -0.246 OA
BRANCH  25  28
ATOM     27  C   UNL     1       1.377   2.048  -0.515  0.00  0.00    +0.064 C 
ATOM     28  C   UNL     1       0.388   1.399   0.456  0.00  0.00    +0.279 C 
BRANCH  28  29
ATOM     29  O   UNL     1      -0.609   2.352   0.829  0.00  0.00    -0.475 OA
BRANCH  29  30
ATOM     30  C   UNL     1      -1.677   2.486  -0.003  0.00  0.00    +0.157 A 
ATOM     31  C   UNL     1      -1.708   1.802  -1.209  0.00  0.00    +0.048 A 
ATOM     32  C   UNL     1      -2.794   1.939  -2.052  0.00  0.00    +0.004 A 
ATOM     33  C   UNL     1      -3.849   2.759  -1.696  0.00  0.00    +0.003 A 
ATOM     34  C   UNL     1      -3.821   3.443  -0.496  0.00  0.00    +0.042 A 
ATOM     35  C   UNL     1      -2.740   3.304   0.356  0.00  0.00    +0.165 A 
ATOM     36  F   UNL     1      -2.716   3.968   1.532  0.00  0.00    -0.202 F 
ENDBRANCH  29  30
ENDBRANCH  28  29
ENDBRANCH  25  28
ENDBRANCH  24  25
ENDBRANCH   1  24
TORSDOF 8
