REMARK  Name = ZINC35736953
REMARK  8 active torsions:
REMARK  status: ('A' for Active; 'I' for Inactive)
REMARK    1  A    between atoms: C_1  and  C_2
REMARK    2  A    between atoms: C_2  and  C_4
REMARK    3  A    between atoms: C_2  and  N_9
REMARK    4  A    between atoms: N_9  and  S_10
REMARK    5  A    between atoms: S_10  and  C_13
REMARK    6  A    between atoms: C_16  and  C_18
REMARK    7  A    between atoms: C_18  and  C_19
REMARK    8  A    between atoms: C_19  and  N_20
REMARK                            x       y       z     vdW  Elec       q    Type
REMARK                         _______ _______ _______ _____ _____    ______ ____
ROOT
ATOM      1  S   UNL     1      -2.092  -0.923   1.446  0.00  0.00    +0.065 S 
ATOM      2  O   UNL     1      -3.411  -1.347   1.131  0.00  0.00    -0.153 OA
ATOM      3  O   UNL     1      -1.170  -1.752   2.140  0.00  0.00    -0.153 OA
ENDROOT
BRANCH   1   4
ATOM      4  C   UNL     1      -2.251   0.555   2.392  0.00  0.00    +0.143 A 
ATOM      5  C   UNL     1      -3.278   1.439   2.428  0.00  0.00    +0.036 A 
ATOM      6  C   UNL     1      -3.184   2.542   3.256  0.00  0.00    +0.013 A 
ATOM      7  C   UNL     1      -2.068   2.707   4.008  0.00  0.00    -0.010 A 
ATOM      8  S   UNL     1      -1.105   1.272   3.558  0.00  0.00    -0.074 S 
BRANCH   7   9
ATOM      9  C   UNL     1      -1.731   3.811   4.976  0.00  0.00    +0.023 C 
BRANCH   9  10
ATOM     10  C   UNL     1      -2.226   3.433   6.373  0.00  0.00    -0.081 C 
BRANCH  10  11
ATOM     11  N   UNL     1      -1.897   4.510   7.317  0.00  0.00    +0.378 N 
ATOM     12  H   UNL     1      -0.897   4.644   7.340  0.00  0.00    -0.090 HD
ATOM     13  H   UNL     1      -2.344   5.365   7.021  0.00  0.00    -0.090 HD
ATOM     14  H   UNL     1      -2.224   4.261   8.239  0.00  0.00    -0.090 HD
ENDBRANCH  10  11
ENDBRANCH   9  10
ENDBRANCH   7   9
ENDBRANCH   1   4
BRANCH   1  15
ATOM     15  N   UNL     1      -1.372  -0.511   0.012  0.00  0.00    -0.182 NA
ATOM     16  H   UNL     1      -1.861  -0.606  -0.820  0.00  0.00    +0.149 HD
BRANCH  15  18
ATOM     17  C   UNL     1      -0.019   1.526   0.010  0.00  0.00    +0.031 C 
ATOM     18  C   UNL     1       0.002  -0.004   0.002  0.00  0.00    +0.110 C 
BRANCH  18  19
ATOM     19  C   UNL     1       0.707  -0.490  -1.238  0.00  0.00    +0.008 A 
ATOM     20  C   UNL     1       1.980  -0.934  -1.377  0.00  0.00    +0.013 A 
ATOM     21  C   UNL     1       2.418  -1.335  -2.625  0.00  0.00    +0.008 A 
ATOM     22  C   UNL     1       1.561  -1.273  -3.674  0.00  0.00    +0.045 A 
ATOM     23  S   UNL     1       0.081  -0.638  -2.903  0.00  0.00    -0.100 S 
ENDBRANCH  18  19
ENDBRANCH  15  18
ENDBRANCH   1  15
TORSDOF 7
