REMARK  Name = ZINC41010260
REMARK  7 active torsions:
REMARK  status: ('A' for Active; 'I' for Inactive)
REMARK    1  A    between atoms: C_1  and  C_2
REMARK    2  A    between atoms: C_3  and  N_20
REMARK    3  A    between atoms: C_5  and  S_9
REMARK    4  A    between atoms: S_9  and  N_12
REMARK    5  A    between atoms: N_12  and  C_13
REMARK    6  A    between atoms: C_13  and  C_14
REMARK    7  A    between atoms: C_17  and  C_19
REMARK                            x       y       z     vdW  Elec       q    Type
REMARK                         _______ _______ _______ _____ _____    ______ ____
ROOT
ATOM      1  S   UNL     1       0.063  -4.536  -0.016  0.00  0.00    +0.059 S 
ATOM      2  O   UNL     1      -0.476  -4.952   1.231  0.00  0.00    -0.153 OA
ATOM      3  O   UNL     1      -0.488  -4.947  -1.260  0.00  0.00    -0.153 OA
ENDROOT
BRANCH   1   8
ATOM      4  C   UNL     1      -0.018   1.503   0.010  0.00  0.00    +0.047 C 
ATOM      5  C   UNL     1       0.002  -0.004   0.002  0.00  0.00    -0.011 A 
ATOM      6  C   UNL     1       0.006  -0.693  -1.204  0.00  0.00    +0.031 A 
ATOM      7  C   UNL     1       0.025  -2.082  -1.208  0.00  0.00    +0.051 A 
ATOM      8  C   UNL     1       0.040  -2.774  -0.012  0.00  0.00    +0.108 A 
ATOM      9  C   UNL     1       0.035  -2.087   1.187  0.00  0.00    +0.049 A 
ATOM     10  C   UNL     1       0.023  -0.702   1.194  0.00  0.00    +0.047 A 
ATOM     11 CL   UNL     1       0.026   0.157   2.703  0.00  0.00    -0.083 Cl
BRANCH   6  12
ATOM     12  N   UNL     1      -0.010   0.010  -2.411  0.00  0.00    -0.358 N 
ATOM     13  H   UNL     1      -0.023   0.980  -2.408  0.00  0.00    +0.142 HD
ATOM     14  H   UNL     1      -0.007  -0.472  -3.253  0.00  0.00    +0.142 HD
ENDBRANCH   6  12
ENDBRANCH   1   8
BRANCH   1  15
ATOM     15  N   UNL     1       1.652  -5.004  -0.025  0.00  0.00    -0.184 NA
ATOM     16  H   UNL     1       2.013  -5.480  -0.789  0.00  0.00    +0.148 HD
BRANCH  15  17
ATOM     17  C   UNL     1       2.511  -4.699   1.122  0.00  0.00    +0.161 C 
BRANCH  17  18
ATOM     18  C   UNL     1       3.768  -5.528   1.042  0.00  0.00    +0.064 A 
ATOM     19  C   UNL     1       4.907  -5.038   0.488  0.00  0.00    +0.071 A 
ATOM     20  S   UNL     1       5.996  -6.439   0.684  0.00  0.00    -0.080 S 
ATOM     21  C   UNL     1       4.905  -7.477   1.436  0.00  0.00    +0.076 A 
ATOM     22  N   UNL     1       3.813  -6.759   1.511  0.00  0.00    -0.248 NA
ATOM     23  C   UNL     1       5.132  -8.889   1.912  0.00  0.00    +0.073 C 
ENDBRANCH  17  18
ENDBRANCH  15  17
ENDBRANCH   1  15
TORSDOF 5
