REMARK  Name = ZINC64212767
REMARK  5 active torsions:
REMARK  status: ('A' for Active; 'I' for Inactive)
REMARK    1  A    between atoms: C_7  and  C_10
REMARK    2  A    between atoms: N_13  and  C_16
REMARK    3  A    between atoms: C_16  and  C_17
REMARK    4  A    between atoms: N_19  and  C_20
REMARK    5  A    between atoms: C_21  and  C_25
REMARK                            x       y       z     vdW  Elec       q    Type
REMARK                         _______ _______ _______ _____ _____    ______ ____
ROOT
ATOM      1  C   UNL     1       0.673  -3.130  -0.021  0.00  0.00    -0.043 C 
ATOM      2  C   UNL     1      -0.632  -2.891   0.089  0.00  0.00    -0.008 C 
ATOM      3  C   UNL     1      -1.661  -3.984   0.109  0.00  0.00    +0.112 C 
ATOM      4  N   UNL     1      -1.086  -5.233  -0.407  0.00  0.00    -0.290 NA
ATOM      5  C   UNL     1       0.174  -5.540   0.289  0.00  0.00    +0.090 C 
ATOM      6  C   UNL     1       1.231  -4.521  -0.148  0.00  0.00    +0.050 C 
ENDROOT
BRANCH   1  13
ATOM      7  C   UNL     1       5.153  -2.874  -0.680  0.00  0.00    +0.001 A 
ATOM      8  C   UNL     1       5.659  -1.573  -0.599  0.00  0.00    +0.002 A 
ATOM      9  C   UNL     1       4.860  -0.509  -0.345  0.00  0.00    +0.026 A 
ATOM     10  C   UNL     1       3.466  -0.703  -0.154  0.00  0.00    +0.043 A 
ATOM     11  N   UNL     1       2.495   0.148   0.101  0.00  0.00    -0.380 N 
ATOM     12  C   UNL     1       1.229  -0.582   0.207  0.00  0.00    +0.149 C 
ATOM     13  C   UNL     1       1.565  -2.039  -0.024  0.00  0.00    -0.016 C 
ATOM     14  C   UNL     1       2.937  -2.076  -0.241  0.00  0.00    +0.003 A 
ATOM     15  C   UNL     1       3.834  -3.137  -0.509  0.00  0.00    +0.010 A 
ATOM     16  H   UNL     1       2.601   1.107   0.202  0.00  0.00    +0.160 HD
ENDBRANCH   1  13
BRANCH   4  17
ATOM     17  C   UNL     1      -2.040  -6.343  -0.283  0.00  0.00    +0.181 C 
BRANCH  17  18
ATOM     18  C   UNL     1      -3.221  -6.093  -1.185  0.00  0.00    +0.232 C 
ATOM     19  O   UNL     1      -3.263  -5.089  -1.865  0.00  0.00    -0.274 OA
ATOM     20  N   UNL     1      -4.230  -6.985  -1.238  0.00  0.00    -0.278 N 
ATOM     21  H   UNL     1      -4.196  -7.788  -0.694  0.00  0.00    +0.155 HD
BRANCH  20  22
ATOM     22  C   UNL     1      -5.316  -6.755  -2.068  0.00  0.00    +0.084 A 
ATOM     23  C   UNL     1      -6.438  -7.552  -2.245  0.00  0.00    +0.065 A 
ATOM     24  C   UNL     1      -7.430  -7.073  -3.180  0.00  0.00    +0.022 A 
ATOM     25  C   UNL     1      -7.154  -5.900  -3.779  0.00  0.00    +0.048 A 
ATOM     26  S   UNL     1      -5.580  -5.446  -3.083  0.00  0.00    -0.081 S 
BRANCH  23  27
ATOM     27  C   UNL     1      -6.608  -8.816  -1.521  0.00  0.00    +0.244 C 
ATOM     28  O   UNL     1      -5.752  -9.190  -0.741  0.00  0.00    -0.270 OA
ATOM     29  N   UNL     1      -7.712  -9.563  -1.720  0.00  0.00    -0.325 N 
ATOM     30  H   UNL     1      -8.394  -9.265  -2.342  0.00  0.00    +0.145 HD
ATOM     31  H   UNL     1      -7.824 -10.399  -1.241  0.00  0.00    +0.145 HD
ENDBRANCH  23  27
ENDBRANCH  20  22
ENDBRANCH  17  18
ENDBRANCH   4  17
TORSDOF 5
