REMARK  Name = ZINC41026391
REMARK  8 active torsions:
REMARK  status: ('A' for Active; 'I' for Inactive)
REMARK    1  A    between atoms: N_3  and  C_6
REMARK    2  A    between atoms: C_6  and  C_7
REMARK    3  A    between atoms: C_7  and  C_8
REMARK    4  A    between atoms: C_8  and  N_9
REMARK    5  A    between atoms: C_13  and  N_29
REMARK    6  A    between atoms: C_14  and  N_16
REMARK    7  A    between atoms: N_16  and  C_17
REMARK    8  A    between atoms: C_18  and  C_26
REMARK                            x       y       z     vdW  Elec       q    Type
REMARK                         _______ _______ _______ _____ _____    ______ ____
ROOT
ATOM      1  N   UNL     1       6.075   0.589   2.771  0.00  0.00    -0.313 N 
ATOM      2  C   UNL     1       7.438   0.569   3.011  0.00  0.00    +0.219 A 
ATOM      3  N   UNL     1       8.274   0.569   1.983  0.00  0.00    -0.197 NA
ATOM      4  C   UNL     1       9.591   0.550   2.175  0.00  0.00    +0.154 A 
ATOM      5  C   UNL     1      10.085   0.531   3.477  0.00  0.00    +0.205 A 
ATOM      6  C   UNL     1       9.177   0.533   4.530  0.00  0.00    +0.161 A 
ATOM      7  N   UNL     1       7.873   0.556   4.262  0.00  0.00    -0.197 NA
ATOM      8  N   UNL     1      10.459   0.549   1.095  0.00  0.00    -0.341 N 
ATOM      9  H   UNL     1       5.452   0.594   3.514  0.00  0.00    +0.149 HD
ATOM     10  H   UNL     1      10.107   0.562   0.191  0.00  0.00    +0.144 HD
ATOM     11  H   UNL     1      11.417   0.536   1.242  0.00  0.00    +0.144 HD
ENDROOT
BRANCH   5  12
ATOM     12  N   UNL     1      11.543   0.510   3.734  0.00  0.00    +0.063 N 
ATOM     13  O   UNL     1      12.152   1.548   3.848  0.00  0.00    -0.126 OA
ATOM     14  O   UNL     1      12.125  -0.545   3.828  0.00  0.00    -0.126 OA
ENDBRANCH   5  12
BRANCH   6  15
ATOM     15  N   UNL     1       9.623   0.514   5.844  0.00  0.00    -0.291 N 
ATOM     16  H   UNL     1      10.575   0.500   6.033  0.00  0.00    +0.154 HD
BRANCH  15  17
ATOM     17  C   UNL     1       8.711   0.515   6.886  0.00  0.00    +0.084 A 
ATOM     18  C   UNL     1       8.972   0.504   8.248  0.00  0.00    +0.068 A 
ATOM     19  C   UNL     1       7.827   0.509   9.143  0.00  0.00    -0.023 A 
ATOM     20  C   UNL     1       6.634   0.524   8.512  0.00  0.00    -0.004 A 
ATOM     21  S   UNL     1       7.035   0.538   6.790  0.00  0.00    -0.077 S 
ATOM     22  C   UNL     1       5.279   0.531   9.151  0.00  0.00    +0.043 C 
ATOM     23  C   UNL     1       5.440   0.138  10.627  0.00  0.00    +0.005 C 
ATOM     24  C   UNL     1       6.579   0.960  11.237  0.00  0.00    +0.005 C 
ATOM     25  C   UNL     1       7.920   0.499  10.661  0.00  0.00    +0.037 C 
BRANCH  18  26
ATOM     26  C   UNL     1      10.344   0.487   8.762  0.00  0.00    +0.244 C 
ATOM     27  O   UNL     1      10.924   1.534   8.983  0.00  0.00    -0.270 OA
ATOM     28  N   UNL     1      10.963  -0.688   8.991  0.00  0.00    -0.325 N 
ATOM     29  H   UNL     1      10.501  -1.522   8.815  0.00  0.00    +0.145 HD
ATOM     30  H   UNL     1      11.871  -0.699   9.332  0.00  0.00    +0.145 HD
ENDBRANCH  18  26
ENDBRANCH  15  17
ENDBRANCH   6  15
BRANCH   1  31
ATOM     31  C   UNL     1       5.574   0.603   1.395  0.00  0.00    +0.106 C 
BRANCH  31  32
ATOM     32  C   UNL     1       4.044   0.624   1.409  0.00  0.00    +0.040 C 
BRANCH  32  33
ATOM     33  C   UNL     1       3.521   0.638  -0.028  0.00  0.00    +0.124 C 
BRANCH  33  36
ATOM     34  C   UNL     1      -0.016   1.337   0.009  0.00  0.00    +0.101 A 
ATOM     35  C   UNL     1       1.259   1.771  -0.000  0.00  0.00    +0.104 A 
ATOM     36  N   UNL     1       2.056   0.658  -0.014  0.00  0.00    -0.338 N 
ATOM     37  C   UNL     1       1.240  -0.418  -0.012  0.00  0.00    +0.173 A 
ATOM     38  N   UNL     1       0.002  -0.004   0.002  0.00  0.00    -0.352 N 
ATOM     39  H   UNL     1      -0.781  -0.576   0.007  0.00  0.00    +0.166 HD
ENDBRANCH  33  36
ENDBRANCH  32  33
ENDBRANCH  31  32
ENDBRANCH   1  31
TORSDOF 8
