REMARK  Name = ZINC65301183
REMARK  8 active torsions:
REMARK  status: ('A' for Active; 'I' for Inactive)
REMARK    1  A    between atoms: C_1  and  C_2
REMARK    2  A    between atoms: C_5  and  C_36
REMARK    3  A    between atoms: C_6  and  N_8
REMARK    4  A    between atoms: C_9  and  C_11
REMARK    5  A    between atoms: N_14  and  C_17
REMARK    6  A    between atoms: C_18  and  C_27
REMARK    7  A    between atoms: C_23  and  C_26
REMARK    8  A    between atoms: C_32  and  C_35
REMARK                            x       y       z     vdW  Elec       q    Type
REMARK                         _______ _______ _______ _____ _____    ______ ____
ROOT
ATOM      1  C   UNL     1      -1.679  -3.412   8.850  0.00  0.00    +0.055 A 
ATOM      2  C   UNL     1      -2.964  -2.893   9.063  0.00  0.00    +0.074 A 
ATOM      3  C   UNL     1      -3.655  -3.201  10.242  0.00  0.00    +0.098 A 
ATOM      4  N   UNL     1      -3.107  -3.976  11.154  0.00  0.00    -0.353 N 
ATOM      5  C   UNL     1      -1.903  -4.485  10.997  0.00  0.00    +0.107 A 
ATOM      6  C   UNL     1      -1.114  -4.250   9.847  0.00  0.00    +0.050 A 
ATOM      7  C   UNL     1       0.131  -4.900   9.896  0.00  0.00    +0.058 A 
ATOM      8  N   UNL     1       0.457  -5.631  10.916  0.00  0.00    -0.213 NA
ATOM      9  S   UNL     1      -0.850  -5.538  11.962  0.00  0.00    +0.030 S 
ATOM     10  C   UNL     1       1.097  -4.747   8.749  0.00  0.00    +0.067 C 
ATOM     11  H   UNL     1      -3.603  -4.177  11.963  0.00  0.00    +0.166 HD
ENDROOT
BRANCH   2  12
ATOM     12  C   UNL     1      -3.586  -2.025   8.050  0.00  0.00    +0.250 C 
ATOM     13  O   UNL     1      -3.761  -2.438   6.920  0.00  0.00    -0.270 OA
ATOM     14  N   UNL     1      -3.962  -0.772   8.376  0.00  0.00    -0.297 N 
ATOM     15  C   UNL     1      -3.652  -0.218   9.701  0.00  0.00    +0.108 C 
ATOM     16  C   UNL     1      -2.921   1.116   9.519  0.00  0.00    +0.022 C 
ATOM     17  C   UNL     1      -3.762   2.038   8.633  0.00  0.00    -0.011 C 
ATOM     18  C   UNL     1      -3.946   1.396   7.256  0.00  0.00    +0.022 C 
ATOM     19  C   UNL     1      -4.684   0.068   7.410  0.00  0.00    +0.108 C 
ATOM     20  C   UNL     1      -3.050   3.383   8.477  0.00  0.00    +0.007 C 
ENDBRANCH   2  12
BRANCH   1  24
ATOM     21  C   UNL     1      -0.473  -1.950   5.171  0.00  0.00    +0.078 C 
ATOM     22  C   UNL     1      -1.506  -3.070   5.312  0.00  0.00    +0.031 C 
ATOM     23  C   UNL     1      -1.127  -3.961   6.500  0.00  0.00    +0.106 C 
ATOM     24  N   UNL     1      -0.982  -3.119   7.695  0.00  0.00    -0.329 N 
ATOM     25  C   UNL     1      -0.082  -1.959   7.638  0.00  0.00    +0.106 C 
ATOM     26  C   UNL     1      -0.472  -1.091   6.437  0.00  0.00    +0.031 C 
BRANCH  21  28
ATOM     27  N   UNL     1      -0.885  -1.637   2.752  0.00  0.00    -0.285 N 
ATOM     28  C   UNL     1      -0.823  -1.091   3.982  0.00  0.00    +0.220 C 
ATOM     29  O   UNL     1      -1.050   0.090   4.134  0.00  0.00    -0.275 OA
ATOM     30  H   UNL     1      -0.780  -2.595   2.640  0.00  0.00    +0.155 HD
BRANCH  27  36
ATOM     31  C   UNL     1      -0.631   2.793   0.636  0.00  0.00    +0.044 C 
ATOM     32  C   UNL     1      -0.985   1.330   0.582  0.00  0.00    -0.049 A 
ATOM     33  C   UNL     1      -1.522   0.791  -0.574  0.00  0.00    +0.004 A 
ATOM     34  C   UNL     1      -1.847  -0.552  -0.627  0.00  0.00    +0.005 A 
ATOM     35  C   UNL     1      -1.637  -1.360   0.473  0.00  0.00    -0.029 A 
ATOM     36  C   UNL     1      -1.098  -0.822   1.635  0.00  0.00    +0.037 A 
ATOM     37  C   UNL     1      -0.768   0.526   1.684  0.00  0.00    +0.027 A 
ATOM     38  C   UNL     1      -1.992  -2.823   0.414  0.00  0.00    +0.045 C 
ENDBRANCH  27  36
ENDBRANCH  21  28
ENDBRANCH   1  24
TORSDOF 4
