REMARK  Name = ZINC01818498
REMARK  10 active torsions:
REMARK  status: ('A' for Active; 'I' for Inactive)
REMARK    1  A    between atoms: C_1  and  C_2
REMARK    2  A    between atoms: C_6  and  N_9
REMARK    3  A    between atoms: C_7  and  C_8
REMARK    4  A    between atoms: C_14  and  C_16
REMARK    5  A    between atoms: C_14  and  C_17
REMARK    6  A    between atoms: C_14  and  N_62
REMARK    7  A    between atoms: N_19  and  C_20
REMARK    8  A    between atoms: C_29  and  C_30
REMARK    9  A    between atoms: C_30  and  O_32
REMARK   10  A    between atoms: O_32  and  C_33
REMARK                            x       y       z     vdW  Elec       q    Type
REMARK                         _______ _______ _______ _____ _____    ______ ____
ROOT
ATOM      1  C   UNL     1      -1.275   1.815   0.130  0.00  0.00    +0.203 C 
ATOM      2  O   UNL     1      -1.325   2.989  -0.170  0.00  0.00    -0.277 OA
ATOM      3  N   UNL     1      -0.085   1.183   0.183  0.00  0.00    -0.284 N 
ATOM      4  H   UNL     1      -0.050   0.228   0.347  0.00  0.00    +0.155 HD
ENDROOT
BRANCH   3   5
ATOM      5  C   UNL     1       1.092   1.901  -0.002  0.00  0.00    +0.073 A 
ATOM      6  C   UNL     1       1.303   3.010  -0.935  0.00  0.00    +0.023 A 
ATOM      7  C   UNL     1       0.480   3.659  -1.861  0.00  0.00    +0.031 A 
ATOM      8  C   UNL     1       0.978   4.690  -2.607  0.00  0.00    +0.042 A 
ATOM      9  C   UNL     1       2.297   5.099  -2.452  0.00  0.00    +0.022 A 
ATOM     10  C   UNL     1       3.123   4.479  -1.542  0.00  0.00    +0.028 A 
ATOM     11  C   UNL     1       2.639   3.423  -0.773  0.00  0.00    +0.049 A 
ATOM     12  N   UNL     1       3.217   2.622   0.184  0.00  0.00    -0.348 N 
ATOM     13  H   UNL     1       4.136   2.689   0.486  0.00  0.00    +0.166 HD
ATOM     14  C   UNL     1       2.290   1.702   0.653  0.00  0.00    +0.147 A 
ATOM     15 CL   UNL     1      -0.045   5.494  -3.756  0.00  0.00    -0.084 Cl
BRANCH  14  16
ATOM     16  C   UNL     1       2.534   0.718   1.645  0.00  0.00    +0.357 C 
ATOM     17  O   UNL     1       1.674  -0.099   1.915  0.00  0.00    -0.243 OA
BRANCH  16  18
ATOM     18  O   UNL     1       3.720   0.689   2.289  0.00  0.00    -0.463 OA
ATOM     19  C   UNL     1       3.897  -0.330   3.275  0.00  0.00    +0.280 C 
ENDBRANCH  16  18
ENDBRANCH  14  16
ENDBRANCH   3   5
BRANCH   1  20
ATOM     20  C   UNL     1      -2.542   1.061   0.442  0.00  0.00    +0.017 C 
ATOM     21  C   UNL     1      -3.057   0.381  -0.829  0.00  0.00    -0.004 C 
BRANCH  20  27
ATOM     22  N   UNL     1      -5.444   2.995   2.827  0.00  0.00    -0.333 N 
ATOM     23  C   UNL     1      -5.893   2.341   1.590  0.00  0.00    +0.086 C 
ATOM     24  C   UNL     1      -4.845   1.319   1.146  0.00  0.00    -0.059 C 
ATOM     25  C   UNL     1      -3.108   2.651   2.179  0.00  0.00    -0.059 C 
ATOM     26  C   UNL     1      -4.157   3.674   2.622  0.00  0.00    +0.086 C 
ATOM     27  N   UNL     1      -3.562   2.018   0.923  0.00  0.00    +0.389 N 
ATOM     28  H   UNL     1      -3.698   2.746   0.212  0.00  0.00    -0.081 HD
BRANCH  22  34
ATOM     29  C   UNL     1      -8.520   4.388   6.398  0.00  0.00    +0.044 C 
ATOM     30  C   UNL     1      -7.918   4.585   5.030  0.00  0.00    -0.046 A 
ATOM     31  C   UNL     1      -8.322   5.648   4.244  0.00  0.00    +0.004 A 
ATOM     32  C   UNL     1      -7.773   5.833   2.989  0.00  0.00    +0.002 A 
ATOM     33  C   UNL     1      -6.817   4.954   2.516  0.00  0.00    +0.023 A 
ATOM     34  C   UNL     1      -6.409   3.885   3.302  0.00  0.00    +0.033 A 
ATOM     35  C   UNL     1      -6.968   3.700   4.561  0.00  0.00    -0.027 A 
ATOM     36  C   UNL     1      -6.532   2.537   5.415  0.00  0.00    +0.046 C 
ENDBRANCH  22  34
ENDBRANCH  20  27
ENDBRANCH   1  20
TORSDOF 6
