REMARK  Name = ZINC39446732
REMARK  4 active torsions:
REMARK  status: ('A' for Active; 'I' for Inactive)
REMARK    1  A    between atoms: C_7  and  C_13
REMARK    2  A    between atoms: N_15  and  N_16
REMARK    3  A    between atoms: C_17  and  C_19
REMARK    4  A    between atoms: N_25  and  C_26
REMARK                            x       y       z     vdW  Elec       q    Type
REMARK                         _______ _______ _______ _____ _____    ______ ____
ROOT
ATOM      1  N   UNL     1      -1.512  -4.801  -2.126  0.00  0.00    -0.229 N 
ATOM      2  C   UNL     1      -2.816  -4.459  -2.141  0.00  0.00    +0.278 C 
ATOM      3  O   UNL     1      -3.401  -4.248  -1.095  0.00  0.00    -0.267 OA
ATOM      4  H   UNL     1      -1.045  -4.969  -2.960  0.00  0.00    +0.173 HD
ENDROOT
BRANCH   2   5
ATOM      5  C   UNL     1      -3.528  -4.341  -3.417  0.00  0.00    +0.128 A 
ATOM      6  H   UNL     1      -3.885  -4.302  -6.531  0.00  0.00    +0.167 HD
ATOM      7  C   UNL     1      -2.987  -4.449  -4.651  0.00  0.00    +0.116 A 
ATOM      8  N   UNL     1      -3.990  -4.276  -5.567  0.00  0.00    -0.339 N 
ATOM      9  C   UNL     1      -5.144  -4.063  -4.909  0.00  0.00    +0.163 A 
ATOM     10  S   UNL     1      -6.673  -3.794  -5.632  0.00  0.00    -0.013 S 
ATOM     11  N   UNL     1      -4.897  -4.103  -3.585  0.00  0.00    -0.284 N 
BRANCH  11  12
ATOM     12  C   UNL     1      -5.838  -3.933  -2.561  0.00  0.00    +0.049 A 
ATOM     13  C   UNL     1      -6.110  -2.663  -2.070  0.00  0.00    +0.029 A 
ATOM     14  C   UNL     1      -7.039  -2.498  -1.062  0.00  0.00    +0.040 A 
ATOM     15  C   UNL     1      -7.699  -3.598  -0.540  0.00  0.00    +0.124 A 
ATOM     16  C   UNL     1      -7.429  -4.865  -1.028  0.00  0.00    +0.040 A 
ATOM     17  C   UNL     1      -6.505  -5.034  -2.041  0.00  0.00    +0.029 A 
ATOM     18  F   UNL     1      -8.607  -3.434   0.447  0.00  0.00    -0.205 F 
ENDBRANCH  11  12
ENDBRANCH   2   5
BRANCH   1  21
ATOM     19  C   UNL     1       0.472  -5.255  -0.892  0.00  0.00    +0.257 C 
ATOM     20  O   UNL     1       1.056  -5.465  -1.935  0.00  0.00    -0.272 OA
ATOM     21  N   UNL     1      -0.831  -4.913  -0.907  0.00  0.00    -0.232 N 
ATOM     22  H   UNL     1      -1.298  -4.745  -0.074  0.00  0.00    +0.173 HD
BRANCH  19  29
ATOM     23  C   UNL     1       1.069  -1.741   1.488  0.00  0.00    +0.000 A 
ATOM     24  C   UNL     1       2.413  -1.482   1.697  0.00  0.00    +0.001 A 
ATOM     25  C   UNL     1       3.356  -2.470   1.496  0.00  0.00    +0.013 A 
ATOM     26  C   UNL     1       2.944  -3.733   1.079  0.00  0.00    +0.046 A 
ATOM     27  C   UNL     1       1.581  -3.985   0.871  0.00  0.00    -0.003 A 
ATOM     28  C   UNL     1       0.652  -2.997   1.073  0.00  0.00    +0.007 A 
ATOM     29  C   UNL     1       1.205  -5.376   0.419  0.00  0.00    +0.214 C 
ATOM     30  N   UNL     1       2.297  -6.344   0.238  0.00  0.00    -0.298 N 
ATOM     31  N   UNL     1       3.471  -6.041   0.443  0.00  0.00    -0.104 NA
ATOM     32  C   UNL     1       3.897  -4.833   0.845  0.00  0.00    +0.283 C 
ATOM     33  O   UNL     1       5.085  -4.644   1.018  0.00  0.00    -0.267 OA
ATOM     34  H   UNL     1       2.085  -7.245  -0.051  0.00  0.00    +0.181 HD
ENDBRANCH  19  29
ENDBRANCH   1  21
TORSDOF 4
