REMARK  Name = ZINC07719083
REMARK  14 active torsions:
REMARK  status: ('A' for Active; 'I' for Inactive)
REMARK    1  A    between atoms: C_1  and  C_2
REMARK    2  A    between atoms: C_2  and  C_3
REMARK    3  A    between atoms: C_3  and  C_5
REMARK    4  A    between atoms: C_3  and  C_6
REMARK    5  A    between atoms: C_9  and  C_12
REMARK    6  A    between atoms: C_12  and  C_14
REMARK    7  A    between atoms: C_12  and  N_61
REMARK    8  A    between atoms: C_14  and  C_15
REMARK    9  A    between atoms: C_14  and  C_16
REMARK   10  A    between atoms: C_17  and  C_19
REMARK   11  A    between atoms: C_17  and  C_20
REMARK   12  A    between atoms: C_17  and  N_61
REMARK   13  A    between atoms: N_22  and  C_23
REMARK   14  A    between atoms: C_26  and  C_29
REMARK                            x       y       z     vdW  Elec       q    Type
REMARK                         _______ _______ _______ _____ _____    ______ ____
ROOT
ATOM      1  C   UNL     1      -1.456   2.408   2.379  0.00  0.00    +0.014 C 
ATOM      2  C   UNL     1      -1.841   0.963   2.053  0.00  0.00    -0.004 C 
ENDROOT
BRANCH   1   3
ATOM      3  C   UNL     1      -0.578   2.429   3.604  0.00  0.00    +0.203 C 
ATOM      4  O   UNL     1       0.544   2.883   3.538  0.00  0.00    -0.277 OA
ATOM      5  N   UNL     1      -1.041   1.943   4.773  0.00  0.00    -0.287 N 
ATOM      6  H   UNL     1      -1.914   1.522   4.812  0.00  0.00    +0.155 HD
BRANCH   5   7
ATOM      7  C   UNL     1      -0.264   2.045   5.926  0.00  0.00    +0.033 A 
ATOM      8  C   UNL     1       1.120   1.926   5.844  0.00  0.00    +0.024 A 
ATOM      9  C   UNL     1       1.890   2.031   6.980  0.00  0.00    +0.015 A 
ATOM     10  C   UNL     1       1.280   2.246   8.219  0.00  0.00    +0.037 A 
ATOM     11  C   UNL     1      -0.111   2.360   8.299  0.00  0.00    +0.015 A 
ATOM     12  C   UNL     1      -0.875   2.259   7.158  0.00  0.00    +0.024 A 
BRANCH  10  13
ATOM     13  C   UNL     1       2.102   2.354   9.440  0.00  0.00    +0.242 C 
ATOM     14  O   UNL     1       1.570   2.542  10.517  0.00  0.00    -0.270 OA
ATOM     15  N   UNL     1       3.443   2.245   9.361  0.00  0.00    -0.325 N 
ATOM     16  H   UNL     1       3.868   2.095   8.502  0.00  0.00    +0.145 HD
ATOM     17  H   UNL     1       3.983   2.316  10.163  0.00  0.00    +0.145 HD
ENDBRANCH  10  13
ENDBRANCH   5   7
ENDBRANCH   1   3
BRANCH   1  18
ATOM     18  N   UNL     1      -0.716   2.988   1.243  0.00  0.00    +0.391 N 
ATOM     19  H   UNL     1      -0.055   3.691   1.593  0.00  0.00    -0.084 HD
ATOM     20  H   UNL     1      -0.200   2.244   0.759  0.00  0.00    -0.084 HD
BRANCH  18  21
ATOM     21  C   UNL     1      -1.650   3.627   0.296  0.00  0.00    -0.037 C 
BRANCH  21  25
ATOM     22  C   UNL     1      -2.215   7.716   1.394  0.00  0.00    -0.045 A 
ATOM     23  C   UNL     1      -3.287   6.966   0.950  0.00  0.00    +0.004 A 
ATOM     24  C   UNL     1      -3.104   5.642   0.594  0.00  0.00    +0.002 A 
ATOM     25  C   UNL     1      -1.849   5.070   0.683  0.00  0.00    -0.061 A 
ATOM     26  C   UNL     1      -0.778   5.819   1.133  0.00  0.00    +0.002 A 
ATOM     27  C   UNL     1      -0.960   7.144   1.483  0.00  0.00    +0.004 A 
BRANCH  22  28
ATOM     28  C   UNL     1      -2.414   9.159   1.782  0.00  0.00    +0.016 C 
ATOM     29  C   UNL     1      -2.023   9.352   3.248  0.00  0.00    +0.012 C 
BRANCH  28  31
ATOM     30  C   UNL     1      -1.831  11.520   1.206  0.00  0.00    +0.004 C 
ATOM     31  C   UNL     1      -1.538  10.050   0.899  0.00  0.00    +0.004 C 
ENDBRANCH  28  31
ENDBRANCH  22  28
ENDBRANCH  21  25
BRANCH  21  32
ATOM     32  C   UNL     1      -1.064   3.554  -1.115  0.00  0.00    -0.027 C 
ATOM     33  C   UNL     1      -0.982   2.092  -1.558  0.00  0.00    +0.006 C 
ATOM     34  C   UNL     1      -1.961   4.330  -2.081  0.00  0.00    +0.006 C 
ENDBRANCH  21  32
ENDBRANCH  18  21
ENDBRANCH   1  18
TORSDOF 9
