REMARK  Name = ZINC03007175
REMARK  10 active torsions:
REMARK  status: ('A' for Active; 'I' for Inactive)
REMARK    1  A    between atoms: C_1  and  C_2
REMARK    2  A    between atoms: C_2  and  C_3
REMARK    3  A    between atoms: C_2  and  N_56
REMARK    4  A    between atoms: C_9  and  N_14
REMARK    5  A    between atoms: C_10  and  C_11
REMARK    6  A    between atoms: C_15  and  C_17
REMARK    7  A    between atoms: C_20  and  S_23
REMARK    8  A    between atoms: S_23  and  N_26
REMARK    9  A    between atoms: N_26  and  C_27
REMARK   10  A    between atoms: N_26  and  C_28
REMARK                            x       y       z     vdW  Elec       q    Type
REMARK                         _______ _______ _______ _____ _____    ______ ____
ROOT
ATOM      1  C   UNL     1       2.017   2.978  -3.634  0.00  0.00    -0.073 C 
ATOM      2  C   UNL     1       1.330   2.047  -2.631  0.00  0.00    +0.018 C 
ATOM      3  C   UNL     1       1.880   2.355  -1.243  0.00  0.00    -0.027 A 
ATOM      4  C   UNL     1       3.038   3.042  -1.109  0.00  0.00    -0.021 A 
ATOM      5  S   UNL     1       3.287   3.171   0.637  0.00  0.00    -0.079 S 
ATOM      6  C   UNL     1       1.873   2.331   1.184  0.00  0.00    +0.085 A 
ATOM      7  C   UNL     1       1.245   1.963   0.001  0.00  0.00    +0.068 A 
ATOM      8  C   UNL     1       3.896   3.562  -2.220  0.00  0.00    -0.035 C 
ATOM      9  N   UNL     1       3.482   2.881  -3.470  0.00  0.00    +0.384 N 
ATOM     10  H   UNL     1       3.746   1.890  -3.414  0.00  0.00    -0.081 HD
ENDROOT
BRANCH   7  11
ATOM     11  C   UNL     1      -0.014   1.213   0.009  0.00  0.00    +0.244 C 
ATOM     12  O   UNL     1       0.002  -0.004   0.002  0.00  0.00    -0.270 OA
ATOM     13  N   UNL     1      -1.191   1.871   0.018  0.00  0.00    -0.325 N 
ATOM     14  H   UNL     1      -2.024   1.375   0.019  0.00  0.00    +0.145 HD
ATOM     15  H   UNL     1      -1.204   2.841   0.023  0.00  0.00    +0.145 HD
ENDBRANCH   7  11
BRANCH   6  16
ATOM     16  N   UNL     1       1.469   2.084   2.486  0.00  0.00    -0.275 N 
ATOM     17  C   UNL     1       2.215   2.523   3.518  0.00  0.00    +0.249 C 
ATOM     18  O   UNL     1       3.244   3.136   3.307  0.00  0.00    -0.270 OA
ATOM     19  H   UNL     1       0.648   1.595   2.654  0.00  0.00    +0.156 HD
BRANCH  17  20
ATOM     20  C   UNL     1       1.784   2.259   4.907  0.00  0.00    +0.037 A 
ATOM     21  C   UNL     1       0.601   1.561   5.153  0.00  0.00    +0.015 A 
ATOM     22  C   UNL     1       0.207   1.313   6.452  0.00  0.00    +0.029 A 
ATOM     23  C   UNL     1       0.975   1.765   7.509  0.00  0.00    +0.105 A 
ATOM     24  C   UNL     1       2.147   2.463   7.272  0.00  0.00    +0.029 A 
ATOM     25  C   UNL     1       2.555   2.713   5.979  0.00  0.00    +0.015 A 
BRANCH  23  26
ATOM     26  S   UNL     1       0.461   1.451   9.165  0.00  0.00    +0.060 S 
ATOM     27  O   UNL     1      -0.383   0.308   9.118  0.00  0.00    -0.153 OA
ATOM     28  O   UNL     1       1.631   1.502   9.970  0.00  0.00    -0.153 OA
BRANCH  26  29
ATOM     29  N   UNL     1      -0.491   2.723   9.632  0.00  0.00    -0.183 NA
ATOM     30  C   UNL     1      -1.937   2.678   9.404  0.00  0.00    +0.131 C 
ATOM     31  C   UNL     1       0.114   3.894  10.272  0.00  0.00    +0.131 C 
ENDBRANCH  26  29
ENDBRANCH  23  26
ENDBRANCH  17  20
ENDBRANCH   6  16
BRANCH   9  33
ATOM     32  C   UNL     1       5.670   3.515  -4.373  0.00  0.00    -0.014 C 
ATOM     33  C   UNL     1       4.162   3.495  -4.631  0.00  0.00    -0.074 C 
ATOM     34  C   UNL     1       3.870   2.657  -5.877  0.00  0.00    -0.014 C 
ENDBRANCH   9  33
TORSDOF 6
