REMARK  Name = ZINC05192172
REMARK  6 active torsions:
REMARK  status: ('A' for Active; 'I' for Inactive)
REMARK    1  A    between atoms: C_1  and  N_43
REMARK    2  A    between atoms: C_7  and  N_12
REMARK    3  A    between atoms: C_8  and  C_9
REMARK    4  A    between atoms: C_13  and  C_15
REMARK    5  A    between atoms: C_15  and  S_16
REMARK    6  A    between atoms: S_16  and  C_17
REMARK                            x       y       z     vdW  Elec       q    Type
REMARK                         _______ _______ _______ _____ _____    ______ ____
ROOT
ATOM      1  C   UNL     1      -1.350  -0.550   0.181  0.00  0.00    -0.096 C 
ATOM      2  C   UNL     1       0.918  -0.518   1.030  0.00  0.00    -0.074 C 
ATOM      3  C   UNL     1       2.370  -0.253   0.622  0.00  0.00    +0.018 C 
ATOM      4  C   UNL     1       2.501   1.223   0.266  0.00  0.00    -0.027 A 
ATOM      5  C   UNL     1       1.397   1.958  -0.001  0.00  0.00    -0.021 A 
ATOM      6  S   UNL     1       2.009   3.579  -0.354  0.00  0.00    -0.079 S 
ATOM      7  C   UNL     1       3.706   3.288  -0.153  0.00  0.00    +0.084 A 
ATOM      8  C   UNL     1       3.759   1.942   0.183  0.00  0.00    +0.068 A 
ATOM      9  C   UNL     1      -0.018   1.471   0.010  0.00  0.00    -0.036 C 
ATOM     10  N   UNL     1       0.012  -0.012  -0.022  0.00  0.00    +0.381 N 
ATOM     11  H   UNL     1       0.360  -0.319  -0.938  0.00  0.00    -0.082 HD
ENDROOT
BRANCH   8  12
ATOM     12  C   UNL     1       5.037   1.273   0.446  0.00  0.00    +0.244 C 
ATOM     13  O   UNL     1       5.644   0.742  -0.465  0.00  0.00    -0.270 OA
ATOM     14  N   UNL     1       5.538   1.245   1.697  0.00  0.00    -0.325 N 
ATOM     15  H   UNL     1       5.053   1.667   2.423  0.00  0.00    +0.145 HD
ATOM     16  H   UNL     1       6.383   0.802   1.871  0.00  0.00    +0.145 HD
ENDBRANCH   8  12
BRANCH   7  17
ATOM     17  N   UNL     1       4.756   4.183  -0.294  0.00  0.00    -0.279 N 
ATOM     18  C   UNL     1       4.509   5.464  -0.630  0.00  0.00    +0.228 C 
ATOM     19  O   UNL     1       3.368   5.835  -0.808  0.00  0.00    -0.275 OA
ATOM     20  H   UNL     1       5.668   3.886  -0.151  0.00  0.00    +0.155 HD
BRANCH  18  21
ATOM     21  C   UNL     1       5.650   6.437  -0.783  0.00  0.00    +0.170 C 
BRANCH  21  22
ATOM     22  S   UNL     1       4.998   8.068  -1.236  0.00  0.00    -0.116 S 
BRANCH  22  23
ATOM     23  C   UNL     1       6.435   9.077  -1.375  0.00  0.00    +0.008 A 
ATOM     24  C   UNL     1       7.693   8.535  -1.139  0.00  0.00    +0.015 A 
ATOM     25  C   UNL     1       8.818   9.328  -1.256  0.00  0.00    +0.001 A 
ATOM     26  C   UNL     1       8.693  10.663  -1.595  0.00  0.00    +0.000 A 
ATOM     27  C   UNL     1       7.442  11.207  -1.825  0.00  0.00    +0.001 A 
ATOM     28  C   UNL     1       6.314  10.419  -1.716  0.00  0.00    +0.015 A 
ENDBRANCH  22  23
ENDBRANCH  21  22
ENDBRANCH  18  21
ENDBRANCH   7  17
TORSDOF 5
