REMARK  Name = ZINC02430474
REMARK  3 active torsions:
REMARK  status: ('A' for Active; 'I' for Inactive)
REMARK    1  A    between atoms: C_8  and  N_13
REMARK    2  A    between atoms: N_17  and  C_18
REMARK    3  A    between atoms: C_22  and  C_24
REMARK                            x       y       z     vdW  Elec       q    Type
REMARK                         _______ _______ _______ _____ _____    ______ ____
ROOT
ATOM      1  N   UNL     1       2.358  -5.476  -0.052  0.00  0.00    -0.182 NA
ATOM      2  C   UNL     1       1.205  -6.136  -0.044  0.00  0.00    +0.195 C 
ATOM      3  N   UNL     1      -0.120  -5.790  -0.035  0.00  0.00    -0.284 N 
ATOM      4  C   UNL     1      -0.400  -7.058   0.622  0.00  0.00    +0.214 C 
ATOM      5  N   UNL     1       0.832  -7.454  -0.048  0.00  0.00    -0.239 N 
ATOM      6  C   UNL     1      -0.404  -7.066   2.122  0.00  0.00    +0.025 A 
ATOM      7  C   UNL     1       0.459  -6.580   3.079  0.00  0.00    +0.010 A 
ATOM      8  C   UNL     1       0.172  -6.749   4.421  0.00  0.00    +0.001 A 
ATOM      9  C   UNL     1      -0.984  -7.407   4.801  0.00  0.00    +0.002 A 
ATOM     10  C   UNL     1      -1.851  -7.897   3.846  0.00  0.00    +0.024 A 
ATOM     11  C   UNL     1      -1.570  -7.732   2.492  0.00  0.00    +0.041 A 
ATOM     12  N   UNL     1      -2.279  -8.133   1.357  0.00  0.00    -0.282 N 
ATOM     13  C   UNL     1      -1.656  -7.774   0.216  0.00  0.00    +0.265 C 
ATOM     14  O   UNL     1      -2.037  -7.988  -0.915  0.00  0.00    -0.271 OA
ATOM     15  H   UNL     1      -3.121  -8.613   1.387  0.00  0.00    +0.155 HD
ATOM     16  H   UNL     1      -0.644  -5.031  -0.335  0.00  0.00    +0.152 HD
ENDROOT
BRANCH   1  24
ATOM     17  C   UNL     1      -0.017   1.391   0.010  0.00  0.00    +0.001 A 
ATOM     18  C   UNL     1       1.165   2.096   0.002  0.00  0.00    +0.002 A 
ATOM     19  C   UNL     1       2.387   1.430  -0.013  0.00  0.00    +0.028 A 
ATOM     20  C   UNL     1       2.424   0.040  -0.021  0.00  0.00    +0.076 A 
ATOM     21  N   UNL     1       3.471  -0.842  -0.036  0.00  0.00    -0.227 NA
ATOM     22  C   UNL     1       3.086  -2.089  -0.039  0.00  0.00    +0.161 C 
ATOM     23  N   UNL     1       3.458  -3.388  -0.050  0.00  0.00    -0.307 N 
ATOM     24  C   UNL     1       2.363  -4.138  -0.044  0.00  0.00    +0.233 C 
ATOM     25  N   UNL     1       1.239  -3.356  -0.028  0.00  0.00    -0.208 NA
ATOM     26  C   UNL     1       1.591  -2.107  -0.025  0.00  0.00    +0.119 C 
ATOM     27  C   UNL     1       1.207  -0.675  -0.013  0.00  0.00    +0.029 A 
ATOM     28  C   UNL     1       0.002  -0.004   0.002  0.00  0.00    +0.012 A 
ATOM     29  H   UNL     1       4.371  -3.716  -0.062  0.00  0.00    +0.170 HD
ENDBRANCH   1  24
BRANCH   5  30
ATOM     30  C   UNL     1       1.390  -8.653  -0.500  0.00  0.00    +0.040 A 
ATOM     31  C   UNL     1       0.700  -9.848  -0.334  0.00  0.00    +0.023 A 
ATOM     32  C   UNL     1       1.254 -11.030  -0.782  0.00  0.00    +0.002 A 
ATOM     33  C   UNL     1       2.494 -11.027  -1.394  0.00  0.00    +0.012 A 
ATOM     34  C   UNL     1       3.184  -9.840  -1.560  0.00  0.00    +0.057 A 
ATOM     35  C   UNL     1       2.633  -8.652  -1.121  0.00  0.00    +0.036 A 
BRANCH  34  36
ATOM     36  C   UNL     1       4.535  -9.841  -2.227  0.00  0.00    +0.417 C 
ATOM     37  F   UNL     1       4.876 -11.149  -2.587  0.00  0.00    -0.166 F 
ATOM     38  F   UNL     1       4.491  -9.039  -3.372  0.00  0.00    -0.166 F 
ATOM     39  F   UNL     1       5.493  -9.337  -1.341  0.00  0.00    -0.166 F 
ENDBRANCH  34  36
ENDBRANCH   5  30
TORSDOF 3
