REMARK  Name = ZINC39654552
REMARK  7 active torsions:
REMARK  status: ('A' for Active; 'I' for Inactive)
REMARK    1  A    between atoms: C_1  and  C_2
REMARK    2  A    between atoms: C_2  and  C_3
REMARK    3  A    between atoms: C_6  and  C_9
REMARK    4  A    between atoms: C_9  and  C_10
REMARK    5  A    between atoms: C_10  and  N_11
REMARK    6  A    between atoms: C_12  and  C_14
REMARK    7  A    between atoms: C_25  and  C_27
REMARK                            x       y       z     vdW  Elec       q    Type
REMARK                         _______ _______ _______ _____ _____    ______ ____
ROOT
ATOM      1  C   UNL     1     -10.637  -1.614   0.713  0.00  0.00    +0.100 C 
ATOM      2  C   UNL     1     -10.722  -1.860  -0.810  0.00  0.00    +0.121 C 
ATOM      3  N   UNL     1     -12.112  -1.497  -1.171  0.00  0.00    -0.300 N 
ATOM      4  C   UNL     1     -12.405  -0.296  -0.353  0.00  0.00    +0.115 C 
ATOM      5  C   UNL     1     -11.743  -0.587   1.009  0.00  0.00    -0.004 C 
ATOM      6  C   UNL     1     -11.138   0.690   1.584  0.00  0.00    -0.010 C 
ATOM      7  C   UNL     1     -12.261   1.674   1.925  0.00  0.00    -0.082 C 
ATOM      8  N   UNL     1     -13.173   1.060   2.897  0.00  0.00    +0.379 N 
ATOM      9  C   UNL     1     -13.822  -0.115   2.303  0.00  0.00    -0.082 C 
ATOM     10  C   UNL     1     -12.764  -1.175   1.978  0.00  0.00    -0.010 C 
ATOM     11  C   UNL     1     -12.927  -2.119  -2.047  0.00  0.00    +0.219 C 
ATOM     12  O   UNL     1     -12.569  -3.145  -2.585  0.00  0.00    -0.275 OA
ATOM     13  H   UNL     1     -12.652   0.778   3.714  0.00  0.00    -0.086 HD
ATOM     14  H   UNL     1     -13.877   1.731   3.166  0.00  0.00    -0.086 HD
ENDROOT
BRANCH  11  15
ATOM     15  C   UNL     1     -14.283  -1.540  -2.356  0.00  0.00    +0.079 C 
ATOM     16  C   UNL     1     -15.227  -2.655  -2.823  0.00  0.00    +0.017 C 
ATOM     17  C   UNL     1     -16.636  -2.074  -2.957  0.00  0.00    +0.027 C 
ATOM     18  C   UNL     1     -16.596  -0.803  -3.755  0.00  0.00    -0.031 C 
ATOM     19  C   UNL     1     -15.520  -0.120  -3.978  0.00  0.00    -0.030 C 
ATOM     20  C   UNL     1     -14.158  -0.505  -3.477  0.00  0.00    +0.039 C 
ENDBRANCH  11  15
BRANCH   1  22
ATOM     21  N   UNL     1      -8.777  -1.275   2.307  0.00  0.00    -0.315 N 
ATOM     22  C   UNL     1      -9.288  -1.053   1.080  0.00  0.00    +0.218 C 
ATOM     23  O   UNL     1      -8.662  -0.401   0.271  0.00  0.00    -0.275 OA
ATOM     24  H   UNL     1      -9.277  -1.796   2.954  0.00  0.00    +0.149 HD
BRANCH  21  25
ATOM     25  C   UNL     1      -7.465  -0.730   2.664  0.00  0.00    +0.109 C 
BRANCH  25  26
ATOM     26  C   UNL     1      -7.122  -1.124   4.102  0.00  0.00    +0.054 C 
BRANCH  26  30
ATOM     27  C   UNL     1      -3.297   0.466   5.145  0.00  0.00    -0.048 A 
ATOM     28  C   UNL     1      -4.440   1.208   5.375  0.00  0.00    +0.004 A 
ATOM     29  C   UNL     1      -5.678   0.694   5.037  0.00  0.00    +0.004 A 
ATOM     30  C   UNL     1      -5.773  -0.563   4.469  0.00  0.00    -0.046 A 
ATOM     31  C   UNL     1      -4.629  -1.305   4.239  0.00  0.00    +0.004 A 
ATOM     32  C   UNL     1      -3.391  -0.789   4.572  0.00  0.00    +0.004 A 
BRANCH  27  34
ATOM     33  C   UNL     1      -1.378   1.806   4.326  0.00  0.00    +0.009 C 
ATOM     34  C   UNL     1      -1.947   1.026   5.513  0.00  0.00    +0.032 C 
ENDBRANCH  27  34
ENDBRANCH  26  30
ENDBRANCH  25  26
ENDBRANCH  21  25
ENDBRANCH   1  22
TORSDOF 6
