REMARK  Name = ZINC59170614
REMARK  6 active torsions:
REMARK  status: ('A' for Active; 'I' for Inactive)
REMARK    1  A    between atoms: C_1  and  C_2
REMARK    2  A    between atoms: C_5  and  S_8
REMARK    3  A    between atoms: S_8  and  N_11
REMARK    4  A    between atoms: N_11  and  N_12
REMARK    5  A    between atoms: C_14  and  C_23
REMARK    6  A    between atoms: N_25  and  C_26
REMARK                            x       y       z     vdW  Elec       q    Type
REMARK                         _______ _______ _______ _____ _____    ______ ____
ROOT
ATOM      1  N   UNL     1       2.848  -4.144   0.292  0.00  0.00    -0.260 N 
ATOM      2  C   UNL     1       4.067  -4.604   0.324  0.00  0.00    +0.225 A 
ATOM      3  C   UNL     1       4.929  -4.403   1.512  0.00  0.00    +0.099 A 
ATOM      4  C   UNL     1       5.922  -5.327   1.731  0.00  0.00    +0.030 A 
ATOM      5  C   UNL     1       6.046  -6.433   0.774  0.00  0.00    +0.018 A 
ATOM      6  C   UNL     1       6.841  -7.545   1.068  0.00  0.00    +0.011 A 
ATOM      7  C   UNL     1       6.939  -8.573   0.155  0.00  0.00    +0.001 A 
ATOM      8  C   UNL     1       6.255  -8.509  -1.049  0.00  0.00    +0.004 A 
ATOM      9  C   UNL     1       5.466  -7.415  -1.352  0.00  0.00    +0.047 A 
ATOM     10  C   UNL     1       5.355  -6.371  -0.449  0.00  0.00    +0.137 A 
ATOM     11  O   UNL     1       4.587  -5.292  -0.734  0.00  0.00    -0.437 OA
ATOM     12  H   UNL     1       2.466  -3.729   1.081  0.00  0.00    +0.189 HD
ENDROOT
BRANCH   3  13
ATOM     13  C   UNL     1       4.730  -3.260   2.418  0.00  0.00    +0.253 C 
ATOM     14  O   UNL     1       3.799  -2.498   2.242  0.00  0.00    -0.270 OA
ATOM     15  N   UNL     1       5.581  -3.059   3.445  0.00  0.00    -0.280 N 
ATOM     16  H   UNL     1       6.361  -3.626   3.547  0.00  0.00    +0.155 HD
BRANCH  15  17
ATOM     17  C   UNL     1       5.338  -2.031   4.363  0.00  0.00    +0.052 A 
ATOM     18  C   UNL     1       4.066  -1.487   4.478  0.00  0.00    +0.026 A 
ATOM     19  C   UNL     1       3.829  -0.472   5.385  0.00  0.00    +0.022 A 
ATOM     20  C   UNL     1       4.858   0.003   6.179  0.00  0.00    +0.042 A 
ATOM     21  C   UNL     1       6.127  -0.537   6.066  0.00  0.00    +0.041 A 
ATOM     22  C   UNL     1       6.369  -1.556   5.165  0.00  0.00    +0.064 A 
ATOM     23 CL   UNL     1       7.960  -2.237   5.029  0.00  0.00    -0.082 Cl
ATOM     24 CL   UNL     1       4.556   1.278   7.317  0.00  0.00    -0.083 Cl
ENDBRANCH  15  17
ENDBRANCH   3  13
BRANCH   1  25
ATOM     25  N   UNL     1       2.090  -4.249  -0.881  0.00  0.00    -0.157 N 
ATOM     26  H   UNL     1       2.444  -4.729  -1.646  0.00  0.00    +0.194 HD
BRANCH  25  27
ATOM     27  S   UNL     1       0.589  -3.553  -0.962  0.00  0.00    +0.085 S 
ATOM     28  O   UNL     1      -0.141  -4.032   0.159  0.00  0.00    -0.149 OA
ATOM     29  O   UNL     1       0.134  -3.724  -2.297  0.00  0.00    -0.149 OA
BRANCH  27  34
ATOM     30  C   UNL     1       1.321   2.379  -0.137  0.00  0.00    +0.044 C 
ATOM     31  C   UNL     1       1.139   0.897  -0.343  0.00  0.00    -0.050 A 
ATOM     32  C   UNL     1       1.297   0.350  -1.602  0.00  0.00    +0.005 A 
ATOM     33  C   UNL     1       1.129  -1.009  -1.792  0.00  0.00    +0.029 A 
ATOM     34  C   UNL     1       0.804  -1.821  -0.721  0.00  0.00    +0.110 A 
ATOM     35  C   UNL     1       0.647  -1.274   0.539  0.00  0.00    +0.029 A 
ATOM     36  C   UNL     1       0.818   0.084   0.729  0.00  0.00    +0.005 A 
ENDBRANCH  27  34
ENDBRANCH  25  27
ENDBRANCH   1  25
TORSDOF 5
