REMARK  Name = ZINC67203052
REMARK  8 active torsions:
REMARK  status: ('A' for Active; 'I' for Inactive)
REMARK    1  A    between atoms: C_4  and  S_24
REMARK    2  A    between atoms: C_5  and  C_7
REMARK    3  A    between atoms: N_9  and  C_10
REMARK    4  A    between atoms: C_10  and  C_11
REMARK    5  A    between atoms: N_16  and  C_17
REMARK    6  A    between atoms: C_17  and  C_18
REMARK    7  A    between atoms: S_24  and  C_25
REMARK    8  A    between atoms: C_25  and  C_26
REMARK                            x       y       z     vdW  Elec       q    Type
REMARK                         _______ _______ _______ _____ _____    ______ ____
ROOT
ATOM      1  C   UNL     1       1.250  -2.158  -0.022  0.00  0.00    +0.245 C 
ATOM      2  O   UNL     1       2.314  -2.747  -0.036  0.00  0.00    -0.270 OA
ATOM      3  N   UNL     1       0.095  -2.854  -0.014  0.00  0.00    -0.313 N 
ATOM      4  H   UNL     1      -0.754  -2.384  -0.003  0.00  0.00    +0.149 HD
ENDROOT
BRANCH   1   9
ATOM      5  C   UNL     1      -0.017   1.373   0.010  0.00  0.00    +0.001 A 
ATOM      6  C   UNL     1       1.170   2.090   0.002  0.00  0.00    +0.001 A 
ATOM      7  C   UNL     1       2.383   1.434  -0.013  0.00  0.00    +0.015 A 
ATOM      8  C   UNL     1       2.423   0.044  -0.021  0.00  0.00    +0.020 A 
ATOM      9  C   UNL     1       1.222  -0.685  -0.013  0.00  0.00    +0.050 A 
ATOM     10  C   UNL     1       0.002  -0.004   0.002  0.00  0.00    +0.014 A 
BRANCH   8  11
ATOM     11  S   UNL     1       3.970  -0.797  -0.042  0.00  0.00    -0.115 S 
BRANCH  11  12
ATOM     12  C   UNL     1       5.197   0.539  -0.047  0.00  0.00    +0.169 C 
BRANCH  12  13
ATOM     13  C   UNL     1       6.583  -0.051  -0.065  0.00  0.00    +0.221 C 
ATOM     14  O   UNL     1       6.729  -1.255  -0.073  0.00  0.00    -0.275 OA
ATOM     15  N   UNL     1       7.660   0.758  -0.072  0.00  0.00    -0.329 N 
ATOM     16  H   UNL     1       7.543   1.721  -0.065  0.00  0.00    +0.145 HD
ATOM     17  H   UNL     1       8.553   0.378  -0.083  0.00  0.00    +0.145 HD
ENDBRANCH  12  13
ENDBRANCH  11  12
ENDBRANCH   8  11
ENDBRANCH   1   9
BRANCH   3  18
ATOM     18  C   UNL     1       0.122  -4.319  -0.023  0.00  0.00    +0.089 C 
BRANCH  18  19
ATOM     19  C   UNL     1      -1.310  -4.855  -0.011  0.00  0.00    -0.051 C 
ATOM     20  C   UNL     1      -1.298  -6.388  -0.190  0.00  0.00    -0.016 C 
ATOM     21  C   UNL     1      -2.528  -6.643  -1.101  0.00  0.00    -0.020 C 
ATOM     22  C   UNL     1      -2.500  -5.397  -2.021  0.00  0.00    -0.078 C 
ATOM     23  N   UNL     1      -2.068  -4.286  -1.141  0.00  0.00    +0.383 N 
ATOM     24  H   UNL     1      -1.480  -3.650  -1.659  0.00  0.00    -0.081 HD
BRANCH  23  25
ATOM     25  C   UNL     1      -3.245  -3.567  -0.634  0.00  0.00    -0.075 C 
BRANCH  25  26
ATOM     26  C   UNL     1      -3.958  -2.874  -1.797  0.00  0.00    -0.028 C 
ATOM     27  C   UNL     1      -3.047  -1.795  -2.385  0.00  0.00    +0.002 C 
ATOM     28  C   UNL     1      -3.760  -1.102  -3.547  0.00  0.00    +0.000 C 
ATOM     29  C   UNL     1      -5.053  -0.458  -3.041  0.00  0.00    +0.000 C 
ATOM     30  C   UNL     1      -5.964  -1.537  -2.453  0.00  0.00    +0.000 C 
ATOM     31  C   UNL     1      -5.250  -2.229  -1.291  0.00  0.00    +0.002 C 
ENDBRANCH  25  26
ENDBRANCH  23  25
ENDBRANCH  18  19
ENDBRANCH   3  18
TORSDOF 8
