REMARK  Name = ZINC66568425
REMARK  8 active torsions:
REMARK  status: ('A' for Active; 'I' for Inactive)
REMARK    1  A    between atoms: C_1  and  C_2
REMARK    2  A    between atoms: C_2  and  N_3
REMARK    3  A    between atoms: C_9  and  C_11
REMARK    4  A    between atoms: C_11  and  C_12
REMARK    5  A    between atoms: N_15  and  C_18
REMARK    6  A    between atoms: C_18  and  C_20
REMARK    7  A    between atoms: C_18  and  C_21
REMARK    8  A    between atoms: N_26  and  C_27
REMARK                            x       y       z     vdW  Elec       q    Type
REMARK                         _______ _______ _______ _____ _____    ______ ____
ROOT
ATOM      1  C   UNL     1       6.398  -4.340  -3.123  0.00  0.00    -0.006 C 
ATOM      2  C   UNL     1       6.911  -3.882  -4.491  0.00  0.00    -0.015 C 
ATOM      3  C   UNL     1       7.553  -5.069  -5.212  0.00  0.00    -0.078 C 
ATOM      4  N   UNL     1       6.559  -6.133  -5.392  0.00  0.00    +0.387 N 
ATOM      5  C   UNL     1       6.115  -6.627  -4.083  0.00  0.00    -0.078 C 
ATOM      6  C   UNL     1       5.417  -5.500  -3.318  0.00  0.00    -0.015 C 
ATOM      7  H   UNL     1       5.766  -5.769  -5.900  0.00  0.00    -0.081 HD
ENDROOT
BRANCH   4   8
ATOM      8  C   UNL     1       7.158  -7.238  -6.153  0.00  0.00    +0.017 C 
ATOM      9  C   UNL     1       6.140  -8.372  -6.293  0.00  0.00    -0.004 C 
BRANCH   8  10
ATOM     10  C   UNL     1       7.556  -6.748  -7.521  0.00  0.00    +0.207 C 
ATOM     11  O   UNL     1       6.967  -5.816  -8.026  0.00  0.00    -0.277 OA
ATOM     12  N   UNL     1       8.566  -7.345  -8.184  0.00  0.00    -0.242 N 
ATOM     13  C   UNL     1       8.921  -6.907  -9.408  0.00  0.00    +0.306 C 
ATOM     14  O   UNL     1       8.331  -5.973  -9.914  0.00  0.00    -0.252 OA
ATOM     15  N   UNL     1       9.931  -7.505 -10.070  0.00  0.00    -0.302 N 
ATOM     16  C   UNL     1      10.318  -7.029 -11.401  0.00  0.00    +0.129 C 
ATOM     17  H   UNL     1       9.037  -8.091  -7.780  0.00  0.00    +0.159 HD
ATOM     18  H   UNL     1      10.403  -8.250  -9.666  0.00  0.00    +0.150 HD
ENDBRANCH   8  10
ENDBRANCH   4   8
BRANCH   1  19
ATOM     19  C   UNL     1       5.684  -3.178  -2.429  0.00  0.00    +0.099 C 
BRANCH  19  26
ATOM     20  N   UNL     1       5.675   0.813   0.554  0.00  0.00    -0.300 NA
ATOM     21  C   UNL     1       7.081   0.497   0.269  0.00  0.00    +0.103 C 
ATOM     22  C   UNL     1       7.226   0.121  -1.210  0.00  0.00    +0.123 C 
ATOM     23  N   UNL     1       6.273  -0.956  -1.514  0.00  0.00    -0.299 N 
ATOM     24  C   UNL     1       4.865  -0.769  -1.131  0.00  0.00    +0.123 C 
ATOM     25  C   UNL     1       4.812  -0.358   0.345  0.00  0.00    +0.103 C 
ATOM     26  C   UNL     1       6.678  -2.086  -2.127  0.00  0.00    +0.216 C 
ATOM     27  O   UNL     1       7.843  -2.224  -2.436  0.00  0.00    -0.276 OA
BRANCH  20  29
ATOM     28  C   UNL     1       6.233   2.693   2.021  0.00  0.00    +0.020 C 
ATOM     29  C   UNL     1       5.520   1.343   1.916  0.00  0.00    +0.081 C 
ENDBRANCH  20  29
ENDBRANCH  19  26
ENDBRANCH   1  19
TORSDOF 5
