REMARK  Name = ZINC37020249
REMARK  5 active torsions:
REMARK  status: ('A' for Active; 'I' for Inactive)
REMARK    1  A    between atoms: C_5  and  O_18
REMARK    2  A    between atoms: C_6  and  N_7
REMARK    3  A    between atoms: C_8  and  C_10
REMARK    4  A    between atoms: C_13  and  O_17
REMARK    5  A    between atoms: O_18  and  C_19
REMARK                            x       y       z     vdW  Elec       q    Type
REMARK                         _______ _______ _______ _____ _____    ______ ____
ROOT
ATOM      1  N   UNL     1      -1.201  -0.723   0.010  0.00  0.00    -0.284 N 
ATOM      2  C   UNL     1      -2.374  -0.071   0.127  0.00  0.00    +0.203 C 
ATOM      3  O   UNL     1      -2.397   1.142   0.134  0.00  0.00    -0.277 OA
ATOM      4  H   UNL     1      -1.188  -1.690  -0.060  0.00  0.00    +0.155 HD
ENDROOT
BRANCH   1  10
ATOM      5  C   UNL     1       0.054   1.247  -0.608  0.00  0.00    +0.047 A 
ATOM      6  C   UNL     1       1.241   1.956  -0.625  0.00  0.00    +0.044 A 
ATOM      7  C   UNL     1       2.379   1.421  -0.048  0.00  0.00    +0.039 A 
ATOM      8  C   UNL     1       2.333   0.174   0.550  0.00  0.00    +0.063 A 
ATOM      9  C   UNL     1       1.147  -0.542   0.572  0.00  0.00    +0.162 A 
ATOM     10  C   UNL     1       0.001  -0.003  -0.009  0.00  0.00    +0.078 A 
ATOM     11 BR   UNL     1       3.891  -0.554   1.338  0.00  0.00    -0.046 Br
ATOM     12 CL   UNL     1       1.305   3.521  -1.375  0.00  0.00    -0.083 Cl
BRANCH   9  13
ATOM     13  O   UNL     1       1.101  -1.768   1.159  0.00  0.00    -0.431 OA
BRANCH  13  14
ATOM     14  C   UNL     1       0.772  -1.810   2.549  0.00  0.00    +0.541 C 
ATOM     15  F   UNL     1       1.720  -1.081   3.275  0.00  0.00    -0.166 F 
ATOM     16  F   UNL     1      -0.496  -1.252   2.745  0.00  0.00    -0.166 F 
ENDBRANCH  13  14
ENDBRANCH   9  13
ENDBRANCH   1  10
BRANCH   2  17
ATOM     17  C   UNL     1      -3.660  -0.849   0.249  0.00  0.00    +0.019 C 
ATOM     18  C   UNL     1      -4.121  -1.323  -1.145  0.00  0.00    +0.023 C 
ATOM     19  C   UNL     1      -5.662  -1.157  -1.078  0.00  0.00    +0.097 C 
ATOM     20  C   UNL     1      -5.802   0.121  -0.215  0.00  0.00    -0.050 C 
ATOM     21  N   UNL     1      -4.721   0.019   0.793  0.00  0.00    +0.388 N 
ATOM     22  H   UNL     1      -5.085  -0.383   1.644  0.00  0.00    -0.085 HD
ATOM     23  H   UNL     1      -4.346   0.935   0.984  0.00  0.00    -0.085 HD
BRANCH  19  24
ATOM     24  O   UNL     1      -6.212  -0.959  -2.382  0.00  0.00    -0.394 OA
ATOM     25  H   UNL     1      -7.173  -0.851  -2.391  0.00  0.00    +0.210 HD
ENDBRANCH  19  24
ENDBRANCH   2  17
TORSDOF 5
