REMARK  Name = ZINC55888335
REMARK  6 active torsions:
REMARK  status: ('A' for Active; 'I' for Inactive)
REMARK    1  A    between atoms: C_4  and  N_20
REMARK    2  A    between atoms: C_5  and  N_7
REMARK    3  A    between atoms: N_7  and  C_8
REMARK    4  A    between atoms: C_8  and  C_9
REMARK    5  A    between atoms: N_11  and  C_12
REMARK    6  A    between atoms: C_23  and  O_26
REMARK                            x       y       z     vdW  Elec       q    Type
REMARK                         _______ _______ _______ _____ _____    ______ ____
ROOT
ATOM      1  C   UNL     1       0.004   1.422   0.061  0.00  0.00    +0.002 A 
ATOM      2  C   UNL     1       1.196   2.123   0.053  0.00  0.00    +0.002 A 
ATOM      3  C   UNL     1       2.401   1.445   0.027  0.00  0.00    +0.023 A 
ATOM      4  C   UNL     1       2.417   0.064   0.009  0.00  0.00    +0.035 A 
ATOM      5  C   UNL     1       1.222  -0.643   0.017  0.00  0.00    +0.047 A 
ATOM      6  C   UNL     1       0.014   0.041   0.043  0.00  0.00    +0.025 A 
ENDROOT
BRANCH   4   7
ATOM      7  N   UNL     1       3.636  -0.620  -0.018  0.00  0.00    -0.392 NA
ATOM      8  C   UNL     1       4.326  -0.339  -1.283  0.00  0.00    +0.087 C 
ATOM      9  C   UNL     1       5.622  -1.150  -1.352  0.00  0.00    +0.048 C 
ATOM     10  C   UNL     1       6.525  -0.759  -0.179  0.00  0.00    +0.117 C 
ATOM     11  C   UNL     1       5.768  -0.987   1.133  0.00  0.00    +0.048 C 
ATOM     12  C   UNL     1       4.467  -0.182   1.110  0.00  0.00    +0.087 C 
ATOM     13  H   UNL     1       3.465  -1.612   0.057  0.00  0.00    +0.126 HD
BRANCH  10  14
ATOM     14  O   UNL     1       7.705  -1.565  -0.196  0.00  0.00    -0.392 OA
ATOM     15  H   UNL     1       8.324  -1.371   0.522  0.00  0.00    +0.210 HD
ENDBRANCH  10  14
ENDBRANCH   4   7
BRANCH   5  16
ATOM     16  N   UNL     1       1.236  -2.040  -0.001  0.00  0.00    -0.334 N 
ATOM     17  H   UNL     1       2.078  -2.518   0.054  0.00  0.00    +0.147 HD
BRANCH  16  18
ATOM     18  C   UNL     1      -0.022  -2.783  -0.105  0.00  0.00    +0.198 C 
BRANCH  18  19
ATOM     19  C   UNL     1       0.267  -4.262  -0.104  0.00  0.00    +0.234 C 
ATOM     20  O   UNL     1       1.411  -4.657  -0.025  0.00  0.00    -0.274 OA
ATOM     21  N   UNL     1      -0.747  -5.147  -0.191  0.00  0.00    -0.282 N 
ATOM     22  H   UNL     1      -1.653  -4.833  -0.335  0.00  0.00    +0.155 HD
BRANCH  21  23
ATOM     23  C   UNL     1      -0.491  -6.519  -0.074  0.00  0.00    +0.072 A 
ATOM     24  C   UNL     1       0.629  -6.960   0.617  0.00  0.00    +0.064 A 
ATOM     25  C   UNL     1       0.879  -8.316   0.732  0.00  0.00    +0.125 A 
ATOM     26  C   UNL     1       0.013  -9.232   0.158  0.00  0.00    +0.041 A 
ATOM     27  C   UNL     1      -1.103  -8.795  -0.532  0.00  0.00    +0.043 A 
ATOM     28  C   UNL     1      -1.361  -7.441  -0.645  0.00  0.00    +0.145 A 
ATOM     29  F   UNL     1      -2.454  -7.015  -1.313  0.00  0.00    -0.204 F 
ATOM     30  F   UNL     1       1.969  -8.747   1.403  0.00  0.00    -0.205 F 
ENDBRANCH  21  23
ENDBRANCH  18  19
ENDBRANCH  16  18
ENDBRANCH   5  16
TORSDOF 6
