REMARK  Name = ZINC65398674
REMARK  1 active torsions:
REMARK  status: ('A' for Active; 'I' for Inactive)
REMARK    1  A    between atoms: C_6  and  C_10
REMARK                            x       y       z     vdW  Elec       q    Type
REMARK                         _______ _______ _______ _____ _____    ______ ____
ROOT
ATOM      1  C   UNL     1      -2.413  -0.931   0.020  0.00  0.00    +0.153 C 
ATOM      2  C   UNL     1      -2.965  -1.260  -1.344  0.00  0.00    +0.060 A 
ATOM      3  C   UNL     1      -4.054  -2.038  -1.536  0.00  0.00    +0.040 A 
ATOM      4  N   UNL     1      -4.258  -2.120  -2.876  0.00  0.00    -0.349 N 
ATOM      5  H   UNL     1      -4.964  -2.611  -3.324  0.00  0.00    +0.166 HD
ATOM      6  C   UNL     1      -3.286  -1.387  -3.469  0.00  0.00    +0.171 A 
ATOM      7  N   UNL     1      -2.518  -0.877  -2.541  0.00  0.00    -0.348 N 
ATOM      8  C   UNL     1      -4.842  -2.658  -0.410  0.00  0.00    +0.070 C 
ATOM      9  C   UNL     1      -4.446  -1.944   0.890  0.00  0.00    +0.088 C 
ATOM     10  N   UNL     1      -2.981  -1.881   0.992  0.00  0.00    -0.303 NA
ATOM     11  H   UNL     1      -2.572  -2.797   0.883  0.00  0.00    +0.123 HD
ATOM     12  H   UNL     1      -1.747  -0.310  -2.698  0.00  0.00    +0.166 HD
ENDROOT
BRANCH   1  18
ATOM     13  C   UNL     1      -0.017   1.374   0.010  0.00  0.00    +0.101 A 
ATOM     14  C   UNL     1       1.118   2.071   0.003  0.00  0.00    +0.067 A 
ATOM     15  S   UNL     1       2.347   0.776  -0.016  0.00  0.00    -0.058 S 
ATOM     16  C   UNL     1       1.231  -0.608  -0.013  0.00  0.00    +0.179 A 
ATOM     17  N   UNL     1       0.002  -0.004   0.002  0.00  0.00    -0.294 N 
ATOM     18  C   UNL     1      -0.911  -1.056   0.005  0.00  0.00    +0.085 A 
ATOM     19  C   UNL     1      -0.212  -2.204  -0.008  0.00  0.00    +0.154 A 
ATOM     20  N   UNL     1       1.096  -1.903  -0.018  0.00  0.00    -0.209 NA
ATOM     21 CL   UNL     1      -0.885  -3.804  -0.011  0.00  0.00    -0.060 Cl
ENDBRANCH   1  18
TORSDOF 1
