REMARK  Name = ZINC09480196
REMARK  7 active torsions:
REMARK  status: ('A' for Active; 'I' for Inactive)
REMARK    1  A    between atoms: C_2  and  C_3
REMARK    2  A    between atoms: C_3  and  N_4
REMARK    3  A    between atoms: C_5  and  C_21
REMARK    4  A    between atoms: C_8  and  S_9
REMARK    5  A    between atoms: S_9  and  C_10
REMARK    6  A    between atoms: C_10  and  C_11
REMARK    7  A    between atoms: N_13  and  C_14
REMARK                            x       y       z     vdW  Elec       q    Type
REMARK                         _______ _______ _______ _____ _____    ______ ____
ROOT
ATOM      1  N   UNL     1       0.199   0.764  -4.284  0.00  0.00    -0.298 N 
ATOM      2  C   UNL     1       1.155   0.116  -5.031  0.00  0.00    +0.167 A 
ATOM      3  N   UNL     1       1.733  -0.759  -4.241  0.00  0.00    -0.128 NA
ATOM      4  N   UNL     1       1.214  -0.700  -3.067  0.00  0.00    -0.122 NA
ATOM      5  C   UNL     1       0.267   0.211  -3.037  0.00  0.00    +0.193 A 
ENDROOT
BRANCH   2   6
ATOM      6  C   UNL     1       1.472   0.360  -6.454  0.00  0.00    +0.038 A 
ATOM      7  C   UNL     1       0.449   0.413  -7.401  0.00  0.00    +0.013 A 
ATOM      8  C   UNL     1       0.751   0.641  -8.727  0.00  0.00    +0.001 A 
ATOM      9  C   UNL     1       2.067   0.817  -9.121  0.00  0.00    +0.001 A 
ATOM     10  C   UNL     1       3.087   0.764  -8.188  0.00  0.00    +0.021 A 
ATOM     11  C   UNL     1       2.797   0.542  -6.856  0.00  0.00    +0.052 A 
ATOM     12 CL   UNL     1       4.078   0.484  -5.685  0.00  0.00    -0.083 Cl
ENDBRANCH   2   6
BRANCH   1  13
ATOM     13  C   UNL     1      -0.705   1.827  -4.732  0.00  0.00    +0.152 C 
BRANCH  13  15
ATOM     14  C   UNL     1       0.099   3.996  -5.512  0.00  0.00    +0.005 C 
ATOM     15  C   UNL     1      -0.054   3.167  -4.509  0.00  0.00    -0.013 C 
ENDBRANCH  13  15
ENDBRANCH   1  13
BRANCH   5  16
ATOM     16  S   UNL     1      -0.725   0.642  -1.646  0.00  0.00    -0.077 S 
BRANCH  16  17
ATOM     17  C   UNL     1      -0.052  -0.500  -0.414  0.00  0.00    +0.173 C 
BRANCH  17  18
ATOM     18  C   UNL     1      -0.770  -0.305   0.897  0.00  0.00    +0.227 C 
ATOM     19  O   UNL     1      -1.650   0.524   0.989  0.00  0.00    -0.275 OA
ATOM     20  N   UNL     1      -0.434  -1.053   1.967  0.00  0.00    -0.285 N 
ATOM     21  H   UNL     1       0.318  -1.663   1.915  0.00  0.00    +0.155 HD
BRANCH  20  22
ATOM     22  C   UNL     1      -1.171  -0.949   3.152  0.00  0.00    +0.034 A 
ATOM     23  C   UNL     1      -0.539  -1.103   4.379  0.00  0.00    +0.023 A 
ATOM     24  C   UNL     1      -1.268  -0.995   5.548  0.00  0.00    +0.003 A 
ATOM     25  C   UNL     1      -2.627  -0.745   5.496  0.00  0.00    +0.015 A 
ATOM     26  C   UNL     1      -3.260  -0.597   4.275  0.00  0.00    +0.020 A 
ATOM     27  C   UNL     1      -2.535  -0.699   3.103  0.00  0.00    +0.038 A 
ATOM     28 BR   UNL     1      -5.119  -0.256   4.210  0.00  0.00    -0.050 Br
ENDBRANCH  20  22
ENDBRANCH  17  18
ENDBRANCH  16  17
ENDBRANCH   5  16
TORSDOF 7
