REMARK  Name = ZINC24889941
REMARK  11 active torsions:
REMARK  status: ('A' for Active; 'I' for Inactive)
REMARK    1  A    between atoms: C_1  and  C_2
REMARK    2  A    between atoms: C_2  and  O_3
REMARK    3  A    between atoms: O_3  and  C_4
REMARK    4  A    between atoms: C_4  and  C_6
REMARK    5  A    between atoms: C_7  and  C_30
REMARK    6  A    between atoms: C_11  and  C_15
REMARK    7  A    between atoms: C_15  and  O_16
REMARK    8  A    between atoms: O_16  and  C_17
REMARK    9  A    between atoms: C_17  and  C_19
REMARK   10  A    between atoms: C_22  and  N_26
REMARK   11  A    between atoms: C_24  and  N_25
REMARK                            x       y       z     vdW  Elec       q    Type
REMARK                         _______ _______ _______ _____ _____    ______ ____
ROOT
ATOM      1  C   UNL     1      -1.955  -5.084   0.500  0.00  0.00    +0.102 A 
ATOM      2  C   UNL     1      -2.538  -6.282   0.787  0.00  0.00    -0.017 A 
ATOM      3  C   UNL     1      -3.933  -6.379   0.853  0.00  0.00    +0.051 A 
ATOM      4  C   UNL     1      -4.746  -7.519   1.133  0.00  0.00    +0.128 A 
ATOM      5  N   UNL     1      -6.062  -7.384   1.145  0.00  0.00    -0.214 NA
ATOM      6  C   UNL     1      -6.655  -6.229   0.905  0.00  0.00    +0.170 A 
ATOM      7  N   UNL     1      -5.960  -5.139   0.639  0.00  0.00    -0.221 NA
ATOM      8  C   UNL     1      -4.644  -5.179   0.607  0.00  0.00    +0.115 A 
ATOM      9  S   UNL     1      -3.356  -3.996   0.308  0.00  0.00    -0.062 S 
ATOM     10  N   UNL     1      -4.167  -8.745   1.389  0.00  0.00    -0.343 N 
ATOM     11  C   UNL     1      -1.683  -7.498   1.032  0.00  0.00    +0.046 C 
ATOM     12  H   UNL     1      -3.281  -8.790   1.781  0.00  0.00    +0.144 HD
ATOM     13  H   UNL     1      -4.646  -9.561   1.177  0.00  0.00    +0.144 HD
ENDROOT
BRANCH   1  14
ATOM     14  C   UNL     1      -0.528  -4.766   0.385  0.00  0.00    +0.346 C 
ATOM     15  O   UNL     1       0.304  -5.638   0.549  0.00  0.00    -0.244 OA
BRANCH  14  16
ATOM     16  O   UNL     1      -0.139  -3.507   0.097  0.00  0.00    -0.461 OA
BRANCH  16  18
ATOM     17  C   UNL     1       1.513  -1.796  -0.331  0.00  0.00    +0.048 C 
ATOM     18  C   UNL     1       1.267  -3.269  -0.001  0.00  0.00    +0.229 C 
ENDBRANCH  16  18
ENDBRANCH  14  16
ENDBRANCH   1  14
BRANCH   6  19
ATOM     19  C   UNL     1      -8.160  -6.153   0.935  0.00  0.00    +0.308 C 
BRANCH  19  20
ATOM     20  O   UNL     1      -8.595  -5.836   2.258  0.00  0.00    -0.453 OA
BRANCH  20  21
ATOM     21  C   UNL     1      -9.924  -5.730   2.457  0.00  0.00    +0.341 C 
ATOM     22  O   UNL     1     -10.692  -5.903   1.531  0.00  0.00    -0.245 OA
BRANCH  21  23
ATOM     23  C   UNL     1     -10.445  -5.405   3.796  0.00  0.00    +0.080 A 
ATOM     24  C   UNL     1      -9.565  -5.092   4.836  0.00  0.00    +0.019 A 
ATOM     25  C   UNL     1     -10.059  -4.789   6.085  0.00  0.00    +0.033 A 
ATOM     26  C   UNL     1     -11.425  -4.793   6.319  0.00  0.00    +0.128 A 
ATOM     27  C   UNL     1     -12.307  -5.100   5.303  0.00  0.00    +0.056 A 
ATOM     28  C   UNL     1     -11.829  -5.402   4.034  0.00  0.00    +0.041 A 
BRANCH  28  29
ATOM     29  N   UNL     1     -12.714  -5.706   3.009  0.00  0.00    -0.357 N 
ATOM     30  H   UNL     1     -12.437  -5.608   2.084  0.00  0.00    +0.142 HD
ATOM     31  H   UNL     1     -13.609  -6.016   3.216  0.00  0.00    +0.142 HD
ENDBRANCH  28  29
BRANCH  26  32
ATOM     32  N   UNL     1     -11.942  -4.466   7.667  0.00  0.00    +0.056 N 
ATOM     33  O   UNL     1     -11.173  -4.197   8.560  0.00  0.00    -0.126 OA
ATOM     34  O   UNL     1     -13.133  -4.468   7.875  0.00  0.00    -0.126 OA
ENDBRANCH  26  32
ENDBRANCH  21  23
ENDBRANCH  20  21
ENDBRANCH  19  20
ENDBRANCH   6  19
TORSDOF 9
