REMARK  Name = ZINC33635865
REMARK  11 active torsions:
REMARK  status: ('A' for Active; 'I' for Inactive)
REMARK    1  A    between atoms: C_1  and  C_2
REMARK    2  A    between atoms: C_2  and  C_3
REMARK    3  A    between atoms: C_4  and  C_18
REMARK    4  A    between atoms: C_5  and  C_15
REMARK    5  A    between atoms: C_6  and  C_14
REMARK    6  A    between atoms: N_7  and  C_8
REMARK    7  A    between atoms: C_8  and  C_9
REMARK    8  A    between atoms: C_9  and  C_10
REMARK    9  A    between atoms: C_10  and  N_11
REMARK   10  A    between atoms: N_11  and  C_12
REMARK   11  A    between atoms: N_11  and  C_13
REMARK                            x       y       z     vdW  Elec       q    Type
REMARK                         _______ _______ _______ _____ _____    ______ ____
ROOT
ATOM      1  C   UNL     1      -0.226  -2.749  -1.820  0.00  0.00    +0.027 A 
ATOM      2  C   UNL     1       0.118  -4.050  -1.643  0.00  0.00    +0.015 A 
ATOM      3  C   UNL     1       1.402  -4.036  -0.918  0.00  0.00    +0.065 A 
ATOM      4  C   UNL     1       1.715  -2.720  -0.730  0.00  0.00    +0.029 A 
ATOM      5  N   UNL     1       0.738  -1.962  -1.265  0.00  0.00    -0.347 N 
ATOM      6  C   UNL     1       2.948  -2.201  -0.036  0.00  0.00    +0.064 C 
ENDROOT
BRANCH   2   7
ATOM      7  C   UNL     1      -0.642  -5.242  -2.089  0.00  0.00    -0.015 A 
ATOM      8  C   UNL     1      -1.894  -5.518  -1.542  0.00  0.00    +0.010 A 
ATOM      9  C   UNL     1      -2.599  -6.627  -1.964  0.00  0.00    +0.020 A 
ATOM     10  C   UNL     1      -2.060  -7.470  -2.920  0.00  0.00    +0.041 A 
ATOM     11  C   UNL     1      -0.815  -7.203  -3.463  0.00  0.00    +0.020 A 
ATOM     12  C   UNL     1      -0.104  -6.094  -3.052  0.00  0.00    +0.010 A 
ATOM     13 CL   UNL     1      -2.949  -8.867  -3.441  0.00  0.00    -0.084 Cl
ENDBRANCH   2   7
BRANCH   3  14
ATOM     14  C   UNL     1       2.189  -5.203  -0.490  0.00  0.00    +0.244 C 
ATOM     15  O   UNL     1       3.032  -5.673  -1.230  0.00  0.00    -0.270 OA
ATOM     16  N   UNL     1       1.975  -5.751   0.723  0.00  0.00    -0.325 N 
ATOM     17  H   UNL     1       2.564  -6.624   1.043  0.00  0.00    +0.145 HD
ATOM     18  H   UNL     1       1.213  -5.326   1.392  0.00  0.00    +0.145 HD
ENDBRANCH   3  14
BRANCH   1  20
ATOM     19  C   UNL     1      -1.181  -2.072  -4.006  0.00  0.00    +0.010 C 
ATOM     20  C   UNL     1      -1.469  -2.256  -2.515  0.00  0.00    +0.050 C 
ENDBRANCH   1  20
BRANCH   5  21
ATOM     21  C   UNL     1       0.718  -0.497  -1.257  0.00  0.00    +0.120 C 
BRANCH  21  22
ATOM     22  C   UNL     1       0.002  -0.004   0.002  0.00  0.00    +0.003 C 
BRANCH  22  23
ATOM     23  C   UNL     1      -0.019   1.526   0.010  0.00  0.00    -0.078 C 
BRANCH  23  24
ATOM     24  N   UNL     1      -0.706   2.000   1.219  0.00  0.00    +0.376 N 
ATOM     25  C   UNL     1       0.054   1.654   2.427  0.00  0.00    -0.097 C 
ATOM     26  C   UNL     1      -0.956   3.446   1.150  0.00  0.00    -0.097 C 
ATOM     27  H   UNL     1      -1.680   1.491   1.275  0.00  0.00    -0.083 HD
ENDBRANCH  23  24
ENDBRANCH  22  23
ENDBRANCH  21  22
ENDBRANCH   5  21
TORSDOF 7
