REMARK  Name = ZINC04729193
REMARK  7 active torsions:
REMARK  status: ('A' for Active; 'I' for Inactive)
REMARK    1  A    between atoms: C_1  and  C_2
REMARK    2  A    between atoms: C_5  and  C_8
REMARK    3  A    between atoms: C_10  and  C_22
REMARK    4  A    between atoms: C_12  and  C_15
REMARK    5  A    between atoms: C_20  and  O_21
REMARK    6  A    between atoms: C_25  and  O_28
REMARK    7  A    between atoms: O_28  and  C_29
REMARK                            x       y       z     vdW  Elec       q    Type
REMARK                         _______ _______ _______ _____ _____    ______ ____
ROOT
ATOM      1  C   UNL     1      -0.716   1.571   1.245  0.00  0.00    +0.040 C 
ATOM      2  N   UNL     1      -1.579   2.515   1.233  0.00  0.00    -0.299 NA
ATOM      3  C   UNL     1      -1.996   3.228   0.032  0.00  0.00    +0.081 C 
ATOM      4  C   UNL     1      -0.753   1.593  -1.233  0.00  0.00    -0.028 C 
ATOM      5  C   UNL     1      -0.013   1.086   0.008  0.00  0.00    +0.044 C 
ATOM      6  N   UNL     1      -1.023   3.033  -1.054  0.00  0.00    +0.401 N 
ATOM      7  H   UNL     1      -0.149   3.517  -0.819  0.00  0.00    -0.081 HD
ATOM      8  H   UNL     1      -1.404   3.419  -1.925  0.00  0.00    -0.081 HD
ENDROOT
BRANCH   1  13
ATOM      9  C   UNL     1       0.529  -0.942   6.268  0.00  0.00    +0.044 C 
ATOM     10  C   UNL     1       0.203  -0.283   4.952  0.00  0.00    -0.050 A 
ATOM     11  C   UNL     1      -0.726   0.742   4.906  0.00  0.00    +0.004 A 
ATOM     12  C   UNL     1      -1.029   1.348   3.705  0.00  0.00    +0.010 A 
ATOM     13  C   UNL     1      -0.397   0.926   2.534  0.00  0.00    -0.004 A 
ATOM     14  C   UNL     1       0.535  -0.112   2.587  0.00  0.00    +0.010 A 
ATOM     15  C   UNL     1       0.833  -0.707   3.796  0.00  0.00    +0.004 A 
ENDBRANCH   1  13
BRANCH   4  16
ATOM     16  C   UNL     1       0.103   1.389  -2.456  0.00  0.00    -0.019 A 
ATOM     17  C   UNL     1       0.901   2.417  -2.921  0.00  0.00    +0.005 A 
ATOM     18  C   UNL     1       1.688   2.229  -4.042  0.00  0.00    +0.000 A 
ATOM     19  C   UNL     1       1.679   1.014  -4.701  0.00  0.00    +0.004 A 
ATOM     20  C   UNL     1       0.883  -0.017  -4.240  0.00  0.00    +0.045 A 
ATOM     21  C   UNL     1       0.096   0.167  -3.112  0.00  0.00    +0.118 A 
BRANCH  21  22
ATOM     22  O   UNL     1      -0.683  -0.848  -2.653  0.00  0.00    -0.507 OA
ATOM     23  H   UNL     1      -1.573  -0.863  -3.032  0.00  0.00    +0.292 HD
ENDBRANCH  21  22
ENDBRANCH   4  16
BRANCH   3  24
ATOM     24  C   UNL     1      -2.101   4.700   0.340  0.00  0.00    -0.040 A 
ATOM     25  C   UNL     1      -1.883   5.631  -0.658  0.00  0.00    +0.007 A 
ATOM     26  C   UNL     1      -1.985   6.980  -0.380  0.00  0.00    +0.046 A 
ATOM     27  C   UNL     1      -2.296   7.401   0.905  0.00  0.00    +0.120 A 
ATOM     28  C   UNL     1      -2.509   6.464   1.906  0.00  0.00    +0.046 A 
ATOM     29  C   UNL     1      -2.411   5.116   1.622  0.00  0.00    +0.007 A 
BRANCH  27  30
ATOM     30  O   UNL     1      -2.391   8.728   1.183  0.00  0.00    -0.495 OA
ATOM     31  C   UNL     1      -2.159   9.635   0.103  0.00  0.00    +0.277 C 
ENDBRANCH  27  30
ENDBRANCH   3  24
TORSDOF 5
