REMARK  Name = ZINC46347077
REMARK  12 active torsions:
REMARK  status: ('A' for Active; 'I' for Inactive)
REMARK    1  A    between atoms: C_1  and  C_2
REMARK    2  A    between atoms: C_2  and  C_3
REMARK    3  A    between atoms: C_2  and  C_4
REMARK    4  A    between atoms: C_2  and  O_5
REMARK    5  A    between atoms: O_5  and  C_6
REMARK    6  A    between atoms: N_8  and  N_9
REMARK    7  A    between atoms: N_12  and  C_13
REMARK    8  A    between atoms: C_13  and  C_14
REMARK    9  A    between atoms: C_14  and  C_16
REMARK   10  A    between atoms: C_14  and  N_21
REMARK   11  A    between atoms: N_21  and  C_22
REMARK   12  A    between atoms: N_21  and  C_23
REMARK                            x       y       z     vdW  Elec       q    Type
REMARK                         _______ _______ _______ _____ _____    ______ ____
ROOT
ATOM      1  N   UNL     1       2.128  -1.117  -3.243  0.00  0.00    -0.216 N 
ATOM      2  C   UNL     1       2.736  -1.458  -4.397  0.00  0.00    +0.316 C 
ATOM      3  O   UNL     1       2.103  -2.008  -5.277  0.00  0.00    -0.251 OA
ATOM      4  N   UNL     1       4.045  -1.189  -4.574  0.00  0.00    -0.299 N 
ATOM      5  H   UNL     1       1.187  -1.311  -3.115  0.00  0.00    +0.174 HD
ATOM      6  H   UNL     1       4.549  -0.751  -3.872  0.00  0.00    +0.150 HD
ENDROOT
BRANCH   1   9
ATOM      7  C   UNL     1       2.250  -0.143  -1.074  0.00  0.00    +0.417 C 
ATOM      8  O   UNL     1       2.882   0.406  -0.194  0.00  0.00    -0.225 OA
ATOM      9  N   UNL     1       2.857  -0.484  -2.228  0.00  0.00    -0.198 N 
ATOM     10  H   UNL     1       3.799  -0.290  -2.356  0.00  0.00    +0.176 HD
BRANCH   7  11
ATOM     11  O   UNL     1       0.943  -0.412  -0.897  0.00  0.00    -0.444 OA
BRANCH  11  13
ATOM     12  C   UNL     1       0.500   1.491   0.526  0.00  0.00    +0.055 C 
ATOM     13  C   UNL     1       0.364  -0.023   0.351  0.00  0.00    +0.107 C 
ATOM     14  C   UNL     1       1.089  -0.736   1.494  0.00  0.00    +0.055 C 
ATOM     15  C   UNL     1      -1.117  -0.407   0.367  0.00  0.00    +0.055 C 
ENDBRANCH  11  13
ENDBRANCH   7  11
ENDBRANCH   1   9
BRANCH   4  16
ATOM     16  C   UNL     1       4.705  -1.560  -5.829  0.00  0.00    +0.095 C 
BRANCH  16  17
ATOM     17  C   UNL     1       6.146  -1.047  -5.817  0.00  0.00    -0.020 C 
BRANCH  17  18
ATOM     18  C   UNL     1       6.918  -1.741  -4.724  0.00  0.00    -0.052 A 
ATOM     19  C   UNL     1       7.135  -1.114  -3.511  0.00  0.00    +0.009 A 
ATOM     20  C   UNL     1       7.832  -1.766  -2.550  0.00  0.00    +0.045 A 
ATOM     21  S   UNL     1       8.207  -3.316  -3.353  0.00  0.00    -0.105 S 
ATOM     22  C   UNL     1       7.404  -2.992  -4.913  0.00  0.00    +0.047 A 
ENDBRANCH  17  18
BRANCH  17  23
ATOM     23  N   UNL     1       6.776  -1.327  -7.114  0.00  0.00    +0.382 N 
ATOM     24  C   UNL     1       6.018  -0.659  -8.181  0.00  0.00    -0.096 C 
ATOM     25  C   UNL     1       8.157  -0.824  -7.107  0.00  0.00    -0.096 C 
ATOM     26  H   UNL     1       6.781  -2.322  -7.278  0.00  0.00    -0.082 HD
ENDBRANCH  17  23
ENDBRANCH  16  17
ENDBRANCH   4  16
TORSDOF 7
