REMARK  Name = ZINC39632037
REMARK  16 active torsions:
REMARK  status: ('A' for Active; 'I' for Inactive)
REMARK    1  A    between atoms: C_1  and  C_2
REMARK    2  A    between atoms: C_2  and  C_4
REMARK    3  A    between atoms: C_2  and  N_11
REMARK    4  A    between atoms: C_4  and  C_5
REMARK    5  A    between atoms: C_5  and  C_6
REMARK    6  A    between atoms: C_6  and  C_7
REMARK    7  A    between atoms: C_7  and  C_8
REMARK    8  A    between atoms: C_7  and  C_9
REMARK    9  A    between atoms: C_7  and  O_10
REMARK   10  A    between atoms: C_12  and  C_14
REMARK   11  A    between atoms: C_25  and  C_27
REMARK   12  A    between atoms: C_27  and  C_29
REMARK   13  A    between atoms: C_27  and  O_32
REMARK   14  A    between atoms: C_29  and  C_30
REMARK   15  A    between atoms: C_29  and  C_31
REMARK   16  A    between atoms: O_32  and  C_33
REMARK                            x       y       z     vdW  Elec       q    Type
REMARK                         _______ _______ _______ _____ _____    ______ ____
ROOT
ATOM      1  C   UNL     1      -3.087  -1.016  -1.288  0.00  0.00    +0.100 C 
ATOM      2  C   UNL     1      -4.021  -0.222  -0.348  0.00  0.00    +0.121 C 
ATOM      3  N   UNL     1      -4.763   0.695  -1.245  0.00  0.00    -0.297 N 
ATOM      4  C   UNL     1      -5.044  -0.118  -2.452  0.00  0.00    +0.115 C 
ATOM      5  C   UNL     1      -3.763  -0.949  -2.667  0.00  0.00    -0.004 C 
ATOM      6  C   UNL     1      -4.118  -2.351  -3.151  0.00  0.00    -0.010 C 
ATOM      7  C   UNL     1      -4.737  -2.263  -4.549  0.00  0.00    -0.082 C 
ATOM      8  N   UNL     1      -3.782  -1.634  -5.469  0.00  0.00    +0.379 N 
ATOM      9  C   UNL     1      -3.518  -0.252  -5.048  0.00  0.00    -0.082 C 
ATOM     10  C   UNL     1      -2.848  -0.255  -3.672  0.00  0.00    -0.010 C 
ATOM     11  C   UNL     1      -5.105   1.978  -1.015  0.00  0.00    +0.257 C 
ATOM     12  O   UNL     1      -5.790   2.577  -1.818  0.00  0.00    -0.272 OA
ATOM     13  H   UNL     1      -2.919  -2.156  -5.466  0.00  0.00    -0.086 HD
ATOM     14  H   UNL     1      -4.168  -1.632  -6.402  0.00  0.00    -0.086 HD
ENDROOT
BRANCH   1  16
ATOM     15  N   UNL     1      -0.630  -1.129  -1.552  0.00  0.00    -0.312 N 
ATOM     16  C   UNL     1      -1.725  -0.373  -1.340  0.00  0.00    +0.218 C 
ATOM     17  O   UNL     1      -1.614   0.826  -1.190  0.00  0.00    -0.275 OA
ATOM     18  H   UNL     1      -0.718  -2.088  -1.671  0.00  0.00    +0.149 HD
BRANCH  15  20
ATOM     19  C   UNL     1       1.246  -0.364  -0.183  0.00  0.00    +0.028 C 
ATOM     20  C   UNL     1       0.694  -0.504  -1.603  0.00  0.00    +0.070 C 
BRANCH  20  21
ATOM     21  C   UNL     1       1.638  -1.375  -2.433  0.00  0.00    +0.022 C 
BRANCH  21  22
ATOM     22  C   UNL     1       1.153  -1.414  -3.884  0.00  0.00    +0.005 C 
BRANCH  22  23
ATOM     23  C   UNL     1       2.098  -2.285  -4.714  0.00  0.00    +0.034 C 
BRANCH  23  24
ATOM     24  C   UNL     1       1.613  -2.324  -6.165  0.00  0.00    +0.061 C 
ATOM     25  C   UNL     1       1.595  -0.904  -6.735  0.00  0.00    +0.041 C 
ATOM     26  C   UNL     1       2.557  -3.195  -6.995  0.00  0.00    +0.041 C 
BRANCH  24  27
ATOM     27  O   UNL     1       0.294  -2.872  -6.212  0.00  0.00    -0.389 OA
ATOM     28  H   UNL     1       0.230  -3.772  -5.865  0.00  0.00    +0.210 HD
ENDBRANCH  24  27
ENDBRANCH  23  24
ENDBRANCH  22  23
ENDBRANCH  21  22
ENDBRANCH  20  21
ENDBRANCH  15  20
ENDBRANCH   1  16
BRANCH  11  29
ATOM     29  C   UNL     1      -4.638   2.670   0.240  0.00  0.00    +0.261 C 
BRANCH  29  30
ATOM     30  C   UNL     1      -5.643   2.417   1.366  0.00  0.00    +0.033 C 
ATOM     31  C   UNL     1      -5.842   0.910   1.543  0.00  0.00    +0.011 C 
ATOM     32  C   UNL     1      -5.111   3.017   2.668  0.00  0.00    +0.011 C 
ENDBRANCH  29  30
BRANCH  29  33
ATOM     33  O   UNL     1      -4.535   4.074  -0.000  0.00  0.00    -0.479 OA
BRANCH  33  34
ATOM     34  C   UNL     1      -3.545   4.741   0.650  0.00  0.00    +0.122 A 
ATOM     35  C   UNL     1      -2.633   4.043   1.429  0.00  0.00    +0.045 A 
ATOM     36  C   UNL     1      -1.627   4.722   2.089  0.00  0.00    +0.004 A 
ATOM     37  C   UNL     1      -1.530   6.097   1.975  0.00  0.00    +0.000 A 
ATOM     38  C   UNL     1      -2.438   6.795   1.200  0.00  0.00    +0.004 A 
ATOM     39  C   UNL     1      -3.442   6.119   0.533  0.00  0.00    +0.045 A 
ENDBRANCH  33  34
ENDBRANCH  29  33
ENDBRANCH  11  29
TORSDOF 11
