REMARK  Name = ZINC59739892
REMARK  6 active torsions:
REMARK  status: ('A' for Active; 'I' for Inactive)
REMARK    1  A    between atoms: C_1  and  C_2
REMARK    2  A    between atoms: C_9  and  C_11
REMARK    3  A    between atoms: C_18  and  C_20
REMARK    4  A    between atoms: C_20  and  C_21
REMARK    5  A    between atoms: C_20  and  C_22
REMARK    6  A    between atoms: C_20  and  C_23
REMARK                            x       y       z     vdW  Elec       q    Type
REMARK                         _______ _______ _______ _____ _____    ______ ____
ROOT
ATOM      1  C   UNL     1       1.304  -5.009   0.261  0.00  0.00    +0.092 C 
ATOM      2  C   UNL     1       0.762  -6.027  -0.745  0.00  0.00    +0.016 C 
ATOM      3  C   UNL     1       0.727  -7.414  -0.100  0.00  0.00    +0.020 C 
ATOM      4  C   UNL     1       2.149  -7.829   0.288  0.00  0.00    +0.108 C 
ATOM      5  N   UNL     1       2.731  -6.783   1.141  0.00  0.00    -0.300 N 
ATOM      6  C   UNL     1       2.733  -5.396   0.655  0.00  0.00    +0.120 C 
ATOM      7  C   UNL     1       3.251  -7.089   2.345  0.00  0.00    +0.221 C 
ATOM      8  O   UNL     1       3.654  -6.207   3.074  0.00  0.00    -0.275 OA
ENDROOT
BRANCH   1  16
ATOM      9  C   UNL     1      -3.243  -3.221   1.163  0.00  0.00    +0.009 C 
ATOM     10  C   UNL     1      -1.847  -2.661   0.883  0.00  0.00    +0.003 C 
ATOM     11  C   UNL     1      -1.969  -1.252   0.300  0.00  0.00    +0.006 C 
ATOM     12  C   UNL     1      -0.572  -0.678   0.050  0.00  0.00    +0.019 C 
ATOM     13  C   UNL     1       0.163  -1.559  -0.965  0.00  0.00    +0.108 C 
ATOM     14  N   UNL     1       0.157  -2.946  -0.479  0.00  0.00    -0.301 N 
ATOM     15  C   UNL     1      -1.126  -3.565  -0.122  0.00  0.00    +0.111 C 
ATOM     16  C   UNL     1       1.309  -3.637  -0.363  0.00  0.00    +0.220 C 
ATOM     17  O   UNL     1       2.348  -3.155  -0.761  0.00  0.00    -0.275 OA
ENDBRANCH   1  16
BRANCH   7  18
ATOM     18  C   UNL     1       3.333  -8.527   2.787  0.00  0.00    +0.039 C 
ATOM     19  C   UNL     1       4.108  -8.613   4.103  0.00  0.00    +0.020 C 
ATOM     20  C   UNL     1       1.921  -9.079   2.990  0.00  0.00    +0.020 C 
ATOM     21  C   UNL     1       4.053  -9.350   1.716  0.00  0.00    +0.020 C 
ENDBRANCH   7  18
TORSDOF 2
