REMARK  Name = ZINC13068636
REMARK  11 active torsions:
REMARK  status: ('A' for Active; 'I' for Inactive)
REMARK    1  A    between atoms: C_1  and  C_2
REMARK    2  A    between atoms: C_2  and  N_50
REMARK    3  A    between atoms: C_3  and  C_4
REMARK    4  A    between atoms: C_3  and  N_50
REMARK    5  A    between atoms: C_5  and  C_7
REMARK    6  A    between atoms: C_5  and  C_21
REMARK    7  A    between atoms: C_5  and  N_50
REMARK    8  A    between atoms: C_7  and  N_8
REMARK    9  A    between atoms: N_8  and  C_9
REMARK   10  A    between atoms: C_12  and  C_18
REMARK   11  A    between atoms: C_14  and  N_15
REMARK                            x       y       z     vdW  Elec       q    Type
REMARK                         _______ _______ _______ _____ _____    ______ ____
ROOT
ATOM      1  N   UNL     1      -3.881   2.274   0.532  0.00  0.00    -0.343 N 
ATOM      2  H   UNL     1      -4.732   2.514   0.134  0.00  0.00    +0.146 HD
ENDROOT
BRANCH   1   3
ATOM      3  C   UNL     1      -3.057   3.262   1.058  0.00  0.00    +0.058 A 
ATOM      4  C   UNL     1      -1.810   2.923   1.579  0.00  0.00    +0.026 A 
ATOM      5  C   UNL     1      -0.990   3.899   2.096  0.00  0.00    +0.015 A 
ATOM      6  C   UNL     1      -1.411   5.232   2.103  0.00  0.00    +0.039 A 
ATOM      7  C   UNL     1      -2.665   5.569   1.585  0.00  0.00    +0.047 A 
ATOM      8  C   UNL     1      -3.481   4.588   1.069  0.00  0.00    +0.148 A 
BRANCH   6   9
ATOM      9  C   UNL     1      -0.535   6.282   2.657  0.00  0.00    +0.242 C 
ATOM     10  O   UNL     1      -0.902   7.441   2.663  0.00  0.00    -0.270 OA
ATOM     11  N   UNL     1       0.674   5.955   3.157  0.00  0.00    -0.325 N 
ATOM     12  H   UNL     1       0.967   5.031   3.152  0.00  0.00    +0.145 HD
ATOM     13  H   UNL     1       1.250   6.645   3.521  0.00  0.00    +0.145 HD
ENDBRANCH   6   9
BRANCH   8  14
ATOM     14  N   UNL     1      -4.809   4.943   0.520  0.00  0.00    +0.058 N 
ATOM     15  O   UNL     1      -5.219   6.087   0.611  0.00  0.00    -0.126 OA
ATOM     16  O   UNL     1      -5.491   4.093  -0.022  0.00  0.00    -0.126 OA
ENDBRANCH   8  14
ENDBRANCH   1   3
BRANCH   1  17
ATOM     17  C   UNL     1      -3.463   0.870   0.578  0.00  0.00    +0.091 C 
BRANCH  17  18
ATOM     18  C   UNL     1      -4.621  -0.021   0.126  0.00  0.00    -0.019 C 
BRANCH  18  19
ATOM     19  C   UNL     1      -4.546  -1.345   0.843  0.00  0.00    -0.041 A 
ATOM     20  C   UNL     1      -3.561  -2.256   0.510  0.00  0.00    +0.003 A 
ATOM     21  C   UNL     1      -3.491  -3.470   1.166  0.00  0.00    +0.000 A 
ATOM     22  C   UNL     1      -4.406  -3.774   2.157  0.00  0.00    +0.001 A 
ATOM     23  C   UNL     1      -5.391  -2.864   2.491  0.00  0.00    +0.020 A 
ATOM     24  C   UNL     1      -5.458  -1.647   1.837  0.00  0.00    +0.043 A 
ATOM     25 CL   UNL     1      -6.691  -0.500   2.261  0.00  0.00    -0.083 Cl
ENDBRANCH  18  19
BRANCH  18  26
ATOM     26  N   UNL     1      -4.511  -0.263  -1.328  0.00  0.00    +0.385 N 
ATOM     27  H   UNL     1      -3.791  -0.976  -1.494  0.00  0.00    -0.081 HD
BRANCH  26  29
ATOM     28  C   UNL     1      -5.980  -2.214  -1.444  0.00  0.00    -0.017 C 
ATOM     29  C   UNL     1      -5.802  -0.752  -1.858  0.00  0.00    -0.081 C 
ENDBRANCH  26  29
BRANCH  26  30
ATOM     30  C   UNL     1      -4.121   0.984  -2.019  0.00  0.00    -0.081 C 
ATOM     31  C   UNL     1      -3.143   0.631  -3.141  0.00  0.00    -0.017 C 
ENDBRANCH  26  30
ENDBRANCH  18  26
ENDBRANCH  17  18
ENDBRANCH   1  17
TORSDOF 9
