REMARK  Name = ZINC08790178
REMARK  6 active torsions:
REMARK  status: ('A' for Active; 'I' for Inactive)
REMARK    1  A    between atoms: C_1  and  C_2
REMARK    2  A    between atoms: C_2  and  C_36
REMARK    3  A    between atoms: C_4  and  N_9
REMARK    4  A    between atoms: C_6  and  C_7
REMARK    5  A    between atoms: C_6  and  C_8
REMARK    6  A    between atoms: C_10  and  C_12
REMARK                            x       y       z     vdW  Elec       q    Type
REMARK                         _______ _______ _______ _____ _____    ______ ____
ROOT
ATOM      1  C   UNL     1       4.479   5.162  -0.380  0.00  0.00    +0.167 C 
ATOM      2  C   UNL     1       2.949   5.262  -0.308  0.00  0.00    +0.069 C 
ATOM      3  C   UNL     1       2.336   3.885  -0.308  0.00  0.00    -0.015 A 
ATOM      4  C   UNL     1       0.948   3.541  -0.559  0.00  0.00    +0.003 A 
ATOM      5  C   UNL     1      -0.172   4.314  -0.877  0.00  0.00    +0.010 A 
ATOM      6  C   UNL     1      -1.358   3.644  -1.050  0.00  0.00    +0.001 A 
ATOM      7  C   UNL     1      -1.451   2.268  -0.924  0.00  0.00    +0.002 A 
ATOM      8  C   UNL     1      -0.359   1.480  -0.604  0.00  0.00    +0.026 A 
ATOM      9  C   UNL     1       0.858   2.133  -0.423  0.00  0.00    +0.047 A 
ATOM     10  N   UNL     1       2.106   1.674  -0.112  0.00  0.00    -0.356 N 
ATOM     11  H   UNL     1       2.337   0.745   0.044  0.00  0.00    +0.166 HD
ATOM     12  C   UNL     1       2.982   2.724  -0.054  0.00  0.00    +0.046 A 
ATOM     13  C   UNL     1       4.463   2.652   0.226  0.00  0.00    +0.155 C 
ATOM     14  N   UNL     1       4.897   4.047   0.475  0.00  0.00    -0.273 N 
ATOM     15  C   UNL     1       5.656   4.065   1.579  0.00  0.00    +0.248 C 
ATOM     16  O   UNL     1       6.344   4.999   1.942  0.00  0.00    -0.270 OA
ATOM     17  C   UNL     1       5.529   2.785   2.284  0.00  0.00    +0.042 A 
ATOM     18  C   UNL     1       4.776   1.906   1.478  0.00  0.00    -0.009 A 
ATOM     19  C   UNL     1       4.480   0.626   1.890  0.00  0.00    +0.006 A 
ATOM     20  C   UNL     1       4.969   0.232   3.132  0.00  0.00    +0.000 A 
ATOM     21  C   UNL     1       5.721   1.079   3.921  0.00  0.00    +0.001 A 
ATOM     22  C   UNL     1       6.024   2.373   3.523  0.00  0.00    +0.013 A 
ENDROOT
BRANCH   1  24
ATOM     23  N   UNL     1       5.722   7.269  -0.750  0.00  0.00    -0.311 N 
ATOM     24  C   UNL     1       5.098   6.444   0.115  0.00  0.00    +0.234 C 
ATOM     25  O   UNL     1       5.034   6.734   1.291  0.00  0.00    -0.274 OA
ATOM     26  H   UNL     1       5.774   7.037  -1.690  0.00  0.00    +0.149 HD
BRANCH  23  30
ATOM     27  C   UNL     1       8.976   9.976   0.463  0.00  0.00    -0.010 C 
ATOM     28  C   UNL     1       8.079  10.244  -0.751  0.00  0.00    -0.072 C 
ATOM     29  C   UNL     1       7.447   8.935  -1.218  0.00  0.00    +0.009 C 
ATOM     30  C   UNL     1       6.325   8.518  -0.267  0.00  0.00    +0.070 C 
ATOM     31  C   UNL     1       5.264   9.617  -0.256  0.00  0.00    +0.009 C 
ATOM     32  C   UNL     1       5.869  10.936   0.220  0.00  0.00    -0.072 C 
ATOM     33  C   UNL     1       6.072  10.887   1.739  0.00  0.00    -0.010 C 
ATOM     34  C   UNL     1       4.838  12.051  -0.068  0.00  0.00    -0.010 C 
ATOM     35  C   UNL     1       8.991  10.752  -1.890  0.00  0.00    -0.010 C 
ATOM     36  N   UNL     1       7.114  11.345  -0.483  0.00  0.00    +0.386 N 
ATOM     37  H   UNL     1       6.849  11.761  -1.384  0.00  0.00    -0.084 HD
ATOM     38  H   UNL     1       7.588  12.050   0.093  0.00  0.00    -0.084 HD
ENDBRANCH  23  30
ENDBRANCH   1  24
TORSDOF 2
