REMARK  Name = ZINC44713561
REMARK  7 active torsions:
REMARK  status: ('A' for Active; 'I' for Inactive)
REMARK    1  A    between atoms: C_1  and  O_2
REMARK    2  A    between atoms: O_2  and  C_3
REMARK    3  A    between atoms: C_11  and  C_13
REMARK    4  A    between atoms: C_13  and  C_14
REMARK    5  A    between atoms: C_14  and  N_15
REMARK    6  A    between atoms: C_16  and  C_18
REMARK    7  A    between atoms: C_29  and  C_31
REMARK                            x       y       z     vdW  Elec       q    Type
REMARK                         _______ _______ _______ _____ _____    ______ ____
ROOT
ATOM      1  C   UNL     1       6.413  -7.676   6.413  0.00  0.00    +0.100 C 
ATOM      2  C   UNL     1       5.848  -7.686   7.851  0.00  0.00    +0.121 C 
ATOM      3  N   UNL     1       6.940  -8.252   8.678  0.00  0.00    -0.300 N 
ATOM      4  C   UNL     1       8.176  -7.660   8.112  0.00  0.00    +0.115 C 
ATOM      5  C   UNL     1       7.940  -7.659   6.588  0.00  0.00    -0.004 C 
ATOM      6  C   UNL     1       8.559  -8.902   5.957  0.00  0.00    -0.010 C 
ATOM      7  C   UNL     1      10.082  -8.835   6.094  0.00  0.00    -0.082 C 
ATOM      8  N   UNL     1      10.582  -7.625   5.430  0.00  0.00    +0.379 N 
ATOM      9  C   UNL     1      10.055  -6.431   6.102  0.00  0.00    -0.082 C 
ATOM     10  C   UNL     1       8.530  -6.397   5.965  0.00  0.00    -0.010 C 
ATOM     11  C   UNL     1       6.833  -9.111   9.711  0.00  0.00    +0.219 C 
ATOM     12  O   UNL     1       7.829  -9.485  10.293  0.00  0.00    -0.275 OA
ATOM     13  H   UNL     1      11.590  -7.614   5.469  0.00  0.00    -0.086 HD
ATOM     14  H   UNL     1      10.285  -7.625   4.466  0.00  0.00    -0.086 HD
ENDROOT
BRANCH  11  15
ATOM     15  C   UNL     1       5.477  -9.605  10.143  0.00  0.00    +0.079 C 
ATOM     16  C   UNL     1       5.631 -10.555  11.338  0.00  0.00    +0.017 C 
ATOM     17  C   UNL     1       4.266 -11.178  11.640  0.00  0.00    +0.027 C 
ATOM     18  C   UNL     1       3.216 -10.108  11.720  0.00  0.00    -0.031 C 
ATOM     19  C   UNL     1       3.365  -8.910  11.253  0.00  0.00    -0.030 C 
ATOM     20  C   UNL     1       4.610  -8.419  10.571  0.00  0.00    +0.039 C 
ENDBRANCH  11  15
BRANCH   1  22
ATOM     21  N   UNL     1       5.815  -6.469   4.338  0.00  0.00    -0.315 N 
ATOM     22  C   UNL     1       5.955  -6.442   5.678  0.00  0.00    +0.218 C 
ATOM     23  O   UNL     1       5.713  -5.425   6.293  0.00  0.00    -0.275 OA
ATOM     24  H   UNL     1       6.008  -7.283   3.846  0.00  0.00    +0.149 HD
BRANCH  21  25
ATOM     25  C   UNL     1       5.370  -5.270   3.624  0.00  0.00    +0.112 C 
BRANCH  25  26
ATOM     26  C   UNL     1       5.294  -5.567   2.125  0.00  0.00    +0.093 C 
BRANCH  26  35
ATOM     27  C   UNL     1       3.974  -0.689  -1.161  0.00  0.00    +0.122 A 
ATOM     28  C   UNL     1       2.859  -0.659  -0.329  0.00  0.00    +0.048 A 
ATOM     29  C   UNL     1       2.688  -1.607   0.639  0.00  0.00    +0.033 A 
ATOM     30  C   UNL     1       3.638  -2.619   0.800  0.00  0.00    +0.089 A 
ATOM     31  C   UNL     1       4.765  -2.652  -0.039  0.00  0.00    +0.070 A 
ATOM     32  C   UNL     1       4.924  -1.685  -1.022  0.00  0.00    +0.073 A 
ATOM     33  N   UNL     1       5.504  -3.748   0.359  0.00  0.00    -0.342 N 
ATOM     34  H   UNL     1       6.344  -4.045  -0.025  0.00  0.00    +0.167 HD
ATOM     35  C   UNL     1       4.837  -4.334   1.390  0.00  0.00    +0.110 A 
ATOM     36  N   UNL     1       3.746  -3.675   1.649  0.00  0.00    -0.232 NA
BRANCH  27  38
ATOM     37  C   UNL     1       3.113   1.264  -2.210  0.00  0.00    +0.277 C 
ATOM     38  O   UNL     1       4.129   0.264  -2.120  0.00  0.00    -0.495 OA
ENDBRANCH  27  38
ENDBRANCH  26  35
ENDBRANCH  25  26
ENDBRANCH  21  25
ENDBRANCH   1  22
TORSDOF 6
