REMARK  Name = ZINC34747817
REMARK  7 active torsions:
REMARK  status: ('A' for Active; 'I' for Inactive)
REMARK    1  A    between atoms: C_1  and  C_2
REMARK    2  A    between atoms: C_2  and  C_3
REMARK    3  A    between atoms: C_2  and  C_4
REMARK    4  A    between atoms: C_4  and  N_5
REMARK    5  A    between atoms: N_23  and  C_24
REMARK    6  A    between atoms: C_24  and  C_25
REMARK    7  A    between atoms: N_27  and  C_28
REMARK                            x       y       z     vdW  Elec       q    Type
REMARK                         _______ _______ _______ _____ _____    ______ ____
ROOT
ATOM      1  N   UNL     1      -0.157  -2.621  -0.359  0.00  0.00    +0.382 N 
ATOM      2  C   UNL     1       0.128  -4.044  -0.579  0.00  0.00    -0.060 C 
ATOM      3  C   UNL     1      -1.179  -4.786  -0.878  0.00  0.00    +0.089 C 
ATOM      4  N   UNL     1      -2.127  -4.518   0.215  0.00  0.00    -0.304 N 
ATOM      5  C   UNL     1      -2.349  -3.119   0.613  0.00  0.00    +0.089 C 
ATOM      6  C   UNL     1      -0.987  -2.457   0.841  0.00  0.00    -0.060 C 
ATOM      7  C   UNL     1      -2.785  -5.545   0.845  0.00  0.00    +0.202 A 
ATOM      8  N   UNL     1      -2.203  -6.171   1.846  0.00  0.00    -0.208 NA
ATOM      9  C   UNL     1      -2.818  -7.168   2.473  0.00  0.00    +0.117 A 
ATOM     10  C   UNL     1      -4.102  -7.598   2.108  0.00  0.00    +0.076 A 
ATOM     11  C   UNL     1      -4.657  -8.713   2.893  0.00  0.00    -0.023 A 
ATOM     12  C   UNL     1      -3.887  -9.206   3.877  0.00  0.00    -0.004 A 
ATOM     13  S   UNL     1      -2.396  -8.238   3.824  0.00  0.00    -0.073 S 
ATOM     14  C   UNL     1      -4.558 -10.335   4.613  0.00  0.00    +0.043 C 
ATOM     15  C   UNL     1      -6.050 -10.212   4.234  0.00  0.00    +0.010 C 
ATOM     16  C   UNL     1      -5.968  -9.503   2.868  0.00  0.00    +0.037 C 
ATOM     17  C   UNL     1      -4.712  -6.900   1.019  0.00  0.00    +0.264 A 
ATOM     18  O   UNL     1      -5.827  -7.206   0.634  0.00  0.00    -0.267 OA
ATOM     19  N   UNL     1      -4.036  -5.896   0.429  0.00  0.00    -0.271 N 
ATOM     20  H   UNL     1      -0.647  -2.251  -1.159  0.00  0.00    -0.082 HD
ENDROOT
BRANCH   1  21
ATOM     21  C   UNL     1       1.107  -1.892  -0.182  0.00  0.00    -0.076 C 
BRANCH  21  23
ATOM     22  C   UNL     1       2.133   0.366   0.113  0.00  0.00    +0.005 C 
ATOM     23  C   UNL     1       0.826  -0.389  -0.132  0.00  0.00    -0.034 C 
ATOM     24  C   UNL     1       0.218   0.061  -1.462  0.00  0.00    +0.005 C 
ENDBRANCH  21  23
ENDBRANCH   1  21
BRANCH  19  25
ATOM     25  C   UNL     1      -4.653  -5.170  -0.684  0.00  0.00    +0.224 C 
BRANCH  25  26
ATOM     26  C   UNL     1      -4.401  -5.914  -1.970  0.00  0.00    +0.237 C 
ATOM     27  O   UNL     1      -3.767  -6.949  -1.958  0.00  0.00    -0.274 OA
ATOM     28  N   UNL     1      -4.879  -5.430  -3.133  0.00  0.00    -0.283 N 
ATOM     29  H   UNL     1      -5.318  -4.566  -3.155  0.00  0.00    +0.155 HD
BRANCH  28  30
ATOM     30  C   UNL     1      -4.742  -6.173  -4.307  0.00  0.00    +0.041 A 
ATOM     31  C   UNL     1      -4.779  -7.551  -4.267  0.00  0.00    +0.024 A 
ATOM     32  C   UNL     1      -4.644  -8.301  -5.431  0.00  0.00    +0.002 A 
ATOM     33  C   UNL     1      -4.471  -7.698  -6.640  0.00  0.00    +0.008 A 
ATOM     34  C   UNL     1      -4.428  -6.296  -6.724  0.00  0.00    -0.016 A 
ATOM     35  C   UNL     1      -4.570  -5.521  -5.546  0.00  0.00    +0.003 A 
ATOM     36  C   UNL     1      -4.531  -4.121  -5.633  0.00  0.00    +0.010 A 
ATOM     37  C   UNL     1      -4.363  -3.525  -6.846  0.00  0.00    +0.001 A 
ATOM     38  C   UNL     1      -4.229  -4.286  -8.006  0.00  0.00    +0.001 A 
ATOM     39  C   UNL     1      -4.251  -5.646  -7.958  0.00  0.00    +0.008 A 
ENDBRANCH  28  30
ENDBRANCH  25  26
ENDBRANCH  19  25
TORSDOF 5
