REMARK  Name = ZINC51304513
REMARK  6 active torsions:
REMARK  status: ('A' for Active; 'I' for Inactive)
REMARK    1  A    between atoms: C_2  and  C_3
REMARK    2  A    between atoms: C_3  and  N_4
REMARK    3  A    between atoms: C_5  and  C_7
REMARK    4  A    between atoms: C_7  and  N_8
REMARK    5  A    between atoms: N_11  and  C_12
REMARK    6  A    between atoms: C_12  and  C_13
REMARK                            x       y       z     vdW  Elec       q    Type
REMARK                         _______ _______ _______ _____ _____    ______ ____
ROOT
ATOM      1  N   UNL     1       2.979   5.290   0.002  0.00  0.00    -0.291 N 
ATOM      2  C   UNL     1       4.137   5.979  -0.005  0.00  0.00    +0.300 C 
ATOM      3  O   UNL     1       5.198   5.386  -0.019  0.00  0.00    -0.253 OA
ATOM      4  N   UNL     1       4.118   7.327   0.002  0.00  0.00    -0.295 N 
ATOM      5  H   UNL     1       2.132   5.763   0.013  0.00  0.00    +0.151 HD
ATOM      6  H   UNL     1       3.272   7.800   0.013  0.00  0.00    +0.151 HD
ENDROOT
BRANCH   1   7
ATOM      7  C   UNL     1       2.999   3.825  -0.006  0.00  0.00    +0.201 C 
BRANCH   7   9
ATOM      8  N   UNL     1       1.357   1.975  -0.000  0.00  0.00    -0.303 N 
ATOM      9  C   UNL     1       1.585   3.303   0.005  0.00  0.00    +0.231 C 
ATOM     10  O   UNL     1       0.652   4.079   0.018  0.00  0.00    -0.274 OA
ATOM     11  H   UNL     1       2.102   1.355  -0.011  0.00  0.00    +0.150 HD
BRANCH   8  12
ATOM     12  C   UNL     1      -0.018   1.468   0.010  0.00  0.00    +0.193 C 
BRANCH  12  14
ATOM     13  C   UNL     1       0.018  -1.178  -0.004  0.00  0.00    +0.005 C 
ATOM     14  C   UNL     1       0.002  -0.004   0.002  0.00  0.00    -0.087 C 
ENDBRANCH  12  14
ENDBRANCH   8  12
ENDBRANCH   7   9
ENDBRANCH   1   7
BRANCH   4  15
ATOM     15  C   UNL     1       5.377   8.077  -0.006  0.00  0.00    +0.142 C 
BRANCH  15  16
ATOM     16  C   UNL     1       5.082   9.554   0.005  0.00  0.00    -0.014 A 
ATOM     17  C   UNL     1       5.133  10.278  -1.172  0.00  0.00    +0.044 A 
ATOM     18  C   UNL     1       4.862  11.635  -1.162  0.00  0.00    +0.124 A 
ATOM     19  C   UNL     1       4.539  12.267   0.028  0.00  0.00    +0.039 A 
ATOM     20  C   UNL     1       4.487  11.543   1.203  0.00  0.00    +0.018 A 
ATOM     21  C   UNL     1       4.753  10.185   1.191  0.00  0.00    +0.023 A 
ATOM     22 BR   UNL     1       4.675   9.193   2.799  0.00  0.00    -0.050 Br
ATOM     23  F   UNL     1       4.912  12.343  -2.311  0.00  0.00    -0.205 F 
ENDBRANCH  15  16
ENDBRANCH   4  15
TORSDOF 6
