REMARK  Name = ZINC37038166
REMARK  7 active torsions:
REMARK  status: ('A' for Active; 'I' for Inactive)
REMARK    1  A    between atoms: C_1  and  C_2
REMARK    2  A    between atoms: C_2  and  C_4
REMARK    3  A    between atoms: C_2  and  N_12
REMARK    4  A    between atoms: N_16  and  C_19
REMARK    5  A    between atoms: C_19  and  C_20
REMARK    6  A    between atoms: C_20  and  C_21
REMARK    7  A    between atoms: C_21  and  N_22
REMARK                            x       y       z     vdW  Elec       q    Type
REMARK                         _______ _______ _______ _____ _____    ______ ____
ROOT
ATOM      1  N   UNL     1       0.601  -0.495  -1.244  0.00  0.00    +0.388 N 
ATOM      2  C   UNL     1      -0.095   0.157  -2.374  0.00  0.00    -0.076 C 
ATOM      3  C   UNL     1       0.793   0.095  -3.591  0.00  0.00    -0.003 C 
ATOM      4  C   UNL     1       0.490  -1.137  -4.463  0.00  0.00    +0.082 C 
ATOM      5  N   UNL     1       0.251  -2.353  -3.652  0.00  0.00    -0.304 NA
ATOM      6  C   UNL     1       1.157  -2.492  -2.534  0.00  0.00    +0.066 C 
ATOM      7  C   UNL     1       0.498  -1.889  -1.279  0.00  0.00    -0.062 C 
ATOM      8  H   UNL     1       1.576  -0.239  -1.272  0.00  0.00    -0.081 HD
ENDROOT
BRANCH   1  10
ATOM      9  C   UNL     1       0.210   1.507   0.112  0.00  0.00    -0.004 C 
ATOM     10  C   UNL     1       0.019  -0.008   0.015  0.00  0.00    +0.016 C 
BRANCH  10  11
ATOM     11  C   UNL     1       0.707  -0.677   1.177  0.00  0.00    +0.202 C 
ATOM     12  O   UNL     1       1.839  -1.093   1.054  0.00  0.00    -0.277 OA
ATOM     13  N   UNL     1       0.063  -0.812   2.353  0.00  0.00    -0.298 N 
ATOM     14  C   UNL     1      -1.272  -0.229   2.558  0.00  0.00    +0.136 C 
ATOM     15  C   UNL     1      -2.194  -1.317   3.120  0.00  0.00    +0.179 C 
ATOM     16  O   UNL     1      -1.578  -1.909   4.266  0.00  0.00    -0.377 OA
ATOM     17  C   UNL     1      -0.343  -2.572   3.989  0.00  0.00    +0.179 C 
ATOM     18  C   UNL     1       0.672  -1.554   3.469  0.00  0.00    +0.136 C 
ENDBRANCH  10  11
ENDBRANCH   1  10
BRANCH   5  19
ATOM     19  C   UNL     1       0.263  -3.558  -4.492  0.00  0.00    +0.082 C 
BRANCH  19  20
ATOM     20  C   UNL     1      -0.927  -3.521  -5.453  0.00  0.00    -0.004 C 
BRANCH  20  21
ATOM     21  C   UNL     1      -0.915  -4.775  -6.329  0.00  0.00    -0.085 C 
BRANCH  21  22
ATOM     22  N   UNL     1      -2.057  -4.740  -7.252  0.00  0.00    +0.378 N 
ATOM     23  H   UNL     1      -2.916  -4.707  -6.723  0.00  0.00    -0.090 HD
ATOM     24  H   UNL     1      -1.992  -3.920  -7.837  0.00  0.00    -0.090 HD
ATOM     25  H   UNL     1      -2.049  -5.567  -7.829  0.00  0.00    -0.090 HD
ENDBRANCH  21  22
ENDBRANCH  20  21
ENDBRANCH  19  20
ENDBRANCH   5  19
TORSDOF 6
