REMARK  Name = ZINC12502384
REMARK  12 active torsions:
REMARK  status: ('A' for Active; 'I' for Inactive)
REMARK    1  A    between atoms: C_1  and  C_2
REMARK    2  A    between atoms: C_2  and  C_4
REMARK    3  A    between atoms: C_2  and  N_69
REMARK    4  A    between atoms: N_6  and  C_7
REMARK    5  A    between atoms: C_7  and  C_9
REMARK    6  A    between atoms: C_7  and  C_31
REMARK    7  A    between atoms: C_15  and  C_17
REMARK    8  A    between atoms: N_19  and  C_20
REMARK    9  A    between atoms: C_31  and  C_32
REMARK   10  A    between atoms: C_31  and  C_33
REMARK   11  A    between atoms: C_31  and  C_34
REMARK   12  A    between atoms: C_35  and  N_69
REMARK                            x       y       z     vdW  Elec       q    Type
REMARK                         _______ _______ _______ _____ _____    ______ ____
ROOT
ATOM      1  C   UNL     1      -4.984  -1.919  -0.122  0.00  0.00    +0.237 C 
ATOM      2  O   UNL     1      -3.983  -2.172  -0.759  0.00  0.00    -0.274 OA
ATOM      3  N   UNL     1      -4.885  -1.550   1.170  0.00  0.00    -0.288 N 
ATOM      4  C   UNL     1      -6.002  -1.113   2.027  0.00  0.00    +0.109 C 
ATOM      5  C   UNL     1      -5.342  -0.246   3.127  0.00  0.00    +0.021 C 
ATOM      6  C   UNL     1      -4.012  -1.007   3.369  0.00  0.00    +0.033 C 
ATOM      7  C   UNL     1      -3.645  -1.516   1.959  0.00  0.00    +0.162 C 
ENDROOT
BRANCH   7   8
ATOM      8  C   UNL     1      -2.655  -0.579   1.317  0.00  0.00    +0.234 C 
ATOM      9  O   UNL     1      -2.949   0.009   0.298  0.00  0.00    -0.274 OA
ATOM     10  N   UNL     1      -1.442  -0.393   1.876  0.00  0.00    -0.307 N 
ATOM     11  H   UNL     1      -1.207  -0.864   2.691  0.00  0.00    +0.149 HD
BRANCH  10  12
ATOM     12  C   UNL     1      -0.480   0.518   1.253  0.00  0.00    +0.103 C 
ATOM     13  C   UNL     1       0.936   0.092   1.633  0.00  0.00    +0.027 C 
ATOM     14  C   UNL     1       1.912   1.174   1.157  0.00  0.00    +0.007 C 
ATOM     15  C   UNL     1       1.709   2.419   2.019  0.00  0.00    +0.035 C 
ATOM     16  C   UNL     1       0.253   2.798   2.068  0.00  0.00    -0.042 A 
ATOM     17  C   UNL     1      -0.753   1.924   1.720  0.00  0.00    -0.024 A 
ATOM     18  C   UNL     1      -2.077   2.337   1.789  0.00  0.00    +0.006 A 
ATOM     19  C   UNL     1      -2.393   3.612   2.210  0.00  0.00    +0.000 A 
ATOM     20  C   UNL     1      -1.384   4.490   2.556  0.00  0.00    +0.000 A 
ATOM     21  C   UNL     1      -0.067   4.084   2.485  0.00  0.00    +0.004 A 
ENDBRANCH  10  12
ENDBRANCH   7   8
BRANCH   1  22
ATOM     22  C   UNL     1      -6.338  -2.017  -0.777  0.00  0.00    +0.164 C 
BRANCH  22  25
ATOM     23  C   UNL     1      -7.297  -1.184  -2.856  0.00  0.00    +0.199 C 
ATOM     24  O   UNL     1      -8.357  -1.056  -2.282  0.00  0.00    -0.278 OA
ATOM     25  N   UNL     1      -6.224  -1.657  -2.192  0.00  0.00    -0.305 N 
ATOM     26  H   UNL     1      -5.375  -1.758  -2.652  0.00  0.00    +0.149 HD
BRANCH  23  28
ATOM     27  C   UNL     1      -6.758  -2.043  -5.119  0.00  0.00    -0.004 C 
ATOM     28  C   UNL     1      -7.179  -0.813  -4.312  0.00  0.00    +0.012 C 
BRANCH  28  30
ATOM     29  C   UNL     1      -8.305   0.565  -5.954  0.00  0.00    -0.099 C 
ATOM     30  N   UNL     1      -8.487  -0.331  -4.796  0.00  0.00    +0.385 N 
ATOM     31  H   UNL     1      -8.959   0.181  -4.042  0.00  0.00    -0.085 HD
ATOM     32  H   UNL     1      -9.061  -1.135  -5.076  0.00  0.00    -0.085 HD
ENDBRANCH  28  30
ENDBRANCH  23  28
ENDBRANCH  22  25
BRANCH  22  33
ATOM     33  C   UNL     1      -6.861  -3.449  -0.655  0.00  0.00    -0.011 C 
ATOM     34  C   UNL     1      -6.947  -3.837   0.822  0.00  0.00    +0.013 C 
ATOM     35  C   UNL     1      -8.251  -3.540  -1.288  0.00  0.00    +0.013 C 
ATOM     36  C   UNL     1      -5.907  -4.403  -1.379  0.00  0.00    +0.013 C 
ENDBRANCH  22  33
ENDBRANCH   1  22
TORSDOF 7
