REMARK  Name = ZINC56945947
REMARK  11 active torsions:
REMARK  status: ('A' for Active; 'I' for Inactive)
REMARK    1  A    between atoms: C_1  and  C_2
REMARK    2  A    between atoms: C_4  and  C_29
REMARK    3  A    between atoms: N_5  and  C_7
REMARK    4  A    between atoms: C_7  and  C_8
REMARK    5  A    between atoms: N_10  and  N_11
REMARK    6  A    between atoms: N_14  and  C_15
REMARK    7  A    between atoms: C_15  and  C_17
REMARK    8  A    between atoms: C_15  and  C_18
REMARK    9  A    between atoms: C_18  and  N_19
REMARK   10  A    between atoms: C_21  and  C_28
REMARK   11  A    between atoms: C_24  and  C_27
REMARK                            x       y       z     vdW  Elec       q    Type
REMARK                         _______ _______ _______ _____ _____    ______ ____
ROOT
ATOM      1  N   UNL     1       3.075  -5.110   2.818  0.00  0.00    -0.218 N 
ATOM      2  C   UNL     1       3.339  -6.179   3.595  0.00  0.00    +0.316 C 
ATOM      3  O   UNL     1       4.491  -6.492   3.827  0.00  0.00    -0.251 OA
ATOM      4  N   UNL     1       2.327  -6.902   4.114  0.00  0.00    -0.297 N 
ATOM      5  H   UNL     1       3.803  -4.590   2.444  0.00  0.00    +0.174 HD
ATOM      6  H   UNL     1       1.408  -6.653   3.928  0.00  0.00    +0.150 HD
ENDROOT
BRANCH   1   9
ATOM      7  C   UNL     1       1.482  -3.682   1.773  0.00  0.00    +0.251 C 
ATOM      8  O   UNL     1       2.393  -3.031   1.306  0.00  0.00    -0.272 OA
ATOM      9  N   UNL     1       1.747  -4.751   2.550  0.00  0.00    -0.232 N 
ATOM     10  H   UNL     1       1.019  -5.271   2.923  0.00  0.00    +0.173 HD
BRANCH   7  11
ATOM     11  C   UNL     1       0.055  -3.295   1.485  0.00  0.00    +0.240 C 
BRANCH  11  16
ATOM     12  C   UNL     1      -0.018   1.503   0.010  0.00  0.00    +0.067 C 
ATOM     13  C   UNL     1       0.002  -0.004   0.002  0.00  0.00    +0.060 A 
ATOM     14  C   UNL     1       0.008  -0.818  -1.135  0.00  0.00    +0.047 A 
ATOM     15  C   UNL     1       0.028  -2.107  -0.725  0.00  0.00    +0.037 A 
ATOM     16  N   UNL     1       0.034  -2.109   0.625  0.00  0.00    -0.259 N 
ATOM     17  N   UNL     1       0.023  -0.777   1.058  0.00  0.00    -0.176 NA
ATOM     18  C   UNL     1       0.040  -3.323  -1.615  0.00  0.00    +0.065 C 
ENDBRANCH  11  16
ENDBRANCH   7  11
ENDBRANCH   1   9
BRANCH   4  19
ATOM     19  C   UNL     1       2.615  -8.065   4.958  0.00  0.00    +0.055 C 
ATOM     20  C   UNL     1       2.845  -9.292   4.075  0.00  0.00    +0.026 C 
BRANCH  19  21
ATOM     21  C   UNL     1       1.431  -8.322   5.892  0.00  0.00    -0.057 C 
BRANCH  21  22
ATOM     22  N   UNL     1       1.135  -7.103   6.655  0.00  0.00    +0.381 N 
ATOM     23  C   UNL     1       2.269  -6.788   7.531  0.00  0.00    -0.076 C 
ATOM     24  C   UNL     1       2.000  -5.474   8.268  0.00  0.00    -0.031 C 
ATOM     25  C   UNL     1       0.729  -5.619   9.110  0.00  0.00    +0.003 C 
ATOM     26  C   UNL     1      -0.433  -6.020   8.196  0.00  0.00    -0.031 C 
ATOM     27  C   UNL     1      -0.074  -7.313   7.461  0.00  0.00    -0.076 C 
ATOM     28  C   UNL     1      -1.692  -6.242   9.037  0.00  0.00    +0.005 C 
ATOM     29  C   UNL     1       3.184  -5.149   9.182  0.00  0.00    +0.005 C 
ATOM     30  H   UNL     1       0.983  -6.336   6.017  0.00  0.00    -0.082 HD
ENDBRANCH  21  22
ENDBRANCH  19  21
ENDBRANCH   4  19
TORSDOF 6
