REMARK  Name = ZINC46645464
REMARK  5 active torsions:
REMARK  status: ('A' for Active; 'I' for Inactive)
REMARK    1  A    between atoms: C_1  and  C_2
REMARK    2  A    between atoms: C_2  and  C_4
REMARK    3  A    between atoms: C_2  and  N_25
REMARK    4  A    between atoms: N_6  and  C_7
REMARK    5  A    between atoms: C_7  and  C_8
REMARK                            x       y       z     vdW  Elec       q    Type
REMARK                         _______ _______ _______ _____ _____    ______ ____
ROOT
ATOM      1  C   UNL     1      -4.370  -0.206  -2.217  0.00  0.00    +0.019 C 
ATOM      2  C   UNL     1      -3.710  -0.786  -3.466  0.00  0.00    +0.018 C 
ATOM      3  C   UNL     1      -4.709  -1.626  -4.291  0.00  0.00    +0.050 C 
ATOM      4  C   UNL     1      -5.879  -0.697  -4.573  0.00  0.00    -0.036 A 
ATOM      5  C   UNL     1      -6.338  -0.376  -5.819  0.00  0.00    +0.004 A 
ATOM      6  C   UNL     1      -7.420   0.488  -5.931  0.00  0.00    +0.000 A 
ATOM      7  C   UNL     1      -8.018   1.012  -4.801  0.00  0.00    +0.000 A 
ATOM      8  C   UNL     1      -7.546   0.682  -3.537  0.00  0.00    +0.004 A 
ATOM      9  C   UNL     1      -6.482  -0.168  -3.434  0.00  0.00    -0.036 A 
ATOM     10  C   UNL     1      -5.855  -0.620  -2.124  0.00  0.00    +0.054 C 
ATOM     11  C   UNL     1      -5.854  -2.140  -2.189  0.00  0.00    -0.036 A 
ATOM     12  C   UNL     1      -5.253  -2.668  -3.326  0.00  0.00    -0.036 A 
ATOM     13  C   UNL     1      -5.182  -4.018  -3.515  0.00  0.00    +0.004 A 
ATOM     14  C   UNL     1      -5.721  -4.859  -2.550  0.00  0.00    +0.000 A 
ATOM     15  C   UNL     1      -6.318  -4.333  -1.419  0.00  0.00    +0.000 A 
ATOM     16  C   UNL     1      -6.386  -2.961  -1.235  0.00  0.00    +0.004 A 
ENDROOT
BRANCH   1  17
ATOM     17  C   UNL     1      -3.630  -0.713  -0.978  0.00  0.00    +0.108 C 
BRANCH  17  20
ATOM     18  C   UNL     1      -1.412  -0.526   0.013  0.00  0.00    +0.233 C 
ATOM     19  O   UNL     1      -1.790  -1.233   0.922  0.00  0.00    -0.274 OA
ATOM     20  N   UNL     1      -2.256  -0.206  -0.988  0.00  0.00    -0.313 N 
ATOM     21  H   UNL     1      -1.953   0.360  -1.716  0.00  0.00    +0.149 HD
BRANCH  18  23
ATOM     22  C   UNL     1      -0.019   1.526   0.010  0.00  0.00    +0.038 C 
ATOM     23  C   UNL     1       0.002  -0.004   0.002  0.00  0.00    +0.157 C 
BRANCH  23  24
ATOM     24  N   UNL     1       0.711  -0.489   1.189  0.00  0.00    -0.289 N 
ATOM     25  C   UNL     1       2.054  -0.600   1.174  0.00  0.00    +0.298 C 
ATOM     26  O   UNL     1       2.677  -0.297   0.175  0.00  0.00    -0.253 OA
ATOM     27  N   UNL     1       2.706  -1.046   2.266  0.00  0.00    -0.313 N 
ATOM     28  H   UNL     1       0.213  -0.731   1.986  0.00  0.00    +0.151 HD
ATOM     29  H   UNL     1       2.208  -1.288   3.062  0.00  0.00    +0.146 HD
ATOM     30  H   UNL     1       3.672  -1.126   2.255  0.00  0.00    +0.146 HD
ENDBRANCH  23  24
ENDBRANCH  18  23
ENDBRANCH  17  20
ENDBRANCH   1  17
TORSDOF 4
