REMARK  Name = ZINC20884834
REMARK  11 active torsions:
REMARK  status: ('A' for Active; 'I' for Inactive)
REMARK    1  A    between atoms: C_1  and  C_2
REMARK    2  A    between atoms: C_2  and  C_3
REMARK    3  A    between atoms: C_3  and  C_5
REMARK    4  A    between atoms: C_3  and  O_6
REMARK    5  A    between atoms: O_6  and  C_7
REMARK    6  A    between atoms: C_10  and  C_13
REMARK    7  A    between atoms: C_24  and  C_27
REMARK    8  A    between atoms: C_30  and  O_33
REMARK    9  A    between atoms: O_33  and  C_34
REMARK   10  A    between atoms: C_34  and  C_35
REMARK   11  A    between atoms: C_34  and  C_36
REMARK                            x       y       z     vdW  Elec       q    Type
REMARK                         _______ _______ _______ _____ _____    ______ ____
ROOT
ATOM      1  C   UNL     1       2.417  -5.271  -0.160  0.00  0.00    +0.063 C 
ATOM      2  C   UNL     1       3.323  -5.769  -1.287  0.00  0.00    +0.109 C 
ATOM      3  C   UNL     1       4.762  -5.625  -0.862  0.00  0.00    +0.218 C 
ATOM      4  O   UNL     1       5.612  -5.360  -1.685  0.00  0.00    -0.275 OA
ATOM      5  N   UNL     1       5.105  -5.790   0.428  0.00  0.00    -0.289 N 
ATOM      6  C   UNL     1       4.168  -6.115   1.375  0.00  0.00    +0.018 C 
ATOM      7  C   UNL     1       2.857  -5.884   1.148  0.00  0.00    +0.020 C 
ATOM      8  C   UNL     1       1.882  -6.202   2.107  0.00  0.00    +0.162 C 
ATOM      9  O   UNL     1       0.711  -5.991   1.862  0.00  0.00    -0.292 OA
ATOM     10  C   UNL     1       2.265  -6.800   3.435  0.00  0.00    +0.088 C 
ATOM     11  C   UNL     1       3.679  -6.334   3.800  0.00  0.00    +0.032 C 
ATOM     12  C   UNL     1       4.631  -6.734   2.671  0.00  0.00    +0.059 C 
ATOM     13  H   UNL     1       6.153  -5.665   0.739  0.00  0.00    +0.155 HD
ENDROOT
BRANCH   1  17
ATOM     14  C   UNL     1       2.679  -1.013   0.104  0.00  0.00    +0.121 A 
ATOM     15  C   UNL     1       3.816  -1.791   0.272  0.00  0.00    +0.046 A 
ATOM     16  C   UNL     1       3.727  -3.168   0.192  0.00  0.00    +0.008 A 
ATOM     17  C   UNL     1       2.509  -3.769  -0.067  0.00  0.00    -0.039 A 
ATOM     18  C   UNL     1       1.376  -2.996  -0.241  0.00  0.00    +0.008 A 
ATOM     19  C   UNL     1       1.459  -1.619  -0.156  0.00  0.00    +0.046 A 
BRANCH  14  20
ATOM     20  O   UNL     1       2.763   0.341   0.187  0.00  0.00    -0.489 OA
BRANCH  20  21
ATOM     21  C   UNL     1       4.069   0.902   0.338  0.00  0.00    +0.170 C 
ATOM     22  C   UNL     1       4.460   0.893   1.817  0.00  0.00    +0.052 C 
BRANCH  21  24
ATOM     23  C   UNL     1       3.798   2.340  -1.688  0.00  0.00    +0.007 C 
ATOM     24  C   UNL     1       4.068   2.341  -0.181  0.00  0.00    +0.041 C 
ENDBRANCH  21  24
ENDBRANCH  20  21
ENDBRANCH  14  20
ENDBRANCH   1  17
BRANCH  11  25
ATOM     25  C   UNL     1       4.110  -6.990   5.086  0.00  0.00    -0.043 A 
ATOM     26  C   UNL     1       4.177  -8.369   5.170  0.00  0.00    +0.007 A 
ATOM     27  C   UNL     1       4.578  -8.972   6.346  0.00  0.00    +0.046 A 
ATOM     28  C   UNL     1       4.903  -8.194   7.448  0.00  0.00    +0.121 A 
ATOM     29  C   UNL     1       4.830  -6.811   7.363  0.00  0.00    +0.046 A 
ATOM     30  C   UNL     1       4.434  -6.212   6.183  0.00  0.00    +0.007 A 
BRANCH  28  31
ATOM     31  O   UNL     1       5.292  -8.785   8.608  0.00  0.00    -0.489 OA
BRANCH  31  32
ATOM     32  C   UNL     1       5.498  -7.931   9.734  0.00  0.00    +0.167 C 
ATOM     33  C   UNL     1       5.304  -8.730  11.024  0.00  0.00    +0.051 C 
ATOM     34  C   UNL     1       6.920  -7.368   9.693  0.00  0.00    +0.051 C 
ENDBRANCH  31  32
ENDBRANCH  28  31
ENDBRANCH  11  25
TORSDOF 7
