REMARK  Name = ZINC66175822
REMARK  10 active torsions:
REMARK  status: ('A' for Active; 'I' for Inactive)
REMARK    1  A    between atoms: C_1  and  C_2
REMARK    2  A    between atoms: C_2  and  C_3
REMARK    3  A    between atoms: C_3  and  N_4
REMARK    4  A    between atoms: C_7  and  N_10
REMARK    5  A    between atoms: N_10  and  C_11
REMARK    6  A    between atoms: N_14  and  C_15
REMARK    7  A    between atoms: C_15  and  C_17
REMARK    8  A    between atoms: C_15  and  C_18
REMARK    9  A    between atoms: C_22  and  S_24
REMARK   10  A    between atoms: S_24  and  N_27
REMARK                            x       y       z     vdW  Elec       q    Type
REMARK                         _______ _______ _______ _____ _____    ______ ____
ROOT
ATOM      1  N   UNL     1      -2.018  -6.065   0.950  0.00  0.00    -0.286 N 
ATOM      2  C   UNL     1      -1.265  -6.668  -0.153  0.00  0.00    +0.134 C 
ATOM      3  C   UNL     1      -2.625  -6.852   1.860  0.00  0.00    +0.303 C 
ATOM      4  O   UNL     1      -3.250  -6.352   2.776  0.00  0.00    -0.253 OA
ATOM      5  N   UNL     1      -2.541  -8.193   1.756  0.00  0.00    -0.293 N 
ATOM      6  H   UNL     1      -2.043  -8.592   1.025  0.00  0.00    +0.151 HD
ENDROOT
BRANCH   1  10
ATOM      7  N   UNL     1      -1.413  -2.002   0.005  0.00  0.00    +0.380 N 
ATOM      8  C   UNL     1      -0.802  -2.489   1.247  0.00  0.00    -0.077 C 
ATOM      9  C   UNL     1      -0.705  -4.016   1.209  0.00  0.00    +0.004 C 
ATOM     10  C   UNL     1      -2.110  -4.607   1.064  0.00  0.00    +0.074 C 
ATOM     11  C   UNL     1      -2.766  -4.036  -0.196  0.00  0.00    +0.004 C 
ATOM     12  C   UNL     1      -2.787  -2.508  -0.105  0.00  0.00    -0.077 C 
ATOM     13  H   UNL     1      -0.873  -2.326  -0.783  0.00  0.00    -0.082 HD
BRANCH   7  14
ATOM     14  C   UNL     1      -1.433  -0.534   0.013  0.00  0.00    -0.079 C 
BRANCH  14  16
ATOM     15  C   UNL     1      -0.019   1.526   0.010  0.00  0.00    +0.002 C 
ATOM     16  C   UNL     1       0.002  -0.004   0.002  0.00  0.00    -0.022 C 
ENDBRANCH  14  16
ENDBRANCH   7  14
ENDBRANCH   1  10
BRANCH   5  17
ATOM     17  C   UNL     1      -3.201  -9.048   2.745  0.00  0.00    +0.102 C 
ATOM     18  C   UNL     1      -2.283  -9.231   3.955  0.00  0.00    +0.033 C 
BRANCH  17  19
ATOM     19  C   UNL     1      -3.497 -10.392   2.130  0.00  0.00    -0.026 A 
ATOM     20  C   UNL     1      -2.569 -10.990   1.298  0.00  0.00    +0.005 A 
ATOM     21  C   UNL     1      -2.840 -12.223   0.735  0.00  0.00    +0.002 A 
ATOM     22  C   UNL     1      -4.038 -12.857   1.003  0.00  0.00    +0.028 A 
ATOM     23  C   UNL     1      -4.966 -12.259   1.835  0.00  0.00    +0.105 A 
ATOM     24  C   UNL     1      -4.693 -11.028   2.403  0.00  0.00    +0.034 A 
BRANCH  23  25
ATOM     25  S   UNL     1      -6.494 -13.068   2.177  0.00  0.00    +0.056 S 
ATOM     26  O   UNL     1      -7.416 -12.052   2.548  0.00  0.00    -0.153 OA
ATOM     27  O   UNL     1      -6.734 -13.956   1.095  0.00  0.00    -0.153 OA
BRANCH  25  28
ATOM     28  N   UNL     1      -6.260 -14.009   3.519  0.00  0.00    -0.204 NA
ATOM     29  H   UNL     1      -6.999 -14.185   4.123  0.00  0.00    +0.144 HD
ATOM     30  H   UNL     1      -5.385 -14.384   3.702  0.00  0.00    +0.144 HD
ENDBRANCH  25  28
ENDBRANCH  23  25
ENDBRANCH  17  19
ENDBRANCH   5  17
TORSDOF 7
