REMARK  Name = ZINC42736858
REMARK  11 active torsions:
REMARK  status: ('A' for Active; 'I' for Inactive)
REMARK    1  A    between atoms: C_1  and  C_2
REMARK    2  A    between atoms: C_2  and  C_4
REMARK    3  A    between atoms: C_2  and  N_8
REMARK    4  A    between atoms: C_4  and  C_5
REMARK    5  A    between atoms: C_4  and  C_6
REMARK    6  A    between atoms: C_4  and  C_7
REMARK    7  A    between atoms: N_8  and  C_9
REMARK    8  A    between atoms: N_8  and  C_10
REMARK    9  A    between atoms: C_10  and  C_11
REMARK   10  A    between atoms: N_13  and  C_14
REMARK   11  A    between atoms: C_17  and  N_21
REMARK                            x       y       z     vdW  Elec       q    Type
REMARK                         _______ _______ _______ _____ _____    ______ ____
ROOT
ATOM      1  C   UNL     1       0.701  -4.561   1.081  0.00  0.00    +0.201 C 
ATOM      2  O   UNL     1       1.713  -4.797   1.707  0.00  0.00    -0.278 OA
ATOM      3  N   UNL     1      -0.309  -5.454   1.071  0.00  0.00    -0.285 N 
ATOM      4  H   UNL     1      -1.091  -5.295   0.519  0.00  0.00    +0.155 HD
ENDROOT
BRANCH   3   5
ATOM      5  C   UNL     1      -0.229  -6.612   1.857  0.00  0.00    +0.070 A 
ATOM      6  C   UNL     1      -0.240  -6.514   3.243  0.00  0.00    +0.065 A 
ATOM      7  C   UNL     1      -0.161  -7.655   4.017  0.00  0.00    +0.044 A 
ATOM      8  C   UNL     1      -0.070  -8.901   3.410  0.00  0.00    +0.027 A 
ATOM      9  C   UNL     1      -0.058  -9.000   2.025  0.00  0.00    +0.044 A 
ATOM     10  C   UNL     1      -0.143  -7.859   1.250  0.00  0.00    +0.065 A 
ATOM     11 CL   UNL     1      -0.136  -7.983  -0.481  0.00  0.00    -0.082 Cl
ATOM     12 CL   UNL     1      -0.353  -4.956   4.001  0.00  0.00    -0.082 Cl
BRANCH   8  13
ATOM     13  N   UNL     1       0.011 -10.057   4.194  0.00  0.00    -0.358 N 
ATOM     14  H   UNL     1       0.003  -9.988   5.162  0.00  0.00    +0.142 HD
ATOM     15  H   UNL     1       0.074 -10.927   3.771  0.00  0.00    +0.142 HD
ENDBRANCH   8  13
ENDBRANCH   3   5
BRANCH   1  16
ATOM     16  C   UNL     1       0.572  -3.269   0.315  0.00  0.00    +0.019 C 
BRANCH  16  17
ATOM     17  N   UNL     1       1.797  -2.476   0.484  0.00  0.00    +0.386 N 
ATOM     18  C   UNL     1       1.925  -2.068   1.890  0.00  0.00    -0.095 C 
ATOM     19  H   UNL     1       2.597  -3.031   0.221  0.00  0.00    -0.081 HD
BRANCH  17  21
ATOM     20  C   UNL     1       2.488  -0.134   0.300  0.00  0.00    -0.013 C 
ATOM     21  C   UNL     1       1.728  -1.281  -0.367  0.00  0.00    -0.066 C 
BRANCH  21  22
ATOM     22  C   UNL     1       2.358  -1.587  -1.727  0.00  0.00    -0.050 C 
ATOM     23  C   UNL     1       3.865  -1.795  -1.556  0.00  0.00    +0.009 C 
ATOM     24  C   UNL     1       1.731  -2.857  -2.306  0.00  0.00    +0.009 C 
ATOM     25  C   UNL     1       2.110  -0.416  -2.680  0.00  0.00    +0.009 C 
ENDBRANCH  21  22
ENDBRANCH  17  21
ENDBRANCH  16  17
ENDBRANCH   1  16
TORSDOF 6
