REMARK  Name = ZINC39698981
REMARK  4 active torsions:
REMARK  status: ('A' for Active; 'I' for Inactive)
REMARK    1  A    between atoms: C_7  and  C_10
REMARK    2  A    between atoms: C_13  and  N_16
REMARK    3  A    between atoms: C_17  and  C_19
REMARK    4  A    between atoms: N_24  and  C_26
REMARK                            x       y       z     vdW  Elec       q    Type
REMARK                         _______ _______ _______ _____ _____    ______ ____
ROOT
ATOM      1  C   UNL     1       0.650  -3.139  -0.021  0.00  0.00    +0.054 C 
ATOM      2  C   UNL     1       1.162  -4.572  -0.028  0.00  0.00    +0.128 C 
ATOM      3  S   UNL     1      -0.387  -5.470   0.425  0.00  0.00    -0.109 S 
ATOM      4  C   UNL     1      -1.538  -4.094  -0.012  0.00  0.00    +0.251 C 
ATOM      5  N   UNL     1      -0.610  -2.945  -0.007  0.00  0.00    -0.254 NA
ENDROOT
BRANCH   1  12
ATOM      6  C   UNL     1      -0.016   1.347   0.009  0.00  0.00    +0.001 A 
ATOM      7  C   UNL     1       1.157   2.115   0.002  0.00  0.00    +0.002 A 
ATOM      8  C   UNL     1       2.384   1.546  -0.013  0.00  0.00    +0.026 A 
ATOM      9  C   UNL     1       2.493   0.081  -0.022  0.00  0.00    +0.043 A 
ATOM     10  N   UNL     1       3.528  -0.717  -0.036  0.00  0.00    -0.380 N 
ATOM     11  C   UNL     1       3.065  -2.108  -0.039  0.00  0.00    +0.150 C 
ATOM     12  C   UNL     1       1.553  -2.045  -0.024  0.00  0.00    +0.002 C 
ATOM     13  C   UNL     1       1.236  -0.701  -0.013  0.00  0.00    +0.005 A 
ATOM     14  C   UNL     1       0.002  -0.004   0.002  0.00  0.00    +0.010 A 
ATOM     15  H   UNL     1       4.456  -0.433  -0.044  0.00  0.00    +0.160 HD
ENDBRANCH   1  12
BRANCH   4  16
ATOM     16  N   UNL     1      -2.127  -4.300  -1.337  0.00  0.00    -0.285 N 
ATOM     17  C   UNL     1      -3.119  -5.198  -1.502  0.00  0.00    +0.220 C 
ATOM     18  O   UNL     1      -3.523  -5.836  -0.553  0.00  0.00    -0.275 OA
ATOM     19  H   UNL     1      -1.804  -3.789  -2.096  0.00  0.00    +0.152 HD
BRANCH  17  20
ATOM     20  C   UNL     1      -3.725  -5.409  -2.865  0.00  0.00    +0.101 C 
ATOM     21  C   UNL     1      -2.683  -5.986  -3.851  0.00  0.00    +0.110 C 
ATOM     22  C   UNL     1      -2.881  -7.483  -3.766  0.00  0.00    +0.217 C 
ATOM     23  O   UNL     1      -2.089  -8.312  -4.162  0.00  0.00    -0.276 OA
ATOM     24  N   UNL     1      -4.061  -7.761  -3.186  0.00  0.00    -0.298 N 
ATOM     25  C   UNL     1      -4.784  -6.533  -2.831  0.00  0.00    +0.121 C 
BRANCH  24  26
ATOM     26  C   UNL     1      -4.562  -9.116  -2.940  0.00  0.00    +0.076 C 
ATOM     27  C   UNL     1      -3.555  -9.904  -2.078  0.00  0.00    +0.022 C 
ATOM     28  C   UNL     1      -3.612 -11.343  -2.646  0.00  0.00    +0.002 C 
ATOM     29  C   UNL     1      -3.762 -11.104  -4.169  0.00  0.00    +0.002 C 
ATOM     30  C   UNL     1      -4.694  -9.879  -4.270  0.00  0.00    +0.022 C 
ENDBRANCH  24  26
ENDBRANCH  17  20
ENDBRANCH   4  16
TORSDOF 4
