REMARK  Name = ZINC13146902
REMARK  15 active torsions:
REMARK  status: ('A' for Active; 'I' for Inactive)
REMARK    1  A    between atoms: C_1  and  C_2
REMARK    2  A    between atoms: C_2  and  C_3
REMARK    3  A    between atoms: C_3  and  C_4
REMARK    4  A    between atoms: C_4  and  S_5
REMARK    5  A    between atoms: S_5  and  C_6
REMARK    6  A    between atoms: C_6  and  S_27
REMARK    7  A    between atoms: C_7  and  C_25
REMARK    8  A    between atoms: C_8  and  C_24
REMARK    9  A    between atoms: C_9  and  C_23
REMARK   10  A    between atoms: C_10  and  C_17
REMARK   11  A    between atoms: C_12  and  C_15
REMARK   12  A    between atoms: S_27  and  C_28
REMARK   13  A    between atoms: C_28  and  C_29
REMARK   14  A    between atoms: C_29  and  C_30
REMARK   15  A    between atoms: C_30  and  C_31
REMARK                            x       y       z     vdW  Elec       q    Type
REMARK                         _______ _______ _______ _____ _____    ______ ____
ROOT
ATOM      1  C   UNL     1       1.292   1.795  -0.406  0.00  0.00    +0.157 C 
ATOM      2  C   UNL     1      -0.056   1.086  -0.250  0.00  0.00    +0.148 C 
ATOM      3  C   UNL     1      -0.783   1.285   1.049  0.00  0.00    -0.032 C 
ATOM      4  C   UNL     1      -1.640   0.279   1.330  0.00  0.00    -0.014 C 
ATOM      5  C   UNL     1      -0.707  -1.281  -0.405  0.00  0.00    +0.113 C 
ATOM      6  C   UNL     1       0.479  -0.380  -0.157  0.00  0.00    +0.156 C 
ATOM      7  C   UNL     1       1.613  -0.376  -1.121  0.00  0.00    +0.092 C 
ATOM      8  N   UNL     1       2.096  -1.472  -1.786  0.00  0.00    -0.347 N 
ATOM      9  C   UNL     1      -2.435   0.326   2.609  0.00  0.00    +0.059 C 
ATOM     10  C   UNL     1      -0.583   2.489   1.932  0.00  0.00    +0.042 C 
ATOM     11  H   UNL     1       1.693  -2.342  -1.644  0.00  0.00    +0.143 HD
ATOM     12  H   UNL     1       2.842  -1.377  -2.399  0.00  0.00    +0.143 HD
ATOM     13  N   UNL     1      -1.878  -0.840   0.467  0.00  0.00    -0.401 NA
ATOM     14  H   UNL     1      -2.658  -0.594  -0.155  0.00  0.00    +0.124 HD
ATOM     15  H   UNL     1      -2.149  -1.636   1.056  0.00  0.00    +0.124 HD
ATOM     16  N   UNL     1       2.083   0.845  -1.239  0.00  0.00    -0.351 N 
ATOM     17  H   UNL     1       2.885   1.109  -1.823  0.00  0.00    +0.163 HD
ENDROOT
BRANCH   5  18
ATOM     18  C   UNL     1      -0.357  -2.704  -0.053  0.00  0.00    -0.027 A 
ATOM     19  C   UNL     1      -0.368  -3.112   1.268  0.00  0.00    +0.005 A 
ATOM     20  C   UNL     1      -0.051  -4.418   1.590  0.00  0.00    +0.000 A 
ATOM     21  C   UNL     1       0.287  -5.314   0.593  0.00  0.00    +0.000 A 
ATOM     22  C   UNL     1       0.303  -4.904  -0.727  0.00  0.00    +0.000 A 
ATOM     23  C   UNL     1      -0.018  -3.599  -1.050  0.00  0.00    +0.005 A 
ENDBRANCH   5  18
BRANCH   6  24
ATOM     24  C   UNL     1       0.997  -0.620   1.200  0.00  0.00    +0.081 C 
ATOM     25  N   UNL     1       1.396  -0.805   2.248  0.00  0.00    -0.195 NA
ENDBRANCH   6  24
BRANCH   2  26
ATOM     26  C   UNL     1      -0.928   1.296  -1.418  0.00  0.00    +0.080 C 
ATOM     27  N   UNL     1      -1.601   1.457  -2.318  0.00  0.00    -0.195 NA
ENDBRANCH   2  26
BRANCH   1  28
ATOM     28  S   UNL     1       1.089   3.376  -1.271  0.00  0.00    -0.120 S 
BRANCH  28  29
ATOM     29  C   UNL     1       2.440   3.391  -2.481  0.00  0.00    +0.072 C 
BRANCH  29  30
ATOM     30  C   UNL     1       2.447   4.729  -3.222  0.00  0.00    +0.010 C 
BRANCH  30  32
ATOM     31  C   UNL     1       3.593   6.080  -4.984  0.00  0.00    +0.004 C 
ATOM     32  C   UNL     1       3.587   4.741  -4.243  0.00  0.00    -0.003 C 
ENDBRANCH  30  32
ENDBRANCH  29  30
ENDBRANCH  28  29
ENDBRANCH   1  28
BRANCH   1  33
ATOM     33  S   UNL     1       2.079   2.040   1.210  0.00  0.00    -0.120 S 
BRANCH  33  34
ATOM     34  C   UNL     1       3.705   2.733   0.804  0.00  0.00    +0.072 C 
BRANCH  34  35
ATOM     35  C   UNL     1       4.505   2.943   2.092  0.00  0.00    +0.010 C 
BRANCH  35  36
ATOM     36  C   UNL     1       5.877   3.528   1.750  0.00  0.00    -0.003 C 
ATOM     37  C   UNL     1       6.677   3.738   3.037  0.00  0.00    +0.004 C 
ENDBRANCH  35  36
ENDBRANCH  34  35
ENDBRANCH  33  34
ENDBRANCH   1  33
TORSDOF 11
