REMARK  Name = ZINC64343979
REMARK  7 active torsions:
REMARK  status: ('A' for Active; 'I' for Inactive)
REMARK    1  A    between atoms: C_1  and  C_2
REMARK    2  A    between atoms: C_2  and  C_3
REMARK    3  A    between atoms: C_2  and  C_4
REMARK    4  A    between atoms: C_2  and  N_13
REMARK    5  A    between atoms: N_13  and  C_14
REMARK    6  A    between atoms: C_14  and  C_15
REMARK    7  A    between atoms: N_17  and  C_18
REMARK                            x       y       z     vdW  Elec       q    Type
REMARK                         _______ _______ _______ _____ _____    ______ ____
ROOT
ATOM      1  N   UNL     1       0.683  -0.461  -1.219  0.00  0.00    +0.391 N 
ATOM      2  H   UNL     1       0.694  -1.470  -1.218  0.00  0.00    -0.084 HD
ATOM      3  H   UNL     1       0.199  -0.130  -2.040  0.00  0.00    -0.084 HD
ENDROOT
BRANCH   1   5
ATOM      4  C   UNL     1      -0.026   1.552  -0.016  0.00  0.00    -0.006 C 
ATOM      5  C   UNL     1      -0.009   0.022  -0.016  0.00  0.00    -0.047 C 
ATOM      6  C   UNL     1       0.725  -0.479   1.230  0.00  0.00    -0.006 C 
BRANCH   5   7
ATOM      7  C   UNL     1      -1.424  -0.496  -0.008  0.00  0.00    -0.055 A 
ATOM      8  C   UNL     1      -1.870  -1.301  -1.040  0.00  0.00    +0.006 A 
ATOM      9  C   UNL     1      -3.167  -1.779  -1.037  0.00  0.00    +0.050 A 
ATOM     10  C   UNL     1      -4.024  -1.451   0.001  0.00  0.00    +0.166 A 
ATOM     11  C   UNL     1      -3.575  -0.641   1.041  0.00  0.00    +0.166 A 
ATOM     12  C   UNL     1      -2.272  -0.170   1.034  0.00  0.00    +0.051 A 
ATOM     13  O   UNL     1      -4.596  -0.466   1.930  0.00  0.00    -0.453 OA
ATOM     14  C   UNL     1      -5.792  -0.840   1.220  0.00  0.00    +0.466 C 
ATOM     15  O   UNL     1      -5.326  -1.785   0.239  0.00  0.00    -0.453 OA
ENDBRANCH   5   7
ENDBRANCH   1   5
BRANCH   1  16
ATOM     16  C   UNL     1       2.062   0.044  -1.226  0.00  0.00    +0.016 C 
BRANCH  16  17
ATOM     17  C   UNL     1       2.771  -0.451  -2.460  0.00  0.00    +0.200 C 
ATOM     18  O   UNL     1       2.185  -1.155  -3.255  0.00  0.00    -0.278 OA
ATOM     19  N   UNL     1       4.057  -0.111  -2.681  0.00  0.00    -0.286 N 
ATOM     20  H   UNL     1       4.506   0.504  -2.080  0.00  0.00    +0.155 HD
BRANCH  19  21
ATOM     21  C   UNL     1       4.744  -0.646  -3.776  0.00  0.00    +0.047 A 
ATOM     22  C   UNL     1       4.073  -0.891  -4.967  0.00  0.00    +0.024 A 
ATOM     23  C   UNL     1       4.754  -1.419  -6.046  0.00  0.00    +0.002 A 
ATOM     24  C   UNL     1       6.103  -1.704  -5.943  0.00  0.00    +0.001 A 
ATOM     25  C   UNL     1       6.775  -1.462  -4.759  0.00  0.00    +0.017 A 
ATOM     26  C   UNL     1       6.101  -0.928  -3.677  0.00  0.00    +0.039 A 
ATOM     27 BR   UNL     1       7.022  -0.590  -2.060  0.00  0.00    -0.048 Br
ENDBRANCH  19  21
ENDBRANCH  16  17
ENDBRANCH   1  16
TORSDOF 5
