REMARK  Name = ZINC50226855
REMARK  8 active torsions:
REMARK  status: ('A' for Active; 'I' for Inactive)
REMARK    1  A    between atoms: C_1  and  C_2
REMARK    2  A    between atoms: C_5  and  C_7
REMARK    3  A    between atoms: C_7  and  N_8
REMARK    4  A    between atoms: N_8  and  S_9
REMARK    5  A    between atoms: S_9  and  C_12
REMARK    6  A    between atoms: C_15  and  C_17
REMARK    7  A    between atoms: C_17  and  C_18
REMARK    8  A    between atoms: C_18  and  N_19
REMARK                            x       y       z     vdW  Elec       q    Type
REMARK                         _______ _______ _______ _____ _____    ______ ____
ROOT
ATOM      1  S   UNL     1       2.118  -5.855  -1.743  0.00  0.00    +0.065 S 
ATOM      2  O   UNL     1       2.067  -6.043  -3.150  0.00  0.00    -0.153 OA
ATOM      3  O   UNL     1       3.343  -5.702  -1.038  0.00  0.00    -0.153 OA
ENDROOT
BRANCH   1   4
ATOM      4  C   UNL     1       1.291  -7.233  -1.020  0.00  0.00    +0.143 A 
ATOM      5  C   UNL     1       0.354  -8.048  -1.565  0.00  0.00    +0.036 A 
ATOM      6  C   UNL     1      -0.162  -9.079  -0.803  0.00  0.00    +0.013 A 
ATOM      7  C   UNL     1       0.283  -9.244   0.467  0.00  0.00    -0.010 A 
ATOM      8  S   UNL     1       1.473  -7.922   0.616  0.00  0.00    -0.074 S 
BRANCH   7   9
ATOM      9  C   UNL     1      -0.118 -10.280   1.486  0.00  0.00    +0.023 C 
BRANCH   9  10
ATOM     10  C   UNL     1       0.787 -11.505   1.351  0.00  0.00    -0.081 C 
BRANCH  10  11
ATOM     11  N   UNL     1       0.396 -12.515   2.345  0.00  0.00    +0.378 N 
ATOM     12  H   UNL     1       0.489 -12.128   3.272  0.00  0.00    -0.090 HD
ATOM     13  H   UNL     1      -0.563 -12.786   2.188  0.00  0.00    -0.090 HD
ATOM     14  H   UNL     1       0.993 -13.323   2.256  0.00  0.00    -0.090 HD
ENDBRANCH  10  11
ENDBRANCH   9  10
ENDBRANCH   7   9
ENDBRANCH   1   4
BRANCH   1  15
ATOM     15  N   UNL     1       1.210  -4.510  -1.412  0.00  0.00    -0.185 NA
ATOM     16  H   UNL     1       0.789  -4.019  -2.134  0.00  0.00    +0.148 HD
BRANCH  15  17
ATOM     17  C   UNL     1       1.043  -4.062  -0.027  0.00  0.00    +0.148 C 
BRANCH  17  22
ATOM     18  C   UNL     1      -0.018   1.503   0.010  0.00  0.00    +0.051 C 
ATOM     19  C   UNL     1       0.002  -0.004   0.002  0.00  0.00    -0.013 A 
ATOM     20  C   UNL     1      -1.039  -0.872   0.002  0.00  0.00    +0.011 A 
ATOM     21  C   UNL     1      -0.780  -2.230  -0.007  0.00  0.00    +0.013 A 
ATOM     22  C   UNL     1       0.507  -2.653  -0.016  0.00  0.00    +0.005 A 
ATOM     23  S   UNL     1       1.404  -1.109  -0.018  0.00  0.00    -0.097 S 
ENDBRANCH  17  22
ENDBRANCH  15  17
ENDBRANCH   1  15
TORSDOF 7
