REMARK  Name = ZINC01131518
REMARK  7 active torsions:
REMARK  status: ('A' for Active; 'I' for Inactive)
REMARK    1  A    between atoms: C_1  and  C_2
REMARK    2  A    between atoms: C_6  and  C_26
REMARK    3  A    between atoms: N_14  and  C_15
REMARK    4  A    between atoms: C_15  and  N_17
REMARK    5  A    between atoms: N_17  and  C_18
REMARK    6  A    between atoms: C_22  and  O_24
REMARK    7  A    between atoms: O_24  and  C_25
REMARK                            x       y       z     vdW  Elec       q    Type
REMARK                         _______ _______ _______ _____ _____    ______ ____
ROOT
ATOM      1  C   UNL     1      -3.712  13.617   1.381  0.00  0.00    +0.044 C 
ATOM      2  C   UNL     1      -3.208  12.202   1.259  0.00  0.00    -0.048 A 
ATOM      3  C   UNL     1      -4.112  11.144   1.331  0.00  0.00    +0.004 A 
ATOM      4  C   UNL     1      -3.689   9.853   1.226  0.00  0.00    +0.012 A 
ATOM      5  C   UNL     1      -2.325   9.586   1.041  0.00  0.00    +0.022 A 
ATOM      6  C   UNL     1      -1.830   8.273   0.926  0.00  0.00    +0.051 A 
ATOM      7  N   UNL     1      -0.536   8.103   0.754  0.00  0.00    -0.217 NA
ATOM      8  C   UNL     1       0.300   9.138   0.690  0.00  0.00    +0.231 A 
ATOM      9  N   UNL     1      -0.105  10.387   0.797  0.00  0.00    -0.212 NA
ATOM     10  C   UNL     1      -1.404  10.662   0.967  0.00  0.00    +0.077 A 
ATOM     11  C   UNL     1      -1.876  11.978   1.081  0.00  0.00    +0.032 A 
ATOM     12  N   UNL     1       1.653   8.890   0.508  0.00  0.00    -0.298 N 
ATOM     13  C   UNL     1       2.091   7.606   0.262  0.00  0.00    +0.172 C 
ATOM     14  N   UNL     1       1.177   6.592   0.061  0.00  0.00    -0.269 N 
ATOM     15  C   UNL     1      -2.760   7.090   0.996  0.00  0.00    +0.066 C 
ATOM     16  H   UNL     1       2.290   9.620   0.553  0.00  0.00    +0.171 HD
ATOM     17  H   UNL     1       4.086   8.007   0.281  0.00  0.00    +0.158 HD
ATOM     18  H   UNL     1       0.232   6.798  -0.011  0.00  0.00    +0.157 HD
ATOM     19  N   UNL     1       3.373   7.281   0.213  0.00  0.00    -0.373 N 
ATOM     20  H   UNL     1       3.649   6.298   0.106  0.00  0.00    +0.158 HD
ENDROOT
BRANCH  14  21
ATOM     21  C   UNL     1       1.599   5.315  -0.037  0.00  0.00    +0.141 C 
ATOM     22  S   UNL     1       3.267   4.952   0.089  0.00  0.00    -0.018 S 
BRANCH  21  23
ATOM     23  N   UNL     1       0.706   4.325  -0.234  0.00  0.00    -0.296 N 
ATOM     24  H   UNL     1      -0.228   4.536  -0.385  0.00  0.00    +0.154 HD
BRANCH  23  25
ATOM     25  C   UNL     1       1.128   2.991  -0.220  0.00  0.00    +0.036 A 
ATOM     26  C   UNL     1       2.053   2.564   0.725  0.00  0.00    +0.023 A 
ATOM     27  C   UNL     1       2.469   1.247   0.739  0.00  0.00    +0.005 A 
ATOM     28  C   UNL     1       1.966   0.351  -0.186  0.00  0.00    +0.046 A 
ATOM     29  C   UNL     1       1.046   0.773  -1.135  0.00  0.00    +0.122 A 
ATOM     30  C   UNL     1       0.622   2.093  -1.148  0.00  0.00    +0.069 A 
BRANCH  29  31
ATOM     31  O   UNL     1       0.557  -0.108  -2.047  0.00  0.00    -0.495 OA
ATOM     32  C   UNL     1       1.034  -1.453  -1.970  0.00  0.00    +0.277 C 
ENDBRANCH  29  31
ENDBRANCH  23  25
ENDBRANCH  21  23
ENDBRANCH  14  21
TORSDOF 4
