REMARK  Name = ZINC63225078
REMARK  10 active torsions:
REMARK  status: ('A' for Active; 'I' for Inactive)
REMARK    1  A    between atoms: C_1  and  C_2
REMARK    2  A    between atoms: C_6  and  C_8
REMARK    3  A    between atoms: N_10  and  C_11
REMARK    4  A    between atoms: C_11  and  C_21
REMARK    5  A    between atoms: C_12  and  C_13
REMARK    6  A    between atoms: C_16  and  O_19
REMARK    7  A    between atoms: O_19  and  C_20
REMARK    8  A    between atoms: N_23  and  C_24
REMARK    9  A    between atoms: C_24  and  C_25
REMARK   10  A    between atoms: C_25  and  C_26
REMARK                            x       y       z     vdW  Elec       q    Type
REMARK                         _______ _______ _______ _____ _____    ______ ____
ROOT
ATOM      1  C   UNL     1       0.381  -5.243   3.773  0.00  0.00    +0.097 C 
ATOM      2  C   UNL     1      -0.013  -6.520   3.558  0.00  0.00    +0.036 C 
ENDROOT
BRANCH   2   3
ATOM      3  C   UNL     1       0.159  -7.128   2.231  0.00  0.00    -0.023 A 
ATOM      4  C   UNL     1       1.044  -6.560   1.307  0.00  0.00    +0.011 A 
ATOM      5  C   UNL     1       1.201  -7.134   0.065  0.00  0.00    +0.046 A 
ATOM      6  C   UNL     1       0.482  -8.275  -0.272  0.00  0.00    +0.120 A 
ATOM      7  C   UNL     1      -0.398  -8.843   0.641  0.00  0.00    +0.046 A 
ATOM      8  C   UNL     1      -0.558  -8.281   1.888  0.00  0.00    +0.011 A 
BRANCH   6   9
ATOM      9  O   UNL     1       0.641  -8.836  -1.498  0.00  0.00    -0.495 OA
ATOM     10  C   UNL     1      -0.128 -10.008  -1.780  0.00  0.00    +0.277 C 
ENDBRANCH   6   9
ENDBRANCH   2   3
BRANCH   1  13
ATOM     11  C   UNL     1       2.044  -3.898   2.732  0.00  0.00    +0.248 C 
ATOM     12  O   UNL     1       2.737  -4.005   3.725  0.00  0.00    -0.270 OA
ATOM     13  N   UNL     1       0.817  -4.455   2.702  0.00  0.00    -0.277 N 
ATOM     14  H   UNL     1       0.237  -4.311   1.939  0.00  0.00    +0.155 HD
BRANCH  11  20
ATOM     15  C   UNL     1       5.650  -1.258   0.511  0.00  0.00    +0.044 C 
ATOM     16  C   UNL     1       4.280  -1.885   0.484  0.00  0.00    -0.050 A 
ATOM     17  C   UNL     1       3.489  -1.765  -0.645  0.00  0.00    +0.003 A 
ATOM     18  C   UNL     1       2.229  -2.337  -0.679  0.00  0.00    +0.001 A 
ATOM     19  C   UNL     1       1.754  -3.031   0.414  0.00  0.00    +0.013 A 
ATOM     20  C   UNL     1       2.547  -3.156   1.556  0.00  0.00    +0.037 A 
ATOM     21  C   UNL     1       3.819  -2.581   1.581  0.00  0.00    +0.016 A 
ENDBRANCH  11  20
ENDBRANCH   1  13
BRANCH   1  22
ATOM     22  C   UNL     1       0.350  -4.684   5.131  0.00  0.00    +0.258 C 
ATOM     23  O   UNL     1       0.034  -5.388   6.072  0.00  0.00    -0.269 OA
ATOM     24  N   UNL     1       0.673  -3.392   5.335  0.00  0.00    -0.310 N 
ATOM     25  H   UNL     1       0.871  -2.816   4.580  0.00  0.00    +0.149 HD
BRANCH  24  26
ATOM     26  C   UNL     1       0.725  -2.856   6.698  0.00  0.00    +0.109 C 
BRANCH  26  27
ATOM     27  C   UNL     1       1.112  -1.377   6.650  0.00  0.00    +0.052 C 
BRANCH  27  28
ATOM     28  C   UNL     1       1.166  -0.826   8.052  0.00  0.00    -0.040 C 
ATOM     29  C   UNL     1       2.260  -0.710   8.838  0.00  0.00    -0.001 A 
ATOM     30  C   UNL     1       3.673  -1.049   8.633  0.00  0.00    +0.010 A 
ATOM     31  C   UNL     1       4.557  -0.811   9.629  0.00  0.00    +0.001 A 
ATOM     32  C   UNL     1       4.157  -0.250  10.850  0.00  0.00    +0.002 A 
ATOM     33  C   UNL     1       2.877   0.088  11.113  0.00  0.00    +0.026 A 
ATOM     34  C   UNL     1       1.864  -0.118  10.137  0.00  0.00    +0.043 A 
ATOM     35  N   UNL     1       0.575   0.121  10.152  0.00  0.00    -0.380 N 
ATOM     36  C   UNL     1       0.008  -0.286   8.861  0.00  0.00    +0.144 C 
ATOM     37  H   UNL     1       0.080   0.507  10.891  0.00  0.00    +0.160 HD
ENDBRANCH  27  28
ENDBRANCH  26  27
ENDBRANCH  24  26
ENDBRANCH   1  22
TORSDOF 8
