REMARK  Name = ZINC22076084
REMARK  14 active torsions:
REMARK  status: ('A' for Active; 'I' for Inactive)
REMARK    1  A    between atoms: C_1  and  C_2
REMARK    2  A    between atoms: C_2  and  O_3
REMARK    3  A    between atoms: O_3  and  C_4
REMARK    4  A    between atoms: C_6  and  C_13
REMARK    5  A    between atoms: C_9  and  O_10
REMARK    6  A    between atoms: O_10  and  C_11
REMARK    7  A    between atoms: C_13  and  N_14
REMARK    8  A    between atoms: N_14  and  C_15
REMARK    9  A    between atoms: C_15  and  C_16
REMARK   10  A    between atoms: C_16  and  N_17
REMARK   11  A    between atoms: N_17  and  C_18
REMARK   12  A    between atoms: C_18  and  C_19
REMARK   13  A    between atoms: C_19  and  C_21
REMARK   14  A    between atoms: C_19  and  O_22
REMARK                            x       y       z     vdW  Elec       q    Type
REMARK                         _______ _______ _______ _____ _____    ______ ____
ROOT
ATOM      1  C   UNL     1       2.448   4.219  -0.000  0.00  0.00    -0.047 C 
ENDROOT
BRANCH   1   4
ATOM      2  C   UNL     1      -0.016   1.356   0.009  0.00  0.00    +0.163 A 
ATOM      3  C   UNL     1       1.173   2.066   0.002  0.00  0.00    +0.051 A 
ATOM      4  C   UNL     1       1.153   3.449   0.009  0.00  0.00    -0.060 A 
ATOM      5  C   UNL     1      -0.052   4.125   0.024  0.00  0.00    +0.021 A 
ATOM      6  C   UNL     1      -1.243   3.423   0.032  0.00  0.00    +0.063 A 
ATOM      7  C   UNL     1      -1.230   2.036   0.019  0.00  0.00    +0.175 A 
ATOM      8 BR   UNL     1      -2.890   4.352   0.054  0.00  0.00    -0.046 Br
BRANCH   7   9
ATOM      9  O   UNL     1      -2.400   1.343   0.021  0.00  0.00    -0.490 OA
ATOM     10  C   UNL     1      -2.952   1.006   1.295  0.00  0.00    +0.277 C 
ENDBRANCH   7   9
BRANCH   2  11
ATOM     11  O   UNL     1       0.002  -0.004   0.002  0.00  0.00    -0.489 OA
BRANCH  11  13
ATOM     12  C   UNL     1       1.104  -2.155  -0.020  0.00  0.00    +0.048 C 
ATOM     13  C   UNL     1       1.284  -0.635  -0.014  0.00  0.00    +0.226 C 
ENDBRANCH  11  13
ENDBRANCH   2  11
ENDBRANCH   1   4
BRANCH   1  14
ATOM     14  N   UNL     1       2.856   4.476  -1.388  0.00  0.00    +0.383 N 
ATOM     15  H   UNL     1       2.995   3.519  -1.912  0.00  0.00    -0.085 HD
ATOM     16  H   UNL     1       2.077   5.063  -1.896  0.00  0.00    -0.085 HD
BRANCH  14  17
ATOM     17  C   UNL     1       4.118   5.227  -1.435  0.00  0.00    -0.067 C 
BRANCH  17  18
ATOM     18  C   UNL     1       4.509   5.475  -2.894  0.00  0.00    +0.062 C 
BRANCH  18  19
ATOM     19  N   UNL     1       5.770   6.226  -2.942  0.00  0.00    -0.315 NA
ATOM     20  H   UNL     1       5.643   7.190  -2.427  0.00  0.00    +0.122 HD
BRANCH  19  21
ATOM     21  C   UNL     1       6.178   6.483  -4.329  0.00  0.00    +0.111 C 
BRANCH  21  22
ATOM     22  C   UNL     1       7.493   7.266  -4.338  0.00  0.00    +0.125 C 
ATOM     23  C   UNL     1       7.853   7.641  -5.777  0.00  0.00    +0.039 C 
BRANCH  22  24
ATOM     24  O   UNL     1       8.532   6.457  -3.782  0.00  0.00    -0.391 OA
ATOM     25  H   UNL     1       9.555   6.853  -3.705  0.00  0.00    +0.210 HD
ENDBRANCH  22  24
ENDBRANCH  21  22
ENDBRANCH  19  21
ENDBRANCH  18  19
ENDBRANCH  17  18
ENDBRANCH  14  17
ENDBRANCH   1  14
TORSDOF 11
