REMARK  Name = ZINC23365099
REMARK  12 active torsions:
REMARK  status: ('A' for Active; 'I' for Inactive)
REMARK    1  A    between atoms: C_1  and  C_2
REMARK    2  A    between atoms: C_2  and  C_4
REMARK    3  A    between atoms: C_2  and  N_14
REMARK    4  A    between atoms: N_9  and  C_10
REMARK    5  A    between atoms: C_10  and  C_11
REMARK    6  A    between atoms: C_10  and  C_12
REMARK    7  A    between atoms: C_10  and  C_13
REMARK    8  A    between atoms: N_17  and  C_20
REMARK    9  A    between atoms: C_20  and  C_21
REMARK   10  A    between atoms: N_23  and  C_24
REMARK   11  A    between atoms: C_27  and  O_30
REMARK   12  A    between atoms: O_30  and  C_31
REMARK                            x       y       z     vdW  Elec       q    Type
REMARK                         _______ _______ _______ _____ _____    ______ ____
ROOT
ATOM      1  N   UNL     1      -3.498   1.955   0.105  0.00  0.00    -0.295 NA
ATOM      2  C   UNL     1      -3.621   2.579   1.430  0.00  0.00    +0.066 C 
ATOM      3  C   UNL     1      -4.758   3.604   1.404  0.00  0.00    -0.063 C 
ATOM      4  N   UNL     1      -6.009   2.935   1.022  0.00  0.00    +0.387 N 
ATOM      5  C   UNL     1      -5.886   2.311  -0.303  0.00  0.00    -0.063 C 
ATOM      6  C   UNL     1      -4.749   1.286  -0.277  0.00  0.00    +0.066 C 
ATOM      7  H   UNL     1      -6.207   2.140   1.755  0.00  0.00    -0.081 HD
ENDROOT
BRANCH   1   9
ATOM      8  C   UNL     1      -2.567  -0.065   1.131  0.00  0.00    +0.034 C 
ATOM      9  C   UNL     1      -2.367   1.018   0.068  0.00  0.00    +0.140 C 
BRANCH   9  10
ATOM     10  C   UNL     1      -1.087   1.764   0.345  0.00  0.00    +0.237 C 
ATOM     11  O   UNL     1      -1.115   2.958   0.553  0.00  0.00    -0.274 OA
ATOM     12  N   UNL     1       0.087   1.103   0.362  0.00  0.00    -0.239 N 
ATOM     13  C   UNL     1       1.232   1.771   0.604  0.00  0.00    +0.306 C 
ATOM     14  O   UNL     1       1.205   2.968   0.812  0.00  0.00    -0.252 OA
ATOM     15  N   UNL     1       2.408   1.111   0.615  0.00  0.00    -0.294 N 
ATOM     16  H   UNL     1       0.111   0.019   0.178  0.00  0.00    +0.159 HD
ATOM     17  H   UNL     1       2.432   0.028   0.426  0.00  0.00    +0.151 HD
BRANCH  15  18
ATOM     18  C   UNL     1       3.653   1.837   0.878  0.00  0.00    +0.028 C 
ATOM     19  C   UNL     1       3.581   2.488   2.261  0.00  0.00    +0.031 C 
ATOM     20  C   UNL     1       4.831   0.862   0.834  0.00  0.00    +0.031 C 
ATOM     21  C   UNL     1       3.846   2.920  -0.185  0.00  0.00    +0.031 C 
ENDBRANCH  15  18
ENDBRANCH   9  10
ENDBRANCH   1   9
BRANCH   4  22
ATOM     22  C   UNL     1      -7.139   3.873   1.059  0.00  0.00    +0.019 C 
BRANCH  22  23
ATOM     23  C   UNL     1      -8.430   3.108   0.917  0.00  0.00    +0.201 C 
ATOM     24  O   UNL     1      -8.420   1.895   0.914  0.00  0.00    -0.278 OA
ATOM     25  N   UNL     1      -9.597   3.772   0.793  0.00  0.00    -0.287 N 
ATOM     26  H   UNL     1      -9.600   4.870   0.720  0.00  0.00    +0.155 HD
BRANCH  25  27
ATOM     27  C   UNL     1     -10.806   3.065   0.758  0.00  0.00    +0.034 A 
ATOM     28  C   UNL     1     -10.867   1.825   0.134  0.00  0.00    +0.027 A 
ATOM     29  C   UNL     1     -12.057   1.126   0.104  0.00  0.00    +0.048 A 
ATOM     30  C   UNL     1     -13.194   1.667   0.687  0.00  0.00    +0.130 A 
ATOM     31  C   UNL     1     -13.135   2.907   1.305  0.00  0.00    +0.048 A 
ATOM     32  C   UNL     1     -11.944   3.605   1.341  0.00  0.00    +0.027 A 
BRANCH  30  33
ATOM     33  O   UNL     1     -14.367   0.980   0.652  0.00  0.00    -0.406 OA
BRANCH  33  34
ATOM     34  C   UNL     1     -14.356  -0.291  -0.001  0.00  0.00    +0.575 C 
ATOM     35  F   UNL     1     -13.445  -1.137   0.640  0.00  0.00    -0.133 F 
ATOM     36  F   UNL     1     -15.635  -0.855   0.055  0.00  0.00    -0.133 F 
ATOM     37  F   UNL     1     -13.978  -0.125  -1.338  0.00  0.00    -0.133 F 
ENDBRANCH  33  34
ENDBRANCH  30  33
ENDBRANCH  25  27
ENDBRANCH  22  23
ENDBRANCH   4  22
TORSDOF 8
