REMARK  Name = ZINC12292834
REMARK  9 active torsions:
REMARK  status: ('A' for Active; 'I' for Inactive)
REMARK    1  A    between atoms: C_1  and  O_2
REMARK    2  A    between atoms: O_2  and  C_3
REMARK    3  A    between atoms: C_8  and  C_9
REMARK    4  A    between atoms: C_9  and  N_57
REMARK    5  A    between atoms: C_14  and  C_15
REMARK    6  A    between atoms: C_14  and  N_57
REMARK    7  A    between atoms: N_17  and  C_24
REMARK    8  A    between atoms: C_24  and  C_25
REMARK    9  A    between atoms: C_25  and  C_26
REMARK                            x       y       z     vdW  Elec       q    Type
REMARK                         _______ _______ _______ _____ _____    ______ ____
ROOT
ATOM      1  C   UNL     1      -2.505   5.016  -0.385  0.00  0.00    -0.043 C 
ENDROOT
BRANCH   1   2
ATOM      2  C   UNL     1      -1.799   3.724  -0.706  0.00  0.00    -0.039 A 
ATOM      3  C   UNL     1      -2.327   2.491  -0.656  0.00  0.00    +0.088 A 
ATOM      4  N   UNL     1      -1.387   1.565  -1.017  0.00  0.00    -0.346 N 
ATOM      5  C   UNL     1      -0.203   2.196  -1.326  0.00  0.00    +0.049 A 
ATOM      6  C   UNL     1      -0.409   3.576  -1.147  0.00  0.00    +0.001 A 
ATOM      7  C   UNL     1       0.630   4.474  -1.397  0.00  0.00    +0.010 A 
ATOM      8  C   UNL     1       1.846   4.007  -1.810  0.00  0.00    +0.001 A 
ATOM      9  C   UNL     1       2.056   2.646  -1.983  0.00  0.00    +0.002 A 
ATOM     10  C   UNL     1       1.044   1.742  -1.742  0.00  0.00    +0.026 A 
BRANCH   4  11
ATOM     11  C   UNL     1      -1.606   0.117  -1.067  0.00  0.00    +0.131 C 
BRANCH  11  12
ATOM     12  C   UNL     1      -1.147  -0.514   0.249  0.00  0.00    +0.117 C 
BRANCH  12  13
ATOM     13  C   UNL     1      -1.373  -2.003   0.197  0.00  0.00    +0.212 C 
ATOM     14  O   UNL     1      -1.854  -2.510  -0.794  0.00  0.00    -0.276 OA
ATOM     15  N   UNL     1      -1.040  -2.772   1.253  0.00  0.00    -0.329 N 
ATOM     16  H   UNL     1      -0.656  -2.367   2.046  0.00  0.00    +0.145 HD
ATOM     17  H   UNL     1      -1.186  -3.731   1.220  0.00  0.00    +0.145 HD
ENDBRANCH  12  13
ENDBRANCH  11  12
ENDBRANCH   4  11
ENDBRANCH   1   2
BRANCH   1  18
ATOM     18  N   UNL     1      -2.934   5.657  -1.643  0.00  0.00    +0.388 N 
ATOM     19  H   UNL     1      -2.105   5.923  -2.187  0.00  0.00    -0.084 HD
ATOM     20  H   UNL     1      -3.501   4.995  -2.184  0.00  0.00    -0.084 HD
BRANCH  18  21
ATOM     21  C   UNL     1      -3.734   6.863  -1.355  0.00  0.00    -0.038 C 
ATOM     22  C   UNL     1      -5.033   6.476  -0.618  0.00  0.00    -0.008 C 
ATOM     23  C   UNL     1      -6.100   7.436  -1.201  0.00  0.00    -0.001 C 
ATOM     24  C   UNL     1      -5.701   7.525  -2.695  0.00  0.00    -0.001 C 
ATOM     25  C   UNL     1      -4.159   7.529  -2.675  0.00  0.00    -0.008 C 
BRANCH  21  31
ATOM     26  C   UNL     1      -1.691   8.261  -0.958  0.00  0.00    +0.122 A 
ATOM     27  C   UNL     1      -0.958   9.153  -0.188  0.00  0.00    +0.046 A 
ATOM     28  C   UNL     1      -1.470   9.611   1.011  0.00  0.00    +0.004 A 
ATOM     29  C   UNL     1      -2.711   9.181   1.444  0.00  0.00    +0.000 A 
ATOM     30  C   UNL     1      -3.445   8.296   0.676  0.00  0.00    +0.006 A 
ATOM     31  C   UNL     1      -2.935   7.831  -0.521  0.00  0.00    -0.017 A 
BRANCH  26  33
ATOM     32  C   UNL     1       0.097   8.294  -2.524  0.00  0.00    +0.277 C 
ATOM     33  O   UNL     1      -1.190   7.809  -2.138  0.00  0.00    -0.495 OA
ENDBRANCH  26  33
ENDBRANCH  21  31
ENDBRANCH  18  21
ENDBRANCH   1  18
TORSDOF 8
