REMARK  Name = ZINC14023331
REMARK  6 active torsions:
REMARK  status: ('A' for Active; 'I' for Inactive)
REMARK    1  A    between atoms: C_1  and  N_57
REMARK    2  A    between atoms: C_7  and  N_12
REMARK    3  A    between atoms: C_8  and  C_9
REMARK    4  A    between atoms: C_13  and  C_15
REMARK    5  A    between atoms: N_20  and  S_22
REMARK    6  A    between atoms: S_22  and  C_25
REMARK                            x       y       z     vdW  Elec       q    Type
REMARK                         _______ _______ _______ _____ _____    ______ ____
ROOT
ATOM      1  N   UNL     1      -2.482   5.630   0.943  0.00  0.00    -0.279 N 
ATOM      2  C   UNL     1      -1.876   4.987  -0.075  0.00  0.00    +0.222 C 
ATOM      3  O   UNL     1      -1.463   5.614  -1.027  0.00  0.00    -0.275 OA
ATOM      4  H   UNL     1      -2.813   5.130   1.705  0.00  0.00    +0.155 HD
ENDROOT
BRANCH   1  11
ATOM      5  C   UNL     1      -3.330  13.291   0.232  0.00  0.00    -0.096 C 
ATOM      6  C   UNL     1      -3.313  11.686   2.046  0.00  0.00    -0.074 C 
ATOM      7  C   UNL     1      -3.857  10.319   2.471  0.00  0.00    +0.018 C 
ATOM      8  C   UNL     1      -3.253   9.262   1.554  0.00  0.00    -0.027 A 
ATOM      9  C   UNL     1      -2.693   9.624   0.377  0.00  0.00    -0.021 A 
ATOM     10  S   UNL     1      -2.131   8.109  -0.341  0.00  0.00    -0.079 S 
ATOM     11  C   UNL     1      -2.634   7.008   0.900  0.00  0.00    +0.084 A 
ATOM     12  C   UNL     1      -3.229   7.840   1.839  0.00  0.00    +0.068 A 
ATOM     13  C   UNL     1      -2.589  11.015  -0.167  0.00  0.00    -0.036 C 
ATOM     14  N   UNL     1      -3.530  11.871   0.597  0.00  0.00    +0.381 N 
ATOM     15  H   UNL     1      -4.492  11.600   0.365  0.00  0.00    -0.082 HD
BRANCH  12  16
ATOM     16  C   UNL     1      -3.808   7.302   3.075  0.00  0.00    +0.244 C 
ATOM     17  O   UNL     1      -3.120   7.196   4.073  0.00  0.00    -0.270 OA
ATOM     18  N   UNL     1      -5.102   6.925   3.104  0.00  0.00    -0.325 N 
ATOM     19  H   UNL     1      -5.650   7.010   2.309  0.00  0.00    +0.145 HD
ATOM     20  H   UNL     1      -5.484   6.569   3.921  0.00  0.00    +0.145 HD
ENDBRANCH  12  16
ENDBRANCH   1  11
BRANCH   2  21
ATOM     21  C   UNL     1      -1.712   3.490  -0.028  0.00  0.00    +0.091 C 
ATOM     22  C   UNL     1      -0.878   3.105   1.196  0.00  0.00    +0.015 C 
ATOM     23  C   UNL     1      -0.736   1.583   1.264  0.00  0.00    +0.018 C 
ATOM     24  C   UNL     1      -0.013   1.086   0.008  0.00  0.00    +0.109 C 
ATOM     25  N   UNL     1      -0.729   1.575  -1.178  0.00  0.00    -0.176 NA
ATOM     26  C   UNL     1      -0.997   3.015  -1.297  0.00  0.00    +0.122 C 
BRANCH  25  27
ATOM     27  S   UNL     1      -1.225   0.524  -2.357  0.00  0.00    +0.061 S 
ATOM     28  O   UNL     1      -1.351   1.284  -3.552  0.00  0.00    -0.153 OA
ATOM     29  O   UNL     1      -0.382  -0.616  -2.266  0.00  0.00    -0.153 OA
BRANCH  27  30
ATOM     30  C   UNL     1      -2.847  -0.013  -1.928  0.00  0.00    +0.106 A 
ATOM     31  C   UNL     1      -3.018  -1.140  -1.147  0.00  0.00    +0.030 A 
ATOM     32  C   UNL     1      -4.290  -1.558  -0.805  0.00  0.00    +0.022 A 
ATOM     33  C   UNL     1      -5.393  -0.855  -1.255  0.00  0.00    +0.041 A 
ATOM     34  C   UNL     1      -5.222   0.270  -2.042  0.00  0.00    +0.022 A 
ATOM     35  C   UNL     1      -3.949   0.690  -2.378  0.00  0.00    +0.030 A 
ATOM     36 CL   UNL     1      -6.992  -1.384  -0.831  0.00  0.00    -0.084 Cl
ENDBRANCH  27  30
ENDBRANCH  25  27
ENDBRANCH   2  21
TORSDOF 5
