REMARK  Name = ZINC34748268
REMARK  6 active torsions:
REMARK  status: ('A' for Active; 'I' for Inactive)
REMARK    1  A    between atoms: C_1  and  C_2
REMARK    2  A    between atoms: C_2  and  N_3
REMARK    3  A    between atoms: C_13  and  C_17
REMARK    4  A    between atoms: C_14  and  C_16
REMARK    5  A    between atoms: N_20  and  C_21
REMARK    6  A    between atoms: C_21  and  C_22
REMARK                            x       y       z     vdW  Elec       q    Type
REMARK                         _______ _______ _______ _____ _____    ______ ____
ROOT
ATOM      1  N   UNL     1      -2.547   0.384   0.180  0.00  0.00    +0.382 N 
ATOM      2  C   UNL     1      -3.970   0.088   0.389  0.00  0.00    -0.060 C 
ATOM      3  C   UNL     1      -4.178  -1.430   0.397  0.00  0.00    +0.089 C 
ATOM      4  N   UNL     1      -3.619  -1.984  -0.845  0.00  0.00    -0.304 N 
ATOM      5  C   UNL     1      -2.247  -1.605  -1.218  0.00  0.00    +0.089 C 
ATOM      6  C   UNL     1      -2.130  -0.079  -1.149  0.00  0.00    -0.060 C 
ATOM      7  C   UNL     1      -4.355  -2.832  -1.635  0.00  0.00    +0.202 A 
ATOM      8  N   UNL     1      -5.120  -2.334  -2.585  0.00  0.00    -0.208 NA
ATOM      9  C   UNL     1      -5.843  -3.129  -3.364  0.00  0.00    +0.117 A 
ATOM     10  C   UNL     1      -5.832  -4.529  -3.219  0.00  0.00    +0.075 A 
ATOM     11  C   UNL     1      -6.680  -5.249  -4.153  0.00  0.00    -0.026 A 
ATOM     12  C   UNL     1      -7.390  -4.559  -5.058  0.00  0.00    -0.008 A 
ATOM     13  S   UNL     1      -6.964  -2.863  -4.714  0.00  0.00    -0.073 S 
ATOM     14  C   UNL     1      -8.326  -5.092  -6.113  0.00  0.00    +0.052 C 
ATOM     15  C   UNL     1      -6.760  -6.753  -4.107  0.00  0.00    +0.045 C 
ATOM     16  C   UNL     1      -4.993  -5.039  -2.179  0.00  0.00    +0.264 A 
ATOM     17  O   UNL     1      -4.918  -6.239  -1.978  0.00  0.00    -0.267 OA
ATOM     18  N   UNL     1      -4.281  -4.178  -1.429  0.00  0.00    -0.271 N 
ATOM     19  H   UNL     1      -2.001  -0.086   0.886  0.00  0.00    -0.082 HD
ENDROOT
BRANCH   1  21
ATOM     20  C   UNL     1      -2.647   2.298   1.706  0.00  0.00    -0.017 C 
ATOM     21  C   UNL     1      -2.331   1.834   0.282  0.00  0.00    -0.082 C 
ENDBRANCH   1  21
BRANCH  18  22
ATOM     22  C   UNL     1      -3.415  -4.695  -0.366  0.00  0.00    +0.223 C 
BRANCH  22  23
ATOM     23  C   UNL     1      -4.220  -4.873   0.895  0.00  0.00    +0.230 C 
ATOM     24  O   UNL     1      -5.400  -4.596   0.906  0.00  0.00    -0.274 OA
ATOM     25  N   UNL     1      -3.627  -5.341   2.012  0.00  0.00    -0.328 N 
ATOM     26  H   UNL     1      -2.683  -5.564   2.003  0.00  0.00    +0.145 HD
ATOM     27  H   UNL     1      -4.145  -5.456   2.824  0.00  0.00    +0.145 HD
ENDBRANCH  22  23
ENDBRANCH  18  22
TORSDOF 3
