REMARK  Name = ZINC49071434
REMARK  4 active torsions:
REMARK  status: ('A' for Active; 'I' for Inactive)
REMARK    1  A    between atoms: C_3  and  C_6
REMARK    2  A    between atoms: C_7  and  C_8
REMARK    3  A    between atoms: C_14  and  N_20
REMARK    4  A    between atoms: C_15  and  C_17
REMARK                            x       y       z     vdW  Elec       q    Type
REMARK                         _______ _______ _______ _____ _____    ______ ____
ROOT
ATOM      1  C   UNL     1       5.667  -0.713  -0.318  0.00  0.00    -0.009 A 
ATOM      2  C   UNL     1       6.414  -1.621   0.484  0.00  0.00    -0.020 A 
ATOM      3  C   UNL     1       7.779  -1.505   0.466  0.00  0.00    +0.021 A 
ATOM      4  N   UNL     1       8.374  -0.596  -0.307  0.00  0.00    -0.352 N 
ATOM      5  C   UNL     1       7.727   0.246  -1.068  0.00  0.00    +0.088 A 
ATOM      6  C   UNL     1       6.312   0.272  -1.121  0.00  0.00    +0.034 A 
ATOM      7  C   UNL     1       5.763   1.302  -1.981  0.00  0.00    +0.054 A 
ATOM      8  C   UNL     1       6.634   2.121  -2.679  0.00  0.00    +0.097 A 
ATOM      9  S   UNL     1       8.237   1.525  -2.189  0.00  0.00    -0.064 S 
ATOM     10  C   UNL     1       8.746  -2.322   1.287  0.00  0.00    +0.053 C 
ATOM     11  C   UNL     1       8.906  -3.728   0.743  0.00  0.00    +0.006 C 
ATOM     12  C   UNL     1       7.664  -4.246   0.034  0.00  0.00    +0.000 C 
ATOM     13  C   UNL     1       6.775  -4.761   1.144  0.00  0.00    +0.000 C 
ATOM     14  C   UNL     1       6.261  -3.646   2.050  0.00  0.00    +0.005 C 
ATOM     15  C   UNL     1       5.535  -2.592   1.235  0.00  0.00    +0.037 C 
ATOM     16  H   UNL     1       9.345  -0.562  -0.304  0.00  0.00    +0.166 HD
ENDROOT
BRANCH   8  17
ATOM     17  C   UNL     1       6.317   3.178  -3.566  0.00  0.00    +0.250 C 
ATOM     18  O   UNL     1       5.152   3.456  -3.790  0.00  0.00    -0.270 OA
ATOM     19  N   UNL     1       7.303   3.876  -4.162  0.00  0.00    -0.325 N 
ATOM     20  H   UNL     1       8.231   3.654  -3.984  0.00  0.00    +0.145 HD
ATOM     21  H   UNL     1       7.086   4.600  -4.770  0.00  0.00    +0.145 HD
ENDBRANCH   8  17
BRANCH   7  22
ATOM     22  N   UNL     1       4.398   1.509  -2.135  0.00  0.00    -0.356 N 
ATOM     23  H   UNL     1       3.771   1.078  -1.535  0.00  0.00    +0.142 HD
ATOM     24  H   UNL     1       4.072   2.085  -2.845  0.00  0.00    +0.142 HD
ENDBRANCH   7  22
BRANCH   1  26
ATOM     25  C   UNL     1       3.519  -0.639   0.846  0.00  0.00    +0.047 C 
ATOM     26  C   UNL     1       4.201  -0.807  -0.309  0.00  0.00    +0.012 C 
BRANCH  25  29
ATOM     27  C   UNL     1      -0.040  -1.022   1.554  0.00  0.00    +0.042 A 
ATOM     28  C   UNL     1       1.266  -0.721   1.975  0.00  0.00    +0.049 A 
ATOM     29  C   UNL     1       2.073  -0.855   0.880  0.00  0.00    +0.128 A 
ATOM     30  O   UNL     1       1.302  -1.221  -0.164  0.00  0.00    -0.464 OA
ATOM     31  C   UNL     1       0.025  -1.323   0.239  0.00  0.00    +0.195 A 
ENDBRANCH  25  29
ENDBRANCH   1  26
TORSDOF 4
