REMARK  Name = ZINC40701990
REMARK  9 active torsions:
REMARK  status: ('A' for Active; 'I' for Inactive)
REMARK    1  A    between atoms: C_1  and  C_2
REMARK    2  A    between atoms: C_2  and  N_3
REMARK    3  A    between atoms: N_3  and  C_4
REMARK    4  A    between atoms: C_15  and  N_31
REMARK    5  A    between atoms: C_16  and  N_20
REMARK    6  A    between atoms: N_20  and  C_21
REMARK    7  A    between atoms: C_26  and  C_27
REMARK    8  A    between atoms: C_27  and  O_29
REMARK    9  A    between atoms: O_29  and  C_30
REMARK                            x       y       z     vdW  Elec       q    Type
REMARK                         _______ _______ _______ _____ _____    ______ ____
ROOT
ATOM      1  N   UNL     1      -1.457  -0.485  -0.029  0.00  0.00    -0.283 N 
ATOM      2  C   UNL     1      -2.011  -0.694   1.229  0.00  0.00    +0.151 A 
ATOM      3  C   UNL     1      -1.278  -0.409   2.383  0.00  0.00    +0.104 A 
ATOM      4  C   UNL     1      -1.883  -0.637   3.620  0.00  0.00    +0.126 A 
ATOM      5  N   UNL     1      -3.126  -1.113   3.653  0.00  0.00    -0.333 N 
ATOM      6  C   UNL     1      -3.782  -1.369   2.539  0.00  0.00    +0.200 A 
ATOM      7  N   UNL     1      -3.251  -1.163   1.351  0.00  0.00    -0.220 NA
ATOM      8  H   UNL     1      -3.554  -1.274   4.508  0.00  0.00    +0.168 HD
ENDROOT
BRANCH   1   9
ATOM      9  C   UNL     1      -0.842  -1.539  -0.704  0.00  0.00    +0.043 A 
ATOM     10  C   UNL     1       0.503  -1.786  -0.530  0.00  0.00    +0.024 A 
ATOM     11  C   UNL     1       1.126  -2.836  -1.198  0.00  0.00    +0.002 A 
ATOM     12  C   UNL     1       0.426  -3.647  -2.040  0.00  0.00    +0.008 A 
ATOM     13  C   UNL     1      -0.947  -3.429  -2.245  0.00  0.00    -0.016 A 
ATOM     14  C   UNL     1      -1.593  -2.367  -1.566  0.00  0.00    +0.003 A 
ATOM     15  C   UNL     1      -2.966  -2.154  -1.767  0.00  0.00    +0.010 A 
ATOM     16  C   UNL     1      -3.659  -2.973  -2.607  0.00  0.00    +0.001 A 
ATOM     17  C   UNL     1      -3.025  -4.021  -3.270  0.00  0.00    +0.001 A 
ATOM     18  C   UNL     1      -1.693  -4.250  -3.108  0.00  0.00    +0.008 A 
ENDBRANCH   1   9
BRANCH   3  19
ATOM     19  N   UNL     1       0.030   0.091   2.301  0.00  0.00    -0.353 N 
ATOM     20  H   UNL     1       0.411   0.315   1.438  0.00  0.00    +0.143 HD
ATOM     21  H   UNL     1       0.554   0.214   3.109  0.00  0.00    +0.143 HD
ENDBRANCH   3  19
BRANCH   1  23
ATOM     22  C   UNL     1      -2.738   0.922  -1.565  0.00  0.00    +0.025 C 
ATOM     23  C   UNL     1      -1.518   0.842  -0.645  0.00  0.00    +0.109 C 
ENDBRANCH   1  23
BRANCH   4  24
ATOM     24  N   UNL     1      -1.198  -0.371   4.801  0.00  0.00    -0.299 N 
ATOM     25  H   UNL     1      -0.271  -0.087   4.771  0.00  0.00    +0.154 HD
BRANCH  24  26
ATOM     26  C   UNL     1      -1.842  -0.511   6.025  0.00  0.00    +0.046 A 
ATOM     27  C   UNL     1      -2.279   0.612   6.716  0.00  0.00    +0.024 A 
ATOM     28  C   UNL     1      -2.917   0.470   7.931  0.00  0.00    +0.002 A 
ATOM     29  C   UNL     1      -3.127  -0.790   8.471  0.00  0.00    +0.001 A 
ATOM     30  C   UNL     1      -2.701  -1.915   7.800  0.00  0.00    +0.017 A 
ATOM     31  C   UNL     1      -2.058  -1.788   6.566  0.00  0.00    +0.080 A 
BRANCH  31  32
ATOM     32  C   UNL     1      -1.605  -2.988   5.840  0.00  0.00    +0.341 C 
ATOM     33  O   UNL     1      -0.947  -2.871   4.825  0.00  0.00    -0.245 OA
BRANCH  32  34
ATOM     34  O   UNL     1      -1.921  -4.214   6.301  0.00  0.00    -0.464 OA
ATOM     35  C   UNL     1      -1.448  -5.332   5.547  0.00  0.00    +0.280 C 
ENDBRANCH  32  34
ENDBRANCH  31  32
ENDBRANCH  24  26
ENDBRANCH   4  24
TORSDOF 7
