REMARK  Name = ZINC20432132
REMARK  5 active torsions:
REMARK  status: ('A' for Active; 'I' for Inactive)
REMARK    1  A    between atoms: C_6  and  S_7
REMARK    2  A    between atoms: S_7  and  N_10
REMARK    3  A    between atoms: N_10  and  C_11
REMARK    4  A    between atoms: C_11  and  C_17
REMARK    5  A    between atoms: C_17  and  N_18
REMARK                            x       y       z     vdW  Elec       q    Type
REMARK                         _______ _______ _______ _____ _____    ______ ____
ROOT
ATOM      1  N   UNL     1      -3.768  -0.075   1.843  0.00  0.00    -0.186 NA
ATOM      2  H   UNL     1      -3.520  -0.964   2.442  0.00  0.00    +0.149 HD
ENDROOT
BRANCH   1   3
ATOM      3  C   UNL     1      -3.586   1.264   2.409  0.00  0.00    +0.025 C 
ATOM      4  C   UNL     1      -2.341   1.911   1.798  0.00  0.00    +0.022 C 
ATOM      5  C   UNL     1      -1.114   1.053   2.113  0.00  0.00    +0.002 C 
ATOM      6  C   UNL     1      -0.941   0.947   3.629  0.00  0.00    +0.000 C 
ATOM      7  C   UNL     1      -2.186   0.300   4.240  0.00  0.00    +0.002 C 
ATOM      8  C   UNL     1      -3.413   1.158   3.925  0.00  0.00    +0.022 C 
BRANCH   3   9
ATOM      9  C   UNL     1      -4.813   2.122   2.094  0.00  0.00    -0.062 C 
BRANCH   9  10
ATOM     10  N   UNL     1      -4.681   2.689   0.746  0.00  0.00    +0.379 N 
ATOM     11  H   UNL     1      -5.563   3.306   0.519  0.00  0.00    -0.090 HD
ATOM     12  H   UNL     1      -4.605   1.874   0.011  0.00  0.00    -0.090 HD
ATOM     13  H   UNL     1      -3.776   3.312   0.697  0.00  0.00    -0.090 HD
ENDBRANCH   9  10
ENDBRANCH   3   9
ENDBRANCH   1   3
BRANCH   1  14
ATOM     14  S   UNL     1      -4.105  -0.254   0.232  0.00  0.00    +0.059 S 
ATOM     15  O   UNL     1      -5.183   0.625  -0.058  0.00  0.00    -0.153 OA
ATOM     16  O   UNL     1      -4.174  -1.651  -0.016  0.00  0.00    -0.153 OA
BRANCH  14  22
ATOM     17  C   UNL     1      -1.572  -0.427  -0.770  0.00  0.00    +0.029 A 
ATOM     18  C   UNL     1      -0.482   0.044  -1.477  0.00  0.00    +0.006 A 
ATOM     19  C   UNL     1      -0.525   1.292  -2.074  0.00  0.00    -0.044 A 
ATOM     20  C   UNL     1      -1.663   2.070  -1.962  0.00  0.00    -0.042 A 
ATOM     21  C   UNL     1      -2.754   1.596  -1.252  0.00  0.00    +0.032 A 
ATOM     22  C   UNL     1      -2.711   0.347  -0.663  0.00  0.00    +0.106 A 
ATOM     23  C   UNL     1      -1.463   3.379  -2.694  0.00  0.00    +0.036 C 
ATOM     24  C   UNL     1      -0.258   3.139  -3.628  0.00  0.00    +0.009 C 
ATOM     25  C   UNL     1       0.517   2.026  -2.890  0.00  0.00    +0.036 C 
ENDBRANCH  14  22
ENDBRANCH   1  14
TORSDOF 5
