REMARK  Name = ZINC52860312
REMARK  3 active torsions:
REMARK  status: ('A' for Active; 'I' for Inactive)
REMARK    1  A    between atoms: C_3  and  O_9
REMARK    2  A    between atoms: O_9  and  C_10
REMARK    3  A    between atoms: C_15  and  C_16
REMARK                            x       y       z     vdW  Elec       q    Type
REMARK                         _______ _______ _______ _____ _____    ______ ____
ROOT
ATOM      1  C   UNL     1       3.480   3.458  -0.245  0.00  0.00    +0.139 A 
ATOM      2  C   UNL     1       2.251   4.100  -0.221  0.00  0.00    +0.048 A 
ATOM      3  C   UNL     1       2.191   5.479  -0.192  0.00  0.00    +0.023 A 
ATOM      4  C   UNL     1       3.355   6.231  -0.187  0.00  0.00    +0.042 A 
ATOM      5  C   UNL     1       4.585   5.608  -0.211  0.00  0.00    +0.035 A 
ATOM      6  C   UNL     1       4.659   4.214  -0.235  0.00  0.00    +0.056 A 
ATOM      7 CL   UNL     1       3.265   7.964  -0.152  0.00  0.00    -0.084 Cl
ENDROOT
BRANCH   6   8
ATOM      8  C   UNL     1       5.973   3.540  -0.255  0.00  0.00    +0.098 C 
ATOM      9  N   UNL     1       6.854   3.826  -1.213  0.00  0.00    -0.387 N 
ATOM     10  N   UNL     1       6.278   2.647   0.686  0.00  0.00    -0.344 N 
ATOM     11  H   UNL     1       7.744   3.439  -1.185  0.00  0.00    +0.157 HD
ATOM     12  H   UNL     1       5.637   2.439   1.384  0.00  0.00    +0.144 HD
ATOM     13  H   UNL     1       7.141   2.204   0.673  0.00  0.00    +0.144 HD
ATOM     14  H   UNL     1       6.606   4.420  -1.938  0.00  0.00    +0.157 HD
ENDBRANCH   6   8
BRANCH   1  15
ATOM     15  O   UNL     1       3.540   2.103  -0.274  0.00  0.00    -0.454 OA
BRANCH  15  18
ATOM     16  C   UNL     1       0.565   0.195   0.594  0.00  0.00    +0.042 A 
ATOM     17  C   UNL     1       1.750   0.894   0.724  0.00  0.00    +0.050 A 
ATOM     18  C   UNL     1       2.374   1.415  -0.400  0.00  0.00    +0.143 A 
ATOM     19  C   UNL     1       1.807   1.233  -1.654  0.00  0.00    +0.063 A 
ATOM     20  C   UNL     1       0.622   0.534  -1.781  0.00  0.00    +0.057 A 
ATOM     21  C   UNL     1       0.001   0.015  -0.657  0.00  0.00    +0.125 A 
ATOM     22  F   UNL     1      -1.158  -0.669  -0.782  0.00  0.00    -0.205 F 
ATOM     23 BR   UNL     1       2.656   1.942  -3.188  0.00  0.00    -0.046 Br
ENDBRANCH  15  18
ENDBRANCH   1  15
TORSDOF 3
