REMARK  Name = ZINC06551999
REMARK  9 active torsions:
REMARK  status: ('A' for Active; 'I' for Inactive)
REMARK    1  A    between atoms: C_4  and  C_7
REMARK    2  A    between atoms: C_7  and  C_8
REMARK    3  A    between atoms: C_11  and  S_19
REMARK    4  A    between atoms: N_12  and  C_13
REMARK    5  A    between atoms: C_13  and  C_14
REMARK    6  A    between atoms: S_19  and  C_20
REMARK    7  A    between atoms: C_20  and  C_21
REMARK    8  A    between atoms: N_23  and  C_24
REMARK    9  A    between atoms: C_25  and  C_32
REMARK                            x       y       z     vdW  Elec       q    Type
REMARK                         _______ _______ _______ _____ _____    ______ ____
ROOT
ATOM      1  S   UNL     1       4.473  -2.936   4.726  0.00  0.00    -0.077 S 
ENDROOT
BRANCH   1   5
ATOM      2  C   UNL     1       4.164  -0.959   1.377  0.00  0.00    +0.139 A 
ATOM      3  N   UNL     1       4.904  -0.170   2.103  0.00  0.00    -0.133 NA
ATOM      4  N   UNL     1       5.101  -0.691   3.262  0.00  0.00    -0.122 NA
ATOM      5  C   UNL     1       4.491  -1.852   3.338  0.00  0.00    +0.192 A 
ATOM      6  N   UNL     1       3.870  -2.057   2.139  0.00  0.00    -0.298 N 
BRANCH   2   7
ATOM      7  C   UNL     1       3.711  -0.707  -0.038  0.00  0.00    +0.111 C 
BRANCH   7  11
ATOM      8  C   UNL     1      -0.017   1.378   0.010  0.00  0.00    +0.000 A 
ATOM      9  C   UNL     1       1.171   2.086   0.002  0.00  0.00    +0.000 A 
ATOM     10  C   UNL     1       2.377   1.411  -0.013  0.00  0.00    +0.004 A 
ATOM     11  C   UNL     1       2.396   0.029  -0.020  0.00  0.00    -0.040 A 
ATOM     12  C   UNL     1       1.208  -0.679  -0.012  0.00  0.00    +0.004 A 
ATOM     13  C   UNL     1       0.002  -0.004   0.002  0.00  0.00    +0.000 A 
ENDBRANCH   7  11
ENDBRANCH   2   7
BRANCH   6  14
ATOM     14  C   UNL     1       3.060  -3.213   1.749  0.00  0.00    +0.199 C 
BRANCH  14  15
ATOM     15  C   UNL     1       3.947  -4.261   1.127  0.00  0.00    +0.125 A 
ATOM     16  C   UNL     1       4.568  -5.256   1.784  0.00  0.00    +0.046 A 
ATOM     17  C   UNL     1       5.288  -5.997   0.819  0.00  0.00    +0.041 A 
ATOM     18  C   UNL     1       5.064  -5.410  -0.371  0.00  0.00    +0.195 A 
ATOM     19  O   UNL     1       4.246  -4.362  -0.179  0.00  0.00    -0.466 OA
ENDBRANCH  14  15
ENDBRANCH   6  14
ENDBRANCH   1   5
BRANCH   1  20
ATOM     20  C   UNL     1       5.470  -2.073   5.971  0.00  0.00    +0.173 C 
BRANCH  20  21
ATOM     21  C   UNL     1       5.536  -2.904   7.227  0.00  0.00    +0.228 C 
ATOM     22  O   UNL     1       4.966  -3.973   7.277  0.00  0.00    -0.275 OA
ATOM     23  N   UNL     1       6.228  -2.458   8.294  0.00  0.00    -0.279 N 
ATOM     24  H   UNL     1       6.683  -1.603   8.254  0.00  0.00    +0.155 HD
BRANCH  23  25
ATOM     25  C   UNL     1       6.288  -3.223   9.449  0.00  0.00    +0.084 A 
ATOM     26  C   UNL     1       6.939  -2.926  10.632  0.00  0.00    +0.068 A 
ATOM     27  C   UNL     1       6.849  -3.908  11.711  0.00  0.00    -0.023 A 
ATOM     28  C   UNL     1       6.126  -4.999  11.401  0.00  0.00    -0.004 A 
ATOM     29  S   UNL     1       5.582  -4.717   9.736  0.00  0.00    -0.077 S 
ATOM     30  C   UNL     1       6.069  -5.977  12.543  0.00  0.00    +0.043 C 
ATOM     31  C   UNL     1       7.218  -5.548  13.483  0.00  0.00    +0.010 C 
ATOM     32  C   UNL     1       7.359  -4.050  13.144  0.00  0.00    +0.037 C 
BRANCH  26  33
ATOM     33  C   UNL     1       7.691  -1.677  10.797  0.00  0.00    +0.244 C 
ATOM     34  O   UNL     1       7.133  -0.684  11.225  0.00  0.00    -0.270 OA
ATOM     35  N   UNL     1       8.998  -1.630  10.475  0.00  0.00    -0.325 N 
ATOM     36  H   UNL     1       9.443  -2.422  10.133  0.00  0.00    +0.145 HD
ATOM     37  H   UNL     1       9.495  -0.804  10.584  0.00  0.00    +0.145 HD
ENDBRANCH  26  33
ENDBRANCH  23  25
ENDBRANCH  20  21
ENDBRANCH   1  20
TORSDOF 9
