REMARK  Name = ZINC23334538
REMARK  8 active torsions:
REMARK  status: ('A' for Active; 'I' for Inactive)
REMARK    1  A    between atoms: C_1  and  C_2
REMARK    2  A    between atoms: C_2  and  C_4
REMARK    3  A    between atoms: C_2  and  N_17
REMARK    4  A    between atoms: N_6  and  C_7
REMARK    5  A    between atoms: C_10  and  S_13
REMARK    6  A    between atoms: S_13  and  N_16
REMARK    7  A    between atoms: N_20  and  C_23
REMARK    8  A    between atoms: C_23  and  C_24
REMARK                            x       y       z     vdW  Elec       q    Type
REMARK                         _______ _______ _______ _____ _____    ______ ____
ROOT
ATOM      1  C   UNL     1       7.041  -2.715  -4.348  0.00  0.00    -0.004 C 
ATOM      2  C   UNL     1       5.848  -2.042  -5.030  0.00  0.00    +0.017 C 
ENDROOT
BRANCH   2   3
ATOM      3  N   UNL     1       5.033  -1.351  -4.022  0.00  0.00    +0.389 N 
ATOM      4  C   UNL     1       3.774  -0.866  -4.604  0.00  0.00    -0.062 C 
ATOM      5  C   UNL     1       2.993  -0.085  -3.545  0.00  0.00    +0.066 C 
ATOM      6  N   UNL     1       2.734  -0.956  -2.390  0.00  0.00    -0.301 NA
ATOM      7  C   UNL     1       3.993  -1.441  -1.807  0.00  0.00    +0.066 C 
ATOM      8  C   UNL     1       4.775  -2.222  -2.866  0.00  0.00    -0.062 C 
ATOM      9  H   UNL     1       5.603  -0.479  -3.669  0.00  0.00    -0.081 HD
BRANCH   6  10
ATOM     10  C   UNL     1       1.919  -0.265  -1.382  0.00  0.00    +0.126 C 
BRANCH  10  11
ATOM     11  C   UNL     1       1.470  -1.252  -0.336  0.00  0.00    +0.005 A 
ATOM     12  C   UNL     1       2.082  -1.610   0.819  0.00  0.00    +0.014 A 
ATOM     13  C   UNL     1       1.479  -2.549   1.635  0.00  0.00    +0.028 A 
ATOM     14  C   UNL     1       0.291  -3.083   1.255  0.00  0.00    +0.078 A 
ATOM     15  S   UNL     1      -0.007  -2.254  -0.298  0.00  0.00    -0.080 S 
ATOM     16 CL   UNL     1      -0.682  -4.271   2.065  0.00  0.00    -0.076 Cl
ENDBRANCH  10  11
ENDBRANCH   6  10
ENDBRANCH   2   3
BRANCH   2  17
ATOM     17  C   UNL     1       5.011  -3.087  -5.722  0.00  0.00    +0.203 C 
ATOM     18  O   UNL     1       4.072  -3.593  -5.144  0.00  0.00    -0.277 OA
ATOM     19  N   UNL     1       5.305  -3.459  -6.984  0.00  0.00    -0.287 N 
ATOM     20  H   UNL     1       6.212  -3.073  -7.474  0.00  0.00    +0.155 HD
BRANCH  19  21
ATOM     21  C   UNL     1       4.458  -4.335  -7.671  0.00  0.00    +0.033 A 
ATOM     22  C   UNL     1       3.805  -5.351  -6.986  0.00  0.00    +0.025 A 
ATOM     23  C   UNL     1       2.965  -6.212  -7.666  0.00  0.00    +0.030 A 
ATOM     24  C   UNL     1       2.782  -6.068  -9.029  0.00  0.00    +0.105 A 
ATOM     25  C   UNL     1       3.435  -5.060  -9.715  0.00  0.00    +0.030 A 
ATOM     26  C   UNL     1       4.272  -4.194  -9.040  0.00  0.00    +0.025 A 
BRANCH  24  27
ATOM     27  S   UNL     1       1.714  -7.171  -9.894  0.00  0.00    +0.056 S 
ATOM     28  O   UNL     1       0.800  -7.685  -8.936  0.00  0.00    -0.153 OA
ATOM     29  O   UNL     1       1.288  -6.489 -11.065  0.00  0.00    -0.153 OA
BRANCH  27  30
ATOM     30  N   UNL     1       2.638  -8.449 -10.400  0.00  0.00    -0.204 NA
ATOM     31  H   UNL     1       2.005  -9.164 -10.947  0.00  0.00    +0.144 HD
ATOM     32  H   UNL     1       3.084  -8.948  -9.527  0.00  0.00    +0.144 HD
ENDBRANCH  27  30
ENDBRANCH  24  27
ENDBRANCH  19  21
ENDBRANCH   2  17
TORSDOF 7
