REMARK  Name = ZINC04278494
REMARK  8 active torsions:
REMARK  status: ('A' for Active; 'I' for Inactive)
REMARK    1  A    between atoms: C_1  and  C_2
REMARK    2  A    between atoms: C_3  and  C_28
REMARK    3  A    between atoms: C_11  and  C_13
REMARK    4  A    between atoms: C_13  and  C_15
REMARK    5  A    between atoms: C_13  and  S_16
REMARK    6  A    between atoms: S_16  and  C_17
REMARK    7  A    between atoms: C_20  and  C_23
REMARK    8  A    between atoms: N_21  and  N_22
REMARK                            x       y       z     vdW  Elec       q    Type
REMARK                         _______ _______ _______ _____ _____    ______ ____
ROOT
ATOM      1  C   UNL     1      -2.729   0.163   0.028  0.00  0.00    +0.117 C 
ATOM      2  C   UNL     1      -2.700   0.964  -1.275  0.00  0.00    +0.027 C 
ENDROOT
BRANCH   1  13
ATOM      3  C   UNL     1      -8.912  -2.178   1.143  0.00  0.00    +0.045 C 
ATOM      4  C   UNL     1      -7.676  -2.630   0.409  0.00  0.00    -0.026 A 
ATOM      5  C   UNL     1      -7.665  -3.803  -0.246  0.00  0.00    -0.008 A 
ATOM      6  S   UNL     1      -6.021  -3.879  -0.930  0.00  0.00    -0.073 S 
ATOM      7  C   UNL     1      -5.396  -2.335  -0.317  0.00  0.00    +0.116 A 
ATOM      8  C   UNL     1      -6.483  -1.805   0.402  0.00  0.00    +0.075 A 
ATOM      9  C   UNL     1      -6.255  -0.531   1.019  0.00  0.00    +0.260 A 
ATOM     10  O   UNL     1      -7.135   0.011   1.664  0.00  0.00    -0.267 OA
ATOM     11  N   UNL     1      -5.050   0.053   0.880  0.00  0.00    -0.309 N 
ATOM     12  H   UNL     1      -4.882   0.937   1.316  0.00  0.00    +0.170 HD
ATOM     13  C   UNL     1      -4.059  -0.533   0.161  0.00  0.00    +0.124 A 
ATOM     14  N   UNL     1      -4.236  -1.693  -0.414  0.00  0.00    -0.225 NA
ATOM     15  C   UNL     1      -8.777  -4.812  -0.371  0.00  0.00    +0.052 C 
ENDBRANCH   1  13
BRANCH   1  16
ATOM     16  S   UNL     1      -1.403  -1.068   0.010  0.00  0.00    -0.074 S 
BRANCH  16  17
ATOM     17  C   UNL     1       0.002  -0.004   0.002  0.00  0.00    +0.209 A 
ATOM     18  N   UNL     1      -0.016   1.310   0.009  0.00  0.00    -0.120 NA
ATOM     19  N   UNL     1       1.184   1.769   0.000  0.00  0.00    -0.123 NA
ATOM     20  C   UNL     1       2.045   0.775  -0.013  0.00  0.00    +0.217 A 
ATOM     21  N   UNL     1       1.313  -0.392  -0.013  0.00  0.00    -0.221 N 
BRANCH  20  22
ATOM     22  C   UNL     1       3.512   0.887  -0.026  0.00  0.00    +0.173 A 
ATOM     23  C   UNL     1       4.226   2.010  -0.318  0.00  0.00    +0.053 A 
ATOM     24  C   UNL     1       5.587   1.666  -0.207  0.00  0.00    +0.042 A 
ATOM     25  C   UNL     1       5.639   0.363   0.134  0.00  0.00    +0.196 A 
ATOM     26  O   UNL     1       4.384  -0.105   0.242  0.00  0.00    -0.460 OA
ENDBRANCH  20  22
BRANCH  21  27
ATOM     27  N   UNL     1       1.795  -1.670  -0.024  0.00  0.00    -0.294 N 
ATOM     28  H   UNL     1       1.914  -2.003  -0.970  0.00  0.00    +0.163 HD
ATOM     29  H   UNL     1       2.659  -1.735   0.493  0.00  0.00    +0.163 HD
ENDBRANCH  21  27
ENDBRANCH  16  17
ENDBRANCH   1  16
TORSDOF 5
