REMARK  Name = ZINC06731002
REMARK  2 active torsions:
REMARK  status: ('A' for Active; 'I' for Inactive)
REMARK    1  A    between atoms: C_2  and  N_9
REMARK    2  A    between atoms: C_18  and  C_20
REMARK                            x       y       z     vdW  Elec       q    Type
REMARK                         _______ _______ _______ _____ _____    ______ ____
ROOT
ATOM      1  N   UNL     1       1.165   3.492  -0.055  0.00  0.00    -0.269 N 
ATOM      2  C   UNL     1       2.317   4.174   0.104  0.00  0.00    +0.307 C 
ATOM      3  O   UNL     1       3.375   3.577   0.149  0.00  0.00    -0.252 OA
ATOM      4  N   UNL     1       2.295   5.517   0.212  0.00  0.00    -0.282 N 
ATOM      5  C   UNL     1       1.021   6.237   0.345  0.00  0.00    +0.128 C 
ATOM      6  C   UNL     1       1.076   7.101   1.611  0.00  0.00    +0.127 C 
ATOM      7  N   UNL     1       2.326   7.872   1.599  0.00  0.00    -0.296 N 
ATOM      8  C   UNL     1       3.601   7.153   1.466  0.00  0.00    +0.127 C 
ATOM      9  C   UNL     1       3.546   6.288   0.206  0.00  0.00    +0.128 C 
ATOM     10  C   UNL     1       2.305   9.215   1.707  0.00  0.00    +0.245 C 
ATOM     11  O   UNL     1       1.247   9.798   1.816  0.00  0.00    -0.273 OA
ATOM     12  H   UNL     1       0.337   3.970  -0.219  0.00  0.00    +0.156 HD
ENDROOT
BRANCH   1  14
ATOM     13  C   UNL     1      -0.005   1.417   0.342  0.00  0.00    +0.043 A 
ATOM     14  C   UNL     1       1.163   2.095   0.018  0.00  0.00    +0.038 A 
ATOM     15  C   UNL     1       2.329   1.384  -0.235  0.00  0.00    +0.043 A 
ATOM     16  C   UNL     1       2.324   0.003  -0.163  0.00  0.00    +0.044 A 
ATOM     17  C   UNL     1       1.159  -0.670   0.161  0.00  0.00    +0.040 A 
ATOM     18  C   UNL     1      -0.004   0.036   0.413  0.00  0.00    +0.044 A 
ATOM     19 CL   UNL     1      -1.463  -0.812   0.819  0.00  0.00    -0.083 Cl
ATOM     20 CL   UNL     1       3.781  -0.887  -0.478  0.00  0.00    -0.083 Cl
ENDBRANCH   1  14
BRANCH  10  21
ATOM     21  C   UNL     1       3.596   9.993   1.694  0.00  0.00    +0.204 C 
ATOM     22  C   UNL     1       4.434   9.639   2.941  0.00  0.00    +0.043 C 
ATOM     23  C   UNL     1       5.032  11.016   3.338  0.00  0.00    +0.031 C 
ATOM     24  C   UNL     1       3.874  11.965   2.940  0.00  0.00    +0.161 C 
ATOM     25  O   UNL     1       3.318  11.397   1.742  0.00  0.00    -0.367 OA
ENDBRANCH  10  21
TORSDOF 2
