REMARK  Name = ZINC42736765
REMARK  12 active torsions:
REMARK  status: ('A' for Active; 'I' for Inactive)
REMARK    1  A    between atoms: C_1  and  C_2
REMARK    2  A    between atoms: C_2  and  C_4
REMARK    3  A    between atoms: C_2  and  N_8
REMARK    4  A    between atoms: C_4  and  C_5
REMARK    5  A    between atoms: C_4  and  C_6
REMARK    6  A    between atoms: C_4  and  C_7
REMARK    7  A    between atoms: N_8  and  C_9
REMARK    8  A    between atoms: N_8  and  C_10
REMARK    9  A    between atoms: C_10  and  C_11
REMARK   10  A    between atoms: C_11  and  C_12
REMARK   11  A    between atoms: N_14  and  C_15
REMARK   12  A    between atoms: C_18  and  N_22
REMARK                            x       y       z     vdW  Elec       q    Type
REMARK                         _______ _______ _______ _____ _____    ______ ____
ROOT
ATOM      1  C   UNL     1       1.703  -1.838   3.577  0.00  0.00    +0.215 C 
ATOM      2  O   UNL     1       2.157  -2.618   2.766  0.00  0.00    -0.276 OA
ATOM      3  N   UNL     1       1.973  -1.997   4.888  0.00  0.00    -0.284 N 
ATOM      4  H   UNL     1       1.562  -1.411   5.542  0.00  0.00    +0.155 HD
ENDROOT
BRANCH   3   5
ATOM      5  C   UNL     1       2.847  -3.010   5.306  0.00  0.00    +0.052 A 
ATOM      6  C   UNL     1       3.895  -3.405   4.485  0.00  0.00    +0.026 A 
ATOM      7  C   UNL     1       4.756  -4.403   4.896  0.00  0.00    +0.024 A 
ATOM      8  C   UNL     1       4.576  -5.011   6.132  0.00  0.00    +0.026 A 
ATOM      9  C   UNL     1       3.529  -4.616   6.954  0.00  0.00    +0.044 A 
ATOM     10  C   UNL     1       2.670  -3.614   6.544  0.00  0.00    +0.064 A 
ATOM     11 CL   UNL     1       1.365  -3.115   7.574  0.00  0.00    -0.082 Cl
BRANCH   8  12
ATOM     12  N   UNL     1       5.448  -6.022   6.548  0.00  0.00    -0.358 N 
ATOM     13  H   UNL     1       6.179  -6.298   5.973  0.00  0.00    +0.142 HD
ATOM     14  H   UNL     1       5.322  -6.447   7.411  0.00  0.00    +0.142 HD
ENDBRANCH   8  12
ENDBRANCH   3   5
BRANCH   1  15
ATOM     15  C   UNL     1       0.839  -0.692   3.119  0.00  0.00    +0.077 C 
BRANCH  15  16
ATOM     16  C   UNL     1       0.691  -0.741   1.597  0.00  0.00    -0.070 C 
BRANCH  16  17
ATOM     17  N   UNL     1      -0.152   0.377   1.151  0.00  0.00    +0.380 N 
ATOM     18  C   UNL     1       0.641   1.613   1.136  0.00  0.00    -0.096 C 
ATOM     19  H   UNL     1      -0.930   0.484   1.783  0.00  0.00    -0.082 HD
BRANCH  17  21
ATOM     20  C   UNL     1      -1.849  -0.851  -0.119  0.00  0.00    -0.013 C 
ATOM     21  C   UNL     1      -0.654   0.101  -0.202  0.00  0.00    -0.067 C 
BRANCH  21  22
ATOM     22  C   UNL     1       0.455  -0.543  -1.036  0.00  0.00    -0.050 C 
ATOM     23  C   UNL     1       0.012  -0.623  -2.499  0.00  0.00    +0.009 C 
ATOM     24  C   UNL     1       1.726   0.301  -0.934  0.00  0.00    +0.009 C 
ATOM     25  C   UNL     1       0.735  -1.953  -0.511  0.00  0.00    +0.009 C 
ENDBRANCH  21  22
ENDBRANCH  17  21
ENDBRANCH  16  17
ENDBRANCH  15  16
ENDBRANCH   1  15
TORSDOF 7
