REMARK  Name = ZINC18198159
REMARK  12 active torsions:
REMARK  status: ('A' for Active; 'I' for Inactive)
REMARK    1  A    between atoms: C_1  and  O_2
REMARK    2  A    between atoms: O_2  and  C_3
REMARK    3  A    between atoms: C_6  and  C_11
REMARK    4  A    between atoms: C_7  and  O_9
REMARK    5  A    between atoms: O_9  and  C_10
REMARK    6  A    between atoms: C_16  and  C_21
REMARK    7  A    between atoms: C_23  and  O_31
REMARK    8  A    between atoms: C_24  and  O_29
REMARK    9  A    between atoms: C_25  and  O_27
REMARK   10  A    between atoms: O_27  and  C_28
REMARK   11  A    between atoms: O_29  and  C_30
REMARK   12  A    between atoms: O_31  and  C_32
REMARK                            x       y       z     vdW  Elec       q    Type
REMARK                         _______ _______ _______ _____ _____    ______ ____
ROOT
ATOM      1  C   UNL     1       2.517  -0.253  -2.971  0.00  0.00    +0.179 C 
ATOM      2  C   UNL     1       1.751   0.221  -1.755  0.00  0.00    +0.041 C 
ATOM      3  C   UNL     1       0.737  -0.494  -1.223  0.00  0.00    +0.020 C 
ATOM      4  C   UNL     1       0.002  -0.004   0.002  0.00  0.00    +0.060 C 
ATOM      5  C   UNL     1      -0.019   1.526   0.010  0.00  0.00    +0.032 C 
ATOM      6  C   UNL     1       1.429   2.027  -0.001  0.00  0.00    +0.088 C 
ATOM      7  C   UNL     1       2.137   1.452  -1.195  0.00  0.00    +0.164 C 
ATOM      8  O   UNL     1       3.064   2.064  -1.688  0.00  0.00    -0.292 OA
ATOM      9  N   UNL     1       0.326  -1.686  -1.770  0.00  0.00    -0.287 N 
ATOM     10  C   UNL     1       0.768  -2.006  -3.043  0.00  0.00    +0.218 A 
ATOM     11  N   UNL     1       1.795  -1.337  -3.624  0.00  0.00    -0.221 N 
ATOM     12  N   UNL     1       1.972  -1.901  -4.886  0.00  0.00    -0.156 NA
ATOM     13  C   UNL     1       1.079  -2.853  -5.003  0.00  0.00    +0.247 A 
ATOM     14  N   UNL     1       0.353  -2.914  -3.882  0.00  0.00    -0.201 NA
ATOM     15  H   UNL     1      -0.257  -2.286  -1.279  0.00  0.00    +0.155 HD
ENDROOT
BRANCH   1  19
ATOM     16  C   UNL     1       6.378  -1.641  -1.763  0.00  0.00    +0.124 A 
ATOM     17  C   UNL     1       5.232  -2.248  -1.268  0.00  0.00    +0.046 A 
ATOM     18  C   UNL     1       3.986  -1.794  -1.656  0.00  0.00    +0.013 A 
ATOM     19  C   UNL     1       3.878  -0.742  -2.546  0.00  0.00    +0.023 A 
ATOM     20  C   UNL     1       5.021  -0.132  -3.044  0.00  0.00    +0.129 A 
ATOM     21  C   UNL     1       6.272  -0.583  -2.652  0.00  0.00    +0.091 A 
BRANCH  16  23
ATOM     22  C   UNL     1       7.637  -3.180  -0.460  0.00  0.00    +0.277 C 
ATOM     23  O   UNL     1       7.603  -2.085  -1.377  0.00  0.00    -0.495 OA
ENDBRANCH  16  23
BRANCH  20  24
ATOM     24  O   UNL     1       4.913   0.906  -3.914  0.00  0.00    -0.495 OA
ATOM     25  C   UNL     1       6.131   1.485  -4.386  0.00  0.00    +0.277 C 
ENDBRANCH  20  24
ENDBRANCH   1  19
BRANCH   5  26
ATOM     26  C   UNL     1      -0.717   2.017   1.252  0.00  0.00    -0.036 A 
ATOM     27  C   UNL     1      -0.224   1.681   2.499  0.00  0.00    +0.053 A 
ATOM     28  C   UNL     1      -0.860   2.136   3.644  0.00  0.00    +0.165 A 
ATOM     29  C   UNL     1      -2.002   2.921   3.537  0.00  0.00    +0.204 A 
ATOM     30  C   UNL     1      -2.497   3.253   2.281  0.00  0.00    +0.165 A 
ATOM     31  C   UNL     1      -1.852   2.799   1.141  0.00  0.00    +0.053 A 
BRANCH  30  32
ATOM     32  O   UNL     1      -3.614   4.021   2.171  0.00  0.00    -0.491 OA
ATOM     33  C   UNL     1      -4.067   4.322   0.850  0.00  0.00    +0.277 C 
ENDBRANCH  30  32
BRANCH  29  34
ATOM     34  O   UNL     1      -2.633   3.365   4.658  0.00  0.00    -0.488 OA
ATOM     35  C   UNL     1      -3.656   2.527   5.201  0.00  0.00    +0.277 C 
ENDBRANCH  29  34
BRANCH  28  36
ATOM     36  O   UNL     1      -0.372   1.809   4.870  0.00  0.00    -0.491 OA
ATOM     37  C   UNL     1       0.805   0.998   4.905  0.00  0.00    +0.277 C 
ENDBRANCH  28  36
ENDBRANCH   5  26
TORSDOF 7
