REMARK  Name = ZINC20918543
REMARK  12 active torsions:
REMARK  status: ('A' for Active; 'I' for Inactive)
REMARK    1  A    between atoms: C_1  and  C_2
REMARK    2  A    between atoms: C_5  and  C_41
REMARK    3  A    between atoms: N_8  and  C_10
REMARK    4  A    between atoms: C_10  and  C_11
REMARK    5  A    between atoms: C_11  and  C_12
REMARK    6  A    between atoms: C_12  and  N_13
REMARK    7  A    between atoms: C_14  and  C_16
REMARK    8  A    between atoms: C_16  and  C_40
REMARK    9  A    between atoms: C_21  and  O_38
REMARK   10  A    between atoms: N_29  and  C_30
REMARK   11  A    between atoms: C_30  and  C_31
REMARK   12  A    between atoms: O_38  and  C_39
REMARK                            x       y       z     vdW  Elec       q    Type
REMARK                         _______ _______ _______ _____ _____    ______ ____
ROOT
ATOM      1  C   UNL     1       4.530   0.290  -0.705  0.00  0.00    +0.129 C 
ATOM      2  C   UNL     1       3.167   0.239  -0.017  0.00  0.00    +0.157 C 
ATOM      3  N   UNL     1       2.524   1.552  -0.126  0.00  0.00    -0.334 N 
ATOM      4  C   UNL     1       1.197   1.874  -0.174  0.00  0.00    +0.053 A 
ATOM      5  C   UNL     1       0.027   1.121  -0.164  0.00  0.00    +0.072 A 
ATOM      6  C   UNL     1      -1.200   1.753  -0.226  0.00  0.00    +0.122 A 
ATOM      7  C   UNL     1      -1.279   3.144  -0.288  0.00  0.00    +0.046 A 
ATOM      8  C   UNL     1      -0.145   3.901  -0.300  0.00  0.00    +0.013 A 
ATOM      9  C   UNL     1       1.111   3.282  -0.244  0.00  0.00    +0.001 A 
ATOM     10  C   UNL     1       2.438   3.784  -0.243  0.00  0.00    +0.041 A 
ATOM     11  C   UNL     1       3.272   2.729  -0.188  0.00  0.00    +0.106 A 
ATOM     12  C   UNL     1       4.745   2.680  -0.167  0.00  0.00    +0.264 C 
ATOM     13  O   UNL     1       5.417   3.684  -0.023  0.00  0.00    -0.268 OA
ATOM     14  N   UNL     1       5.310   1.460  -0.316  0.00  0.00    -0.276 N 
ATOM     15  C   UNL     1       5.315  -0.971  -0.339  0.00  0.00    +0.043 C 
ENDROOT
BRANCH   1  17
ATOM     16  N   UNL     1       5.289   0.798  -3.004  0.00  0.00    -0.314 N 
ATOM     17  C   UNL     1       4.322   0.318  -2.197  0.00  0.00    +0.238 C 
ATOM     18  O   UNL     1       3.284  -0.092  -2.673  0.00  0.00    -0.273 OA
ATOM     19  H   UNL     1       6.230   1.170  -2.573  0.00  0.00    +0.149 HD
BRANCH  16  20
ATOM     20  C   UNL     1       5.087   0.826  -4.455  0.00  0.00    +0.102 C 
BRANCH  20  21
ATOM     21  C   UNL     1       6.326   1.413  -5.132  0.00  0.00    +0.000 C 
BRANCH  21  22
ATOM     22  C   UNL     1       6.115   1.442  -6.647  0.00  0.00    -0.077 C 
BRANCH  22  28
ATOM     23  C   UNL     1       8.977   5.410  -7.155  0.00  0.00    +0.005 C 
ATOM     24  C   UNL     1       8.803   3.932  -7.512  0.00  0.00    -0.031 C 
ATOM     25  C   UNL     1       8.789   3.772  -9.034  0.00  0.00    +0.003 C 
ATOM     26  C   UNL     1       8.556   2.299  -9.383  0.00  0.00    -0.031 C 
ATOM     27  C   UNL     1       7.241   1.833  -8.754  0.00  0.00    -0.076 C 
ATOM     28  N   UNL     1       7.305   2.006  -7.297  0.00  0.00    +0.380 N 
ATOM     29  C   UNL     1       7.481   3.419  -6.937  0.00  0.00    -0.076 C 
ATOM     30  C   UNL     1       9.710   1.456  -8.837  0.00  0.00    +0.005 C 
ATOM     31  H   UNL     1       8.185   1.455  -6.932  0.00  0.00    -0.082 HD
ENDBRANCH  22  28
ENDBRANCH  21  22
ENDBRANCH  20  21
ENDBRANCH  16  20
ENDBRANCH   1  17
BRANCH   6  32
ATOM     32  O   UNL     1      -2.339   1.013  -0.222  0.00  0.00    -0.495 OA
ATOM     33  C   UNL     1      -3.576   1.726  -0.289  0.00  0.00    +0.277 C 
ENDBRANCH   6  32
BRANCH  14  34
ATOM     34  C   UNL     1       6.747   1.309  -0.079  0.00  0.00    +0.144 C 
BRANCH  34  35
ATOM     35  C   UNL     1       6.996   1.111   1.394  0.00  0.00    -0.030 A 
ATOM     36  C   UNL     1       7.070   2.207   2.235  0.00  0.00    +0.008 A 
ATOM     37  C   UNL     1       7.292   2.027   3.587  0.00  0.00    +0.038 A 
ATOM     38  C   UNL     1       7.451   0.750   4.098  0.00  0.00    +0.123 A 
ATOM     39  C   UNL     1       7.382  -0.346   3.254  0.00  0.00    +0.038 A 
ATOM     40  C   UNL     1       7.155  -0.164   1.903  0.00  0.00    +0.008 A 
ATOM     41  F   UNL     1       7.674   0.573   5.418  0.00  0.00    -0.205 F 
ENDBRANCH  34  35
ENDBRANCH  14  34
TORSDOF 8
