REMARK  Name = ZINC45723944
REMARK  5 active torsions:
REMARK  status: ('A' for Active; 'I' for Inactive)
REMARK    1  A    between atoms: C_4  and  N_11
REMARK    2  A    between atoms: C_5  and  C_7
REMARK    3  A    between atoms: C_7  and  C_8
REMARK    4  A    between atoms: N_18  and  C_21
REMARK    5  A    between atoms: C_21  and  C_22
REMARK                            x       y       z     vdW  Elec       q    Type
REMARK                         _______ _______ _______ _____ _____    ______ ____
ROOT
ATOM      1  N   UNL     1       3.621  -0.651  -0.046  0.00  0.00    -0.269 N 
ATOM      2  C   UNL     1       4.776   0.037  -0.146  0.00  0.00    +0.306 C 
ATOM      3  O   UNL     1       4.762   1.252  -0.131  0.00  0.00    -0.252 OA
ATOM      4  N   UNL     1       5.945  -0.623  -0.263  0.00  0.00    -0.287 N 
ATOM      5  C   UNL     1       5.923  -2.095  -0.386  0.00  0.00    +0.107 C 
ATOM      6  C   UNL     1       6.940  -2.578  -1.435  0.00  0.00    +0.000 C 
ATOM      7  C   UNL     1       6.930  -1.634  -2.618  0.00  0.00    -0.077 C 
ATOM      8  N   UNL     1       7.964  -0.619  -2.433  0.00  0.00    +0.384 N 
ATOM      9  C   UNL     1       7.554   0.525  -1.712  0.00  0.00    -0.059 C 
ATOM     10  C   UNL     1       7.178   0.137  -0.268  0.00  0.00    +0.091 C 
ATOM     11  H   UNL     1       3.635  -1.620  -0.014  0.00  0.00    +0.156 HD
ATOM     12  H   UNL     1       8.741  -1.040  -1.947  0.00  0.00    -0.081 HD
ENDROOT
BRANCH   1  16
ATOM     13  C   UNL     1      -0.009   1.387   0.123  0.00  0.00    +0.000 A 
ATOM     14  C   UNL     1       1.152   2.010   0.543  0.00  0.00    +0.002 A 
ATOM     15  C   UNL     1       2.357   1.337   0.488  0.00  0.00    +0.023 A 
ATOM     16  C   UNL     1       2.401   0.034   0.011  0.00  0.00    +0.038 A 
ATOM     17  C   UNL     1       1.234  -0.589  -0.409  0.00  0.00    -0.017 A 
ATOM     18  C   UNL     1       0.032   0.089  -0.352  0.00  0.00    +0.006 A 
BRANCH  17  19
ATOM     19  C   UNL     1       1.278  -2.003  -0.928  0.00  0.00    +0.132 C 
BRANCH  19  20
ATOM     20  C   UNL     1       1.202  -2.965   0.230  0.00  0.00    +0.215 C 
ATOM     21  O   UNL     1       1.121  -2.544   1.364  0.00  0.00    -0.276 OA
ATOM     22  N   UNL     1       1.226  -4.294   0.004  0.00  0.00    -0.329 N 
ATOM     23  H   UNL     1       1.290  -4.631  -0.903  0.00  0.00    +0.145 HD
ATOM     24  H   UNL     1       1.177  -4.913   0.749  0.00  0.00    +0.145 HD
ENDBRANCH  19  20
ENDBRANCH  17  19
ENDBRANCH   1  16
BRANCH   8  25
ATOM     25  C   UNL     1       8.432  -0.188  -3.757  0.00  0.00    -0.036 C 
BRANCH  25  26
ATOM     26  C   UNL     1       9.585   0.770  -3.596  0.00  0.00    -0.027 A 
ATOM     27  C   UNL     1      10.913   0.504  -3.534  0.00  0.00    +0.009 A 
ATOM     28  C   UNL     1      11.800   1.554  -3.382  0.00  0.00    +0.008 A 
ATOM     29  C   UNL     1      11.315   2.817  -3.299  0.00  0.00    +0.045 A 
ATOM     30  S   UNL     1       9.556   2.548  -3.444  0.00  0.00    -0.103 S 
ENDBRANCH  25  26
ENDBRANCH   8  25
TORSDOF 5
