REMARK  Name = ZINC02927020
REMARK  10 active torsions:
REMARK  status: ('A' for Active; 'I' for Inactive)
REMARK    1  A    between atoms: C_1  and  C_2
REMARK    2  A    between atoms: C_2  and  C_3
REMARK    3  A    between atoms: C_3  and  C_5
REMARK    4  A    between atoms: C_3  and  S_14
REMARK    5  A    between atoms: N_7  and  C_8
REMARK    6  A    between atoms: C_8  and  C_9
REMARK    7  A    between atoms: S_14  and  C_15
REMARK    8  A    between atoms: C_19  and  C_23
REMARK    9  A    between atoms: N_26  and  C_27
REMARK   10  A    between atoms: C_30  and  C_34
REMARK                            x       y       z     vdW  Elec       q    Type
REMARK                         _______ _______ _______ _____ _____    ______ ____
ROOT
ATOM      1  C   UNL     1       0.526  -0.307  -1.625  0.00  0.00    +0.178 A 
ATOM      2  N   UNL     1       0.818   0.710  -2.398  0.00  0.00    -0.201 NA
ATOM      3  C   UNL     1       1.215   0.554  -3.670  0.00  0.00    +0.187 A 
ATOM      4  C   UNL     1       1.328  -0.735  -4.209  0.00  0.00    +0.082 A 
ATOM      5  C   UNL     1       1.758  -0.598  -5.540  0.00  0.00    +0.046 A 
ATOM      6  N   UNL     1       1.890   0.674  -5.800  0.00  0.00    -0.279 N 
ATOM      7  N   UNL     1       1.569   1.419  -4.659  0.00  0.00    -0.153 NA
ATOM      8  H   UNL     1       2.212   1.001  -6.801  0.00  0.00    +0.189 HD
ATOM      9  C   UNL     1       2.014  -1.727  -6.505  0.00  0.00    +0.066 C 
ATOM     10  C   UNL     1       1.003  -1.880  -3.348  0.00  0.00    +0.124 A 
ATOM     11  N   UNL     1       1.087  -3.111  -3.790  0.00  0.00    -0.384 N 
ATOM     12  N   UNL     1       0.602  -1.606  -2.050  0.00  0.00    -0.275 N 
ATOM     13  H   UNL     1       0.838  -3.952  -3.126  0.00  0.00    +0.157 HD
ATOM     14  H   UNL     1       1.407  -3.303  -4.825  0.00  0.00    +0.157 HD
ENDROOT
BRANCH  12  15
ATOM     15  C   UNL     1       0.278  -2.652  -1.177  0.00  0.00    +0.052 A 
ATOM     16  C   UNL     1       1.254  -3.559  -0.785  0.00  0.00    +0.026 A 
ATOM     17  C   UNL     1       0.933  -4.587   0.080  0.00  0.00    +0.007 A 
ATOM     18  C   UNL     1      -0.361  -4.721   0.548  0.00  0.00    -0.032 A 
ATOM     19  C   UNL     1      -1.338  -3.822   0.155  0.00  0.00    +0.046 A 
ATOM     20  C   UNL     1      -1.021  -2.788  -0.707  0.00  0.00    +0.046 A 
ATOM     21 CL   UNL     1      -2.962  -3.994   0.743  0.00  0.00    -0.083 Cl
ATOM     22  C   UNL     1      -0.709  -5.847   1.486  0.00  0.00    +0.045 C 
ENDBRANCH  12  15
BRANCH   1  23
ATOM     23  S   UNL     1       0.014   0.011   0.031  0.00  0.00    -0.075 S 
BRANCH  23  24
ATOM     24  C   UNL     1      -0.064   1.819  -0.006  0.00  0.00    +0.140 C 
BRANCH  24  25
ATOM     25  C   UNL     1      -1.189   2.255  -0.908  0.00  0.00    +0.227 C 
ATOM     26  O   UNL     1      -2.129   1.515  -1.107  0.00  0.00    -0.275 OA
ATOM     27  N   UNL     1      -1.151   3.468  -1.495  0.00  0.00    -0.307 N 
ATOM     28  H   UNL     1      -0.299   4.140  -1.315  0.00  0.00    +0.149 HD
BRANCH  27  29
ATOM     29  C   UNL     1      -2.245   3.893  -2.372  0.00  0.00    +0.178 C 
BRANCH  29  30
ATOM     30  C   UNL     1      -1.962   5.277  -2.895  0.00  0.00    +0.122 A 
ATOM     31  C   UNL     1      -1.293   5.569  -4.025  0.00  0.00    +0.046 A 
ATOM     32  C   UNL     1      -1.260   6.979  -4.129  0.00  0.00    +0.041 A 
ATOM     33  C   UNL     1      -1.911   7.464  -3.056  0.00  0.00    +0.195 A 
ATOM     34  O   UNL     1      -2.338   6.428  -2.315  0.00  0.00    -0.466 OA
ENDBRANCH  29  30
ENDBRANCH  27  29
ENDBRANCH  24  25
BRANCH  24  36
ATOM     35  C   UNL     1       0.903   2.034   2.288  0.00  0.00    +0.005 C 
ATOM     36  C   UNL     1      -0.309   2.348   1.408  0.00  0.00    +0.020 C 
ENDBRANCH  24  36
ENDBRANCH  23  24
ENDBRANCH   1  23
TORSDOF 7
