REMARK  Name = ZINC67127923
REMARK  11 active torsions:
REMARK  status: ('A' for Active; 'I' for Inactive)
REMARK    1  A    between atoms: C_1  and  C_2
REMARK    2  A    between atoms: C_2  and  C_4
REMARK    3  A    between atoms: C_2  and  N_13
REMARK    4  A    between atoms: C_7  and  C_10
REMARK    5  A    between atoms: C_10  and  C_11
REMARK    6  A    between atoms: C_10  and  C_12
REMARK    7  A    between atoms: N_13  and  C_14
REMARK    8  A    between atoms: C_14  and  C_15
REMARK    9  A    between atoms: N_17  and  C_18
REMARK   10  A    between atoms: C_21  and  C_24
REMARK   11  A    between atoms: N_26  and  C_27
REMARK                            x       y       z     vdW  Elec       q    Type
REMARK                         _______ _______ _______ _____ _____    ______ ____
ROOT
ATOM      1  C   UNL     1      -2.024  -0.145   1.279  0.00  0.00    +0.016 C 
ENDROOT
BRANCH   1   2
ATOM      2  C   UNL     1      -3.441  -0.659   1.286  0.00  0.00    +0.200 C 
ATOM      3  O   UNL     1      -3.868  -1.272   0.331  0.00  0.00    -0.278 OA
ATOM      4  N   UNL     1      -4.233  -0.437   2.353  0.00  0.00    -0.287 N 
ATOM      5  H   UNL     1      -3.872  -0.006   3.144  0.00  0.00    +0.155 HD
BRANCH   4   6
ATOM      6  C   UNL     1      -5.571  -0.828   2.322  0.00  0.00    +0.033 A 
ATOM      7  C   UNL     1      -5.939  -1.992   1.654  0.00  0.00    +0.024 A 
ATOM      8  C   UNL     1      -7.259  -2.381   1.621  0.00  0.00    +0.015 A 
ATOM      9  C   UNL     1      -8.230  -1.605   2.259  0.00  0.00    +0.037 A 
ATOM     10  C   UNL     1      -7.857  -0.436   2.929  0.00  0.00    +0.015 A 
ATOM     11  C   UNL     1      -6.535  -0.056   2.963  0.00  0.00    +0.024 A 
BRANCH   9  12
ATOM     12  C   UNL     1      -9.647  -2.018   2.225  0.00  0.00    +0.244 C 
ATOM     13  O   UNL     1      -9.970  -3.034   1.641  0.00  0.00    -0.270 OA
ATOM     14  N   UNL     1     -10.582  -1.268   2.841  0.00  0.00    -0.314 N 
ATOM     15  C   UNL     1     -11.988  -1.679   2.807  0.00  0.00    +0.128 C 
ATOM     16  H   UNL     1     -10.325  -0.458   3.307  0.00  0.00    +0.149 HD
ENDBRANCH   9  12
ENDBRANCH   4   6
ENDBRANCH   1   2
BRANCH   1  17
ATOM     17  N   UNL     1      -1.375  -0.514   0.014  0.00  0.00    +0.389 N 
ATOM     18  H   UNL     1      -1.884  -0.107  -0.756  0.00  0.00    -0.084 HD
ATOM     19  H   UNL     1      -1.369  -1.518  -0.081  0.00  0.00    -0.084 HD
BRANCH  17  21
ATOM     20  C   UNL     1      -0.007   1.517   0.025  0.00  0.00    -0.009 C 
ATOM     21  C   UNL     1       0.006  -0.013   0.007  0.00  0.00    -0.043 C 
BRANCH  21  22
ATOM     22  C   UNL     1       0.709  -0.495  -1.235  0.00  0.00    -0.062 A 
ATOM     23  C   UNL     1       0.040  -0.516  -2.445  0.00  0.00    +0.002 A 
ATOM     24  C   UNL     1       0.685  -0.958  -3.584  0.00  0.00    +0.004 A 
ATOM     25  C   UNL     1       2.000  -1.380  -3.515  0.00  0.00    -0.045 A 
ATOM     26  C   UNL     1       2.669  -1.358  -2.306  0.00  0.00    +0.004 A 
ATOM     27  C   UNL     1       2.026  -0.912  -1.167  0.00  0.00    +0.002 A 
BRANCH  25  28
ATOM     28  C   UNL     1       2.703  -1.863  -4.757  0.00  0.00    +0.013 C 
ATOM     29  C   UNL     1       3.925  -0.982  -5.027  0.00  0.00    +0.012 C 
ATOM     30  C   UNL     1       3.153  -3.312  -4.557  0.00  0.00    +0.012 C 
ENDBRANCH  25  28
ENDBRANCH  21  22
ENDBRANCH  17  21
ENDBRANCH   1  17
TORSDOF 7
