REMARK  Name = ZINC20438617
REMARK  12 active torsions:
REMARK  status: ('A' for Active; 'I' for Inactive)
REMARK    1  A    between atoms: C_1  and  C_2
REMARK    2  A    between atoms: C_5  and  C_8
REMARK    3  A    between atoms: N_10  and  C_11
REMARK    4  A    between atoms: C_11  and  C_28
REMARK    5  A    between atoms: C_12  and  C_13
REMARK    6  A    between atoms: N_15  and  S_22
REMARK    7  A    between atoms: S_22  and  N_25
REMARK    8  A    between atoms: N_25  and  C_26
REMARK    9  A    between atoms: N_25  and  C_27
REMARK   10  A    between atoms: N_30  and  CA_31
REMARK   11  A    between atoms: CA_31  and  C_32
REMARK   12  A    between atoms: C_32  and  O_33
REMARK                            x       y       z     vdW  Elec       q    Type
REMARK                         _______ _______ _______ _____ _____    ______ ____
ROOT
ATOM      1  C   UNK A   1      -0.970   1.593   0.177  0.00  0.00    +0.097 C 
ATOM      2  C   UNK A   1       0.115   0.867  -0.194  0.00  0.00    +0.038 C 
ENDROOT
BRANCH   2   3
ATOM      3  C   UNK A   1       1.371   1.544  -0.524  0.00  0.00    +0.004 A 
ATOM      4  C   UNK A   1       1.536   2.869  -0.807  0.00  0.00    +0.122 A 
ATOM      5  N   UNK A   1       2.846   3.124  -1.064  0.00  0.00    -0.208 N 
ATOM      6  C   UNK A   1       3.590   1.966  -0.957  0.00  0.00    +0.074 A 
ATOM      7  C   UNK A   1       2.709   0.929  -0.610  0.00  0.00    +0.009 A 
ATOM      8  C   UNK A   1       3.190  -0.367  -0.442  0.00  0.00    +0.010 A 
ATOM      9  C   UNK A   1       4.534  -0.623  -0.605  0.00  0.00    +0.001 A 
ATOM     10  C   UNK A   1       5.406   0.402  -0.942  0.00  0.00    +0.002 A 
ATOM     11  C   UNK A   1       4.943   1.688  -1.117  0.00  0.00    +0.028 A 
BRANCH   5  12
ATOM     12  S   UNK A   1       3.462   4.612  -1.449  0.00  0.00    +0.123 S 
ATOM     13  O   UNK A   1       4.276   4.429  -2.599  0.00  0.00    -0.136 OA
ATOM     14  O   UNK A   1       2.371   5.522  -1.424  0.00  0.00    -0.136 OA
BRANCH  12  15
ATOM     15  N   UNK A   1       4.476   5.055  -0.217  0.00  0.00    -0.168 NA
ATOM     16  C   UNK A   1       5.895   4.694  -0.270  0.00  0.00    +0.133 C 
ATOM     17  C   UNK A   1       3.955   5.808   0.926  0.00  0.00    +0.133 C 
ENDBRANCH  12  15
ENDBRANCH   5  12
ENDBRANCH   2   3
BRANCH   1  20
ATOM     18  C   UNK A   0      -1.607   3.829  -0.339  0.00  0.00    +0.248 C 
ATOM     19  O   UNK A   0      -2.455   3.400  -1.097  0.00  0.00    -0.270 OA
ATOM     20  N   UNK A   1      -0.852   2.976   0.381  0.00  0.00    -0.277 N 
ATOM     21  H   UNK A   1      -0.144   3.364   1.128  0.00  0.00    +0.155 HD
BRANCH  18  26
ATOM     22  C   UNK A   0      -0.817   9.506   0.179  0.00  0.00    +0.044 C 
ATOM     23  C   UNK A   0      -1.024   8.019   0.043  0.00  0.00    -0.050 A 
ATOM     24  C   UNK A   0      -1.990   7.534  -0.821  0.00  0.00    +0.004 A 
ATOM     25  C   UNK A   0      -2.184   6.175  -0.950  0.00  0.00    +0.013 A 
ATOM     26  C   UNK A   0      -1.404   5.288  -0.206  0.00  0.00    +0.037 A 
ATOM     27  C   UNK A   0      -0.435   5.784   0.668  0.00  0.00    +0.013 A 
ATOM     28  C   UNK A   0      -0.247   7.146   0.784  0.00  0.00    +0.004 A 
ENDBRANCH  18  26
ENDBRANCH   1  20
BRANCH   1  29
ATOM     29  C   UNK A   1      -2.263   0.933   0.366  0.00  0.00    +0.258 C 
ATOM     30  O   UNK A   1      -3.212   1.565   0.794  0.00  0.00    -0.269 OA
ATOM     31  N   GLY A   2      -2.403  -0.373   0.065  0.00  0.00    -0.308 N 
ATOM     32  H   GLY A   2      -1.546  -0.943  -0.322  0.00  0.00    +0.149 HD
BRANCH  31  33
ATOM     33  CA  GLY A   2      -3.697  -1.033   0.254  0.00  0.00    +0.132 C 
BRANCH  33  34
ATOM     34  C   GLY A   2      -3.585  -2.502  -0.159  0.00  0.00    +0.174 C 
BRANCH  34  35
ATOM     35  O   GLY A   2      -2.684  -3.177   0.721  0.00  0.00    -0.393 OA
ATOM     36  H   GLY A   2      -2.476  -4.248   0.580  0.00  0.00    +0.209 HD
ENDBRANCH  34  35
ENDBRANCH  33  34
ENDBRANCH  31  33
ENDBRANCH   1  29
TORSDOF 9
