REMARK  Name = ZINC63795181
REMARK  7 active torsions:
REMARK  status: ('A' for Active; 'I' for Inactive)
REMARK    1  A    between atoms: C_1  and  O_2
REMARK    2  A    between atoms: O_2  and  C_3
REMARK    3  A    between atoms: C_3  and  C_4
REMARK    4  A    between atoms: C_9  and  C_11
REMARK    5  A    between atoms: C_11  and  C_12
REMARK    6  A    between atoms: C_12  and  C_18
REMARK    7  A    between atoms: C_18  and  N_19
REMARK                            x       y       z     vdW  Elec       q    Type
REMARK                         _______ _______ _______ _____ _____    ______ ____
ROOT
ATOM      1  C   UNL     1      -0.445  -9.637  -0.818  0.00  0.00    -0.007 C 
ATOM      2  C   UNL     1      -0.707  -9.843  -2.312  0.00  0.00    +0.009 C 
ATOM      3  C   UNL     1      -2.011 -10.621  -2.498  0.00  0.00    +0.001 C 
ATOM      4  C   UNL     1      -1.897 -11.982  -1.808  0.00  0.00    +0.000 C 
ATOM      5  C   UNL     1      -1.635 -11.776  -0.314  0.00  0.00    +0.001 C 
ATOM      6  C   UNL     1      -0.330 -10.998  -0.128  0.00  0.00    +0.009 C 
ENDROOT
BRANCH   1   7
ATOM      7  C   UNL     1       0.860  -8.860  -0.632  0.00  0.00    +0.104 C 
BRANCH   7  13
ATOM      8  C   UNL     1       1.720  -2.947  -2.738  0.00  0.00    +0.129 A 
ATOM      9  N   UNL     1       0.659  -3.698  -2.956  0.00  0.00    -0.142 NA
ATOM     10  N   UNL     1       0.621  -4.865  -2.473  0.00  0.00    -0.126 NA
ATOM     11  C   UNL     1       1.613  -5.355  -1.757  0.00  0.00    +0.188 A 
ATOM     12  N   UNL     1       1.730  -6.605  -1.159  0.00  0.00    -0.263 N 
ATOM     13  C   UNL     1       0.733  -7.505  -1.280  0.00  0.00    +0.219 C 
ATOM     14  O   UNL     1      -0.265  -7.224  -1.909  0.00  0.00    -0.275 OA
ATOM     15  S   UNL     1       2.708  -4.072  -1.761  0.00  0.00    -0.033 S 
ATOM     16  H   UNL     1       2.528  -6.830  -0.656  0.00  0.00    +0.157 HD
BRANCH   8  17
ATOM     17  C   UNL     1       2.020  -1.542  -3.190  0.00  0.00    +0.224 C 
BRANCH  17  19
ATOM     18  C   UNL     1       1.786   0.754  -2.542  0.00  0.00    +0.194 C 
ATOM     19  O   UNL     1       1.550  -0.615  -2.209  0.00  0.00    -0.376 OA
ENDBRANCH  17  19
ENDBRANCH   8  17
ENDBRANCH   7  13
ENDBRANCH   1   7
BRANCH   1  20
ATOM     20  C   UNL     1      -1.601  -8.848  -0.201  0.00  0.00    +0.109 C 
BRANCH  20  21
ATOM     21  N   UNL     1      -1.424  -8.779   1.255  0.00  0.00    -0.242 NA
ATOM     22  C   UNL     1      -2.659  -8.298   1.918  0.00  0.00    +0.168 C 
ATOM     23  N   UNL     1      -2.159  -7.463   3.042  0.00  0.00    -0.335 NA
ATOM     24  N   UNL     1      -0.977  -6.808   2.461  0.00  0.00    +0.408 N 
ATOM     25  N   UNL     1      -0.367  -7.833   1.610  0.00  0.00    -0.281 NA
ATOM     26  H   UNL     1      -2.849  -6.781   3.321  0.00  0.00    +0.105 HD
ATOM     27  H   UNL     1      -1.253  -6.011   1.908  0.00  0.00    -0.032 HD
ATOM     28  H   UNL     1       0.041  -7.421   0.784  0.00  0.00    +0.121 HD
ATOM     29  H   UNL     1      -0.336  -6.529   3.189  0.00  0.00    -0.032 HD
ENDBRANCH  20  21
ENDBRANCH   1  20
TORSDOF 6
