REMARK  Name = ZINC40356643
REMARK  7 active torsions:
REMARK  status: ('A' for Active; 'I' for Inactive)
REMARK    1  A    between atoms: C_1  and  C_2
REMARK    2  A    between atoms: C_2  and  C_3
REMARK    3  A    between atoms: C_3  and  C_5
REMARK    4  A    between atoms: C_3  and  N_23
REMARK    5  A    between atoms: N_15  and  C_16
REMARK    6  A    between atoms: C_16  and  C_17
REMARK    7  A    between atoms: N_31  and  C_32
REMARK                            x       y       z     vdW  Elec       q    Type
REMARK                         _______ _______ _______ _____ _____    ______ ____
ROOT
ATOM      1  C   UNL     1      -0.895   0.045  -0.940  0.00  0.00    -0.001 C 
ENDROOT
BRANCH   1   2
ATOM      2  C   UNL     1      -1.320  -1.396  -1.064  0.00  0.00    +0.100 A 
ATOM      3  N   UNL     1      -1.673  -2.029   0.013  0.00  0.00    -0.235 NA
ATOM      4  C   UNL     1      -2.067  -3.326  -0.021  0.00  0.00    +0.078 A 
ATOM      5  C   UNL     1      -2.449  -4.007   1.137  0.00  0.00    +0.028 A 
ATOM      6  C   UNL     1      -2.842  -5.324   1.055  0.00  0.00    +0.002 A 
ATOM      7  C   UNL     1      -2.865  -5.985  -0.166  0.00  0.00    +0.001 A 
ATOM      8  C   UNL     1      -2.494  -5.335  -1.322  0.00  0.00    +0.015 A 
ATOM      9  C   UNL     1      -2.092  -4.002  -1.261  0.00  0.00    +0.065 A 
ATOM     10  C   UNL     1      -1.686  -3.256  -2.462  0.00  0.00    +0.262 A 
ATOM     11  O   UNL     1      -1.684  -3.780  -3.561  0.00  0.00    -0.267 OA
ATOM     12  N   UNL     1      -1.318  -1.964  -2.298  0.00  0.00    -0.293 N 
BRANCH  12  13
ATOM     13  C   UNL     1      -0.909  -1.173  -3.461  0.00  0.00    +0.161 C 
BRANCH  13  14
ATOM     14  C   UNL     1      -2.131  -0.599  -4.132  0.00  0.00    -0.028 A 
ATOM     15  C   UNL     1      -2.806  -1.338  -5.085  0.00  0.00    +0.005 A 
ATOM     16  C   UNL     1      -3.926  -0.812  -5.702  0.00  0.00    +0.000 A 
ATOM     17  C   UNL     1      -4.371   0.452  -5.364  0.00  0.00    +0.000 A 
ATOM     18  C   UNL     1      -3.696   1.191  -4.411  0.00  0.00    +0.000 A 
ATOM     19  C   UNL     1      -2.578   0.663  -3.791  0.00  0.00    +0.005 A 
ENDBRANCH  13  14
ENDBRANCH  12  13
ENDBRANCH   1   2
BRANCH   1  20
ATOM     20  N   UNL     1      -1.684   0.699   0.112  0.00  0.00    +0.388 N 
ATOM     21  C   UNL     1      -3.107   0.658  -0.249  0.00  0.00    -0.058 C 
ATOM     22  C   UNL     1      -3.941   1.237   0.899  0.00  0.00    +0.091 C 
ATOM     23  N   UNL     1      -3.433   2.581   1.213  0.00  0.00    -0.289 N 
ATOM     24  C   UNL     1      -1.987   2.743   1.429  0.00  0.00    +0.091 C 
ATOM     25  C   UNL     1      -1.245   2.093   0.256  0.00  0.00    -0.058 C 
ATOM     26  C   UNL     1      -4.268   3.635   1.299  0.00  0.00    +0.306 C 
ATOM     27  O   UNL     1      -5.469   3.468   1.210  0.00  0.00    -0.252 OA
ATOM     28  N   UNL     1      -3.773   4.875   1.486  0.00  0.00    -0.267 N 
ATOM     29  H   UNL     1      -2.814   5.020   1.476  0.00  0.00    +0.156 HD
ATOM     30  H   UNL     1      -1.547   0.213   0.986  0.00  0.00    -0.081 HD
BRANCH  28  31
ATOM     31  C   UNL     1      -4.642   5.953   1.693  0.00  0.00    +0.070 A 
ATOM     32  C   UNL     1      -5.945   5.725   2.115  0.00  0.00    +0.026 A 
ATOM     33  C   UNL     1      -6.800   6.790   2.319  0.00  0.00    +0.002 A 
ATOM     34  C   UNL     1      -6.362   8.084   2.104  0.00  0.00    +0.003 A 
ATOM     35  C   UNL     1      -5.065   8.316   1.684  0.00  0.00    +0.040 A 
ATOM     36  C   UNL     1      -4.201   7.255   1.483  0.00  0.00    +0.145 A 
ATOM     37  F   UNL     1      -2.933   7.482   1.078  0.00  0.00    -0.204 F 
ENDBRANCH  28  31
ENDBRANCH   1  20
BRANCH   1  39
ATOM     38  C   UNL     1       0.820  -0.594   0.762  0.00  0.00    +0.002 C 
ATOM     39  C   UNL     1       0.590   0.109  -0.577  0.00  0.00    -0.011 C 
ENDBRANCH   1  39
TORSDOF 6
