REMARK  Name = ZINC30879661
REMARK  11 active torsions:
REMARK  status: ('A' for Active; 'I' for Inactive)
REMARK    1  A    between atoms: C_1  and  N_2
REMARK    2  A    between atoms: N_2  and  C_3
REMARK    3  A    between atoms: N_2  and  C_10
REMARK    4  A    between atoms: C_3  and  C_4
REMARK    5  A    between atoms: C_12  and  C_22
REMARK    6  A    between atoms: C_15  and  C_20
REMARK    7  A    between atoms: C_17  and  O_19
REMARK    8  A    between atoms: C_20  and  O_21
REMARK    9  A    between atoms: C_22  and  N_23
REMARK   10  A    between atoms: C_24  and  C_26
REMARK   11  A    between atoms: C_29  and  C_32
REMARK                            x       y       z     vdW  Elec       q    Type
REMARK                         _______ _______ _______ _____ _____    ______ ____
ROOT
ATOM      1  C   UNL     1       1.427   3.748   0.294  0.00  0.00    -0.006 C 
ATOM      2  C   UNL     1       1.593   2.263   0.669  0.00  0.00    +0.125 C 
ATOM      3  O   UNL     1       2.478   1.671  -0.297  0.00  0.00    -0.369 OA
ATOM      4  C   UNL     1       3.319   2.731  -0.802  0.00  0.00    +0.171 C 
ATOM      5  C   UNL     1       2.345   3.929  -0.943  0.00  0.00    +0.134 C 
ENDROOT
BRANCH   1   7
ATOM      6  C   UNL     1      -0.063   5.220  -0.922  0.00  0.00    -0.095 C 
ATOM      7  N   UNL     1       0.029   4.037  -0.056  0.00  0.00    +0.386 N 
ATOM      8  H   UNL     1      -0.364   3.176  -0.617  0.00  0.00    -0.081 HD
BRANCH   7   9
ATOM      9  C   UNL     1      -0.792   4.202   1.151  0.00  0.00    -0.043 C 
BRANCH   9  10
ATOM     10  C   UNL     1      -2.248   4.251   0.764  0.00  0.00    -0.064 A 
ATOM     11  C   UNL     1      -2.846   5.463   0.478  0.00  0.00    +0.002 A 
ATOM     12  C   UNL     1      -4.181   5.508   0.119  0.00  0.00    +0.000 A 
ATOM     13  C   UNL     1      -4.919   4.341   0.056  0.00  0.00    +0.000 A 
ATOM     14  C   UNL     1      -4.322   3.129   0.348  0.00  0.00    +0.000 A 
ATOM     15  C   UNL     1      -2.986   3.084   0.702  0.00  0.00    +0.002 A 
ENDBRANCH   9  10
ENDBRANCH   7   9
ENDBRANCH   1   7
BRANCH   5  16
ATOM     16  O   UNL     1       1.595   3.836  -2.156  0.00  0.00    -0.391 OA
ATOM     17  H   UNL     1       2.103   3.943  -3.126  0.00  0.00    +0.210 HD
ENDBRANCH   5  16
BRANCH   4  18
ATOM     18  C   UNL     1       3.905   2.350  -2.163  0.00  0.00    +0.190 C 
BRANCH  18  19
ATOM     19  O   UNL     1       4.807   1.253  -2.003  0.00  0.00    -0.392 OA
ATOM     20  H   UNL     1       5.329   0.838  -2.878  0.00  0.00    +0.210 HD
ENDBRANCH  18  19
ENDBRANCH   4  18
BRANCH   2  21
ATOM     21  C   UNL     1       0.234   1.560   0.628  0.00  0.00    +0.134 C 
BRANCH  21  22
ATOM     22  N   UNL     1       0.423   0.119   0.813  0.00  0.00    -0.309 N 
ATOM     23  C   UNL     1      -0.642  -0.706   0.813  0.00  0.00    +0.244 C 
ATOM     24  O   UNL     1      -1.760  -0.254   0.659  0.00  0.00    -0.270 OA
ATOM     25  H   UNL     1       1.435  -0.289   0.953  0.00  0.00    +0.149 HD
BRANCH  23  26
ATOM     26  C   UNL     1      -0.452  -2.160   1.000  0.00  0.00    +0.037 A 
ATOM     27  C   UNL     1       0.832  -2.682   1.172  0.00  0.00    +0.013 A 
ATOM     28  C   UNL     1       1.002  -4.039   1.351  0.00  0.00    +0.013 A 
ATOM     29  C   UNL     1      -0.094  -4.883   1.351  0.00  0.00    +0.055 A 
ATOM     30  C   UNL     1      -1.368  -4.373   1.175  0.00  0.00    +0.013 A 
ATOM     31  C   UNL     1      -1.553  -3.017   1.001  0.00  0.00    +0.013 A 
BRANCH  29  32
ATOM     32  C   UNL     1       0.101  -6.365   1.542  0.00  0.00    +0.417 C 
ATOM     33  F   UNL     1       0.279  -6.977   0.296  0.00  0.00    -0.166 F 
ATOM     34  F   UNL     1       1.230  -6.589   2.337  0.00  0.00    -0.166 F 
ATOM     35  F   UNL     1      -1.026  -6.906   2.170  0.00  0.00    -0.166 F 
ENDBRANCH  29  32
ENDBRANCH  23  26
ENDBRANCH  21  22
ENDBRANCH   2  21
TORSDOF 10
