REMARK  Name = ZINC63362164
REMARK  11 active torsions:
REMARK  status: ('A' for Active; 'I' for Inactive)
REMARK    1  A    between atoms: C_1  and  C_2
REMARK    2  A    between atoms: C_2  and  C_4
REMARK    3  A    between atoms: C_2  and  N_10
REMARK    4  A    between atoms: C_4  and  C_5
REMARK    5  A    between atoms: C_5  and  C_6
REMARK    6  A    between atoms: C_6  and  C_7
REMARK    7  A    between atoms: C_7  and  C_8
REMARK    8  A    between atoms: C_7  and  C_9
REMARK    9  A    between atoms: C_11  and  C_13
REMARK   10  A    between atoms: C_17  and  N_19
REMARK   11  A    between atoms: C_22  and  C_38
REMARK                            x       y       z     vdW  Elec       q    Type
REMARK                         _______ _______ _______ _____ _____    ______ ____
ROOT
ATOM      1  N   UNL     1       6.220  -1.770   3.481  0.00  0.00    -0.192 N 
ATOM      2  C   UNL     1       6.994  -1.542   2.400  0.00  0.00    +0.253 C 
ATOM      3  O   UNL     1       6.623  -1.241   1.285  0.00  0.00    -0.272 OA
ATOM      4  C   UNL     1       8.420  -1.738   2.865  0.00  0.00    +0.137 C 
ATOM      5  C   UNL     1       9.072  -2.892   2.094  0.00  0.00    +0.139 C 
ATOM      6  C   UNL     1      10.235  -3.380   2.949  0.00  0.00    -0.034 C 
ATOM      7  C   UNL     1      11.324  -3.278   2.192  0.00  0.00    -0.001 A 
ATOM      8  C   UNL     1      12.726  -3.650   2.443  0.00  0.00    +0.010 A 
ATOM      9  C   UNL     1      13.602  -3.394   1.436  0.00  0.00    +0.001 A 
ATOM     10  C   UNL     1      13.229  -2.812   0.220  0.00  0.00    +0.002 A 
ATOM     11  C   UNL     1      11.962  -2.443  -0.097  0.00  0.00    +0.026 A 
ATOM     12  C   UNL     1      10.949  -2.666   0.882  0.00  0.00    +0.043 A 
ATOM     13  N   UNL     1       9.660  -2.427   0.835  0.00  0.00    -0.375 N 
ATOM     14  C   UNL     1      10.082  -3.808   4.388  0.00  0.00    +0.052 C 
ATOM     15  C   UNL     1       9.346  -2.671   5.125  0.00  0.00    +0.115 C 
ATOM     16  N   UNL     1       8.258  -2.196   4.264  0.00  0.00    -0.268 N 
ATOM     17  C   UNL     1       6.953  -2.112   4.549  0.00  0.00    +0.316 C 
ATOM     18  O   UNL     1       6.485  -2.324   5.651  0.00  0.00    -0.252 OA
ATOM     19  C   UNL     1       9.234  -0.446   2.775  0.00  0.00    +0.044 C 
ATOM     20  H   UNL     1       9.177  -2.013   0.102  0.00  0.00    +0.160 HD
ENDROOT
BRANCH   1  25
ATOM     21  C   UNL     1       2.771  -1.067   2.380  0.00  0.00    +0.038 A 
ATOM     22  C   UNL     1       2.055  -1.444   3.518  0.00  0.00    +0.013 A 
ATOM     23  C   UNL     1       2.723  -1.923   4.626  0.00  0.00    +0.003 A 
ATOM     24  C   UNL     1       4.101  -2.031   4.614  0.00  0.00    +0.024 A 
ATOM     25  C   UNL     1       4.823  -1.659   3.487  0.00  0.00    +0.046 A 
ATOM     26  C   UNL     1       4.161  -1.182   2.367  0.00  0.00    +0.037 A 
BRANCH  21  28
ATOM     27  N   UNL     1       0.714  -0.443   1.206  0.00  0.00    -0.309 N 
ATOM     28  C   UNL     1       2.058  -0.554   1.191  0.00  0.00    +0.244 C 
ATOM     29  O   UNL     1       2.683  -0.231   0.200  0.00  0.00    -0.270 OA
ATOM     30  H   UNL     1       0.216  -0.701   1.997  0.00  0.00    +0.149 HD
BRANCH  27  32
ATOM     31  C   UNL     1      -0.013   1.595   0.067  0.00  0.00    +0.028 C 
ATOM     32  C   UNL     1       0.008   0.066   0.028  0.00  0.00    +0.070 C 
BRANCH  32  33
ATOM     33  C   UNL     1      -1.428  -0.464   0.026  0.00  0.00    +0.022 C 
BRANCH  33  34
ATOM     34  C   UNL     1      -1.410  -1.985  -0.138  0.00  0.00    +0.002 C 
BRANCH  34  35
ATOM     35  C   UNL     1      -2.845  -2.514  -0.140  0.00  0.00    +0.003 C 
BRANCH  35  36
ATOM     36  C   UNL     1      -2.828  -4.036  -0.305  0.00  0.00    -0.017 C 
ATOM     37  C   UNL     1      -4.253  -4.579  -0.182  0.00  0.00    +0.007 C 
ATOM     38  C   UNL     1      -2.262  -4.393  -1.681  0.00  0.00    +0.007 C 
ENDBRANCH  35  36
ENDBRANCH  34  35
ENDBRANCH  33  34
ENDBRANCH  32  33
ENDBRANCH  27  32
ENDBRANCH  21  28
ENDBRANCH   1  25
TORSDOF 7
