REMARK  Name = ZINC39561095
REMARK  7 active torsions:
REMARK  status: ('A' for Active; 'I' for Inactive)
REMARK    1  A    between atoms: C_1  and  C_2
REMARK    2  A    between atoms: C_9  and  C_16
REMARK    3  A    between atoms: C_11  and  O_12
REMARK    4  A    between atoms: C_16  and  O_17
REMARK    5  A    between atoms: O_17  and  C_18
REMARK    6  A    between atoms: C_18  and  C_20
REMARK    7  A    between atoms: C_22  and  N_28
REMARK                            x       y       z     vdW  Elec       q    Type
REMARK                         _______ _______ _______ _____ _____    ______ ____
ROOT
ATOM      1  C   UNL     1       0.817   1.442   0.172  0.00  0.00    +0.109 C 
ATOM      2  C   UNL     1       0.898  -0.059   0.059  0.00  0.00    +0.214 C 
ATOM      3  O   UNL     1       1.189  -0.728   1.034  0.00  0.00    -0.276 OA
ATOM      4  N   UNL     1       0.654  -0.647  -1.096  0.00  0.00    -0.286 N 
ATOM      5  C   UNL     1       0.599  -2.005  -1.169  0.00  0.00    +0.037 A 
ATOM      6  C   UNL     1       0.703  -2.643  -2.418  0.00  0.00    +0.024 A 
ATOM      7  C   UNL     1       0.649  -3.998  -2.505  0.00  0.00    +0.014 A 
ATOM      8  C   UNL     1       0.490  -4.770  -1.340  0.00  0.00    +0.024 A 
ATOM      9  C   UNL     1       0.433  -6.178  -1.409  0.00  0.00    +0.007 A 
ATOM     10  C   UNL     1       0.277  -6.889  -0.236  0.00  0.00    +0.095 A 
ATOM     11  C   UNL     1       0.179  -6.216   0.974  0.00  0.00    +0.285 A 
ATOM     12  O   UNL     1       0.233  -4.882   1.034  0.00  0.00    -0.425 OA
ATOM     13  C   UNL     1       0.385  -4.138  -0.081  0.00  0.00    +0.141 A 
ATOM     14  C   UNL     1       0.446  -2.758  -0.004  0.00  0.00    +0.070 A 
ATOM     15  H   UNL     1       0.514  -0.112  -1.893  0.00  0.00    +0.155 HD
ENDROOT
BRANCH  11  16
ATOM     16  O   UNL     1       0.026  -6.923   2.110  0.00  0.00    -0.480 OA
ATOM     17  H   UNL     1      -0.034  -6.378   2.907  0.00  0.00    +0.295 HD
ENDBRANCH  11  16
BRANCH   9  18
ATOM     18  C   UNL     1       0.541  -6.889  -2.733  0.00  0.00    +0.269 C 
BRANCH  18  19
ATOM     19  O   UNL     1      -0.614  -7.708  -2.929  0.00  0.00    -0.455 OA
BRANCH  19  20
ATOM     20  C   UNL     1      -0.674  -8.416  -4.073  0.00  0.00    +0.360 C 
ATOM     21  O   UNL     1       0.229  -8.341  -4.882  0.00  0.00    -0.243 OA
BRANCH  20  22
ATOM     22  C   UNL     1      -1.840  -9.286  -4.344  0.00  0.00    +0.169 A 
ATOM     23  C   UNL     1      -1.893 -10.019  -5.526  0.00  0.00    +0.095 A 
ATOM     24  C   UNL     1      -2.999 -10.835  -5.767  0.00  0.00    +0.067 A 
ATOM     25  C   UNL     1      -4.009 -10.880  -4.807  0.00  0.00    +0.100 A 
ATOM     26  C   UNL     1      -3.883 -10.119  -3.655  0.00  0.00    +0.150 A 
ATOM     27  N   UNL     1      -2.825  -9.363  -3.454  0.00  0.00    -0.226 NA
ATOM     28 CL   UNL     1      -5.138 -10.170  -2.456  0.00  0.00    -0.060 Cl
ATOM     29 CL   UNL     1      -5.409 -11.876  -5.053  0.00  0.00    -0.078 Cl
ATOM     30 CL   UNL     1      -0.602  -9.921  -6.683  0.00  0.00    -0.079 Cl
BRANCH  24  31
ATOM     31  N   UNL     1      -3.092 -11.585  -6.937  0.00  0.00    -0.356 N 
ATOM     32  H   UNL     1      -2.382 -11.545  -7.597  0.00  0.00    +0.142 HD
ATOM     33  H   UNL     1      -3.867 -12.148  -7.092  0.00  0.00    +0.142 HD
ENDBRANCH  24  31
ENDBRANCH  20  22
ENDBRANCH  19  20
ENDBRANCH  18  19
ENDBRANCH   9  18
TORSDOF 6
