REMARK  Name = ZINC09057664
REMARK  12 active torsions:
REMARK  status: ('A' for Active; 'I' for Inactive)
REMARK    1  A    between atoms: C_1  and  C_2
REMARK    2  A    between atoms: C_7  and  N_8
REMARK    3  A    between atoms: C_9  and  C_11
REMARK    4  A    between atoms: C_11  and  S_12
REMARK    5  A    between atoms: S_12  and  C_13
REMARK    6  A    between atoms: C_14  and  C_37
REMARK    7  A    between atoms: C_15  and  C_32
REMARK    8  A    between atoms: C_17  and  C_21
REMARK    9  A    between atoms: C_18  and  C_20
REMARK   10  A    between atoms: N_23  and  C_24
REMARK   11  A    between atoms: C_29  and  O_30
REMARK   12  A    between atoms: O_30  and  C_31
REMARK                            x       y       z     vdW  Elec       q    Type
REMARK                         _______ _______ _______ _____ _____    ______ ____
ROOT
ATOM      1  C   UNL     1       2.507   5.564   0.342  0.00  0.00    +0.093 C 
ATOM      2  C   UNL     1       3.679   6.254   0.352  0.00  0.00    +0.161 C 
ATOM      3  C   UNL     1       3.700   7.753   0.455  0.00  0.00    +0.115 C 
ATOM      4  C   UNL     1       2.375   8.273   0.935  0.00  0.00    +0.048 C 
ATOM      5  C   UNL     1       1.267   7.513   0.913  0.00  0.00    +0.048 C 
ATOM      6  N   UNL     1       1.305   6.227   0.446  0.00  0.00    -0.248 NA
ATOM      7  C   UNL     1      -0.039   8.087   1.398  0.00  0.00    +0.066 C 
ENDROOT
BRANCH   3   8
ATOM      8  C   UNL     1       4.003   8.344  -0.898  0.00  0.00    +0.114 A 
ATOM      9  C   UNL     1       5.066   9.110  -1.202  0.00  0.00    +0.045 A 
ATOM     10  C   UNL     1       4.955   9.439  -2.572  0.00  0.00    +0.041 A 
ATOM     11  C   UNL     1       3.827   8.861  -3.022  0.00  0.00    +0.195 A 
ATOM     12  O   UNL     1       3.255   8.199  -2.004  0.00  0.00    -0.467 OA
ENDBRANCH   3   8
BRANCH   4  13
ATOM     13  C   UNL     1       2.293   9.596   1.430  0.00  0.00    +0.247 C 
ATOM     14  O   UNL     1       1.227  10.034   1.824  0.00  0.00    -0.270 OA
ATOM     15  N   UNL     1       3.394  10.372   1.466  0.00  0.00    -0.279 N 
ATOM     16  H   UNL     1       4.229  10.047   1.093  0.00  0.00    +0.155 HD
BRANCH  15  17
ATOM     17  C   UNL     1       3.333  11.648   2.041  0.00  0.00    +0.076 A 
ATOM     18  C   UNL     1       2.180  12.410   1.925  0.00  0.00    +0.027 A 
ATOM     19  C   UNL     1       2.123  13.668   2.493  0.00  0.00    +0.002 A 
ATOM     20  C   UNL     1       3.213  14.171   3.179  0.00  0.00    +0.004 A 
ATOM     21  C   UNL     1       4.366  13.418   3.299  0.00  0.00    +0.047 A 
ATOM     22  C   UNL     1       4.430  12.153   2.737  0.00  0.00    +0.141 A 
BRANCH  22  23
ATOM     23  O   UNL     1       5.561  11.409   2.860  0.00  0.00    -0.493 OA
ATOM     24  C   UNL     1       6.645  11.991   3.587  0.00  0.00    +0.277 C 
ENDBRANCH  22  23
ENDBRANCH  15  17
ENDBRANCH   4  13
BRANCH   2  25
ATOM     25  C   UNL     1       4.916   5.539   0.257  0.00  0.00    +0.074 C 
ATOM     26  N   UNL     1       5.898   4.972   0.182  0.00  0.00    -0.196 NA
ENDBRANCH   2  25
BRANCH   1  27
ATOM     27  S   UNL     1       2.528   3.808   0.196  0.00  0.00    -0.100 S 
BRANCH  27  28
ATOM     28  C   UNL     1       0.750   3.468   0.240  0.00  0.00    +0.171 C 
BRANCH  28  30
ATOM     29  N   UNL     1      -0.736   1.494   0.137  0.00  0.00    -0.285 N 
ATOM     30  C   UNL     1       0.520   1.983   0.127  0.00  0.00    +0.227 C 
ATOM     31  O   UNL     1       1.464   1.229   0.026  0.00  0.00    -0.275 OA
ATOM     32  H   UNL     1      -1.493   2.100   0.148  0.00  0.00    +0.155 HD
BRANCH  29  39
ATOM     33  C   UNL     1      -2.967   0.465   1.572  0.00  0.00    +0.045 C 
ATOM     34  C   UNL     1      -2.024  -0.434   0.813  0.00  0.00    -0.029 A 
ATOM     35  C   UNL     1      -2.230  -1.800   0.801  0.00  0.00    +0.005 A 
ATOM     36  C   UNL     1      -1.366  -2.624   0.105  0.00  0.00    +0.000 A 
ATOM     37  C   UNL     1      -0.293  -2.085  -0.581  0.00  0.00    +0.002 A 
ATOM     38  C   UNL     1      -0.084  -0.720  -0.576  0.00  0.00    +0.023 A 
ATOM     39  C   UNL     1      -0.948   0.111   0.126  0.00  0.00    +0.036 A 
ENDBRANCH  29  39
ENDBRANCH  28  30
ENDBRANCH  27  28
ENDBRANCH   1  27
TORSDOF 9
