REMARK  Name = ZINC08789280
REMARK  7 active torsions:
REMARK  status: ('A' for Active; 'I' for Inactive)
REMARK    1  A    between atoms: C_1  and  O_2
REMARK    2  A    between atoms: O_2  and  C_3
REMARK    3  A    between atoms: C_8  and  C_9
REMARK    4  A    between atoms: C_9  and  N_10
REMARK    5  A    between atoms: C_15  and  C_31
REMARK    6  A    between atoms: C_31  and  C_32
REMARK    7  A    between atoms: C_35  and  O_38
REMARK                            x       y       z     vdW  Elec       q    Type
REMARK                         _______ _______ _______ _____ _____    ______ ____
ROOT
ATOM      1  N   UNL     1       0.138   2.674   4.291  0.00  0.00    -0.237 N 
ATOM      2  C   UNL     1       0.725   2.366   3.129  0.00  0.00    +0.224 C 
ATOM      3  O   UNL     1       1.655   2.966   2.633  0.00  0.00    -0.275 OA
ATOM      4  C   UNL     1       0.050   1.153   2.530  0.00  0.00    +0.073 C 
ATOM      5  C   UNL     1      -0.729   1.579   1.267  0.00  0.00    -0.053 C 
ATOM      6  C   UNL     1      -2.372   1.027   2.834  0.00  0.00    +0.050 C 
ATOM      7  C   UNL     1      -1.047   0.802   3.574  0.00  0.00    +0.088 C 
ATOM      8  C   UNL     1      -0.869   1.863   4.636  0.00  0.00    +0.225 C 
ATOM      9  O   UNL     1      -1.534   1.963   5.645  0.00  0.00    -0.275 OA
ATOM     10  C   UNL     1      -2.974   2.361   3.173  0.00  0.00    -0.028 A 
ATOM     11  C   UNL     1      -2.533   3.659   3.046  0.00  0.00    +0.004 A 
ATOM     12  C   UNL     1      -3.337   4.707   3.459  0.00  0.00    +0.000 A 
ATOM     13  C   UNL     1      -4.583   4.446   4.000  0.00  0.00    +0.002 A 
ATOM     14  C   UNL     1      -5.029   3.147   4.129  0.00  0.00    +0.023 A 
ATOM     15  C   UNL     1      -4.226   2.087   3.715  0.00  0.00    +0.036 A 
ATOM     16  N   UNL     1      -4.449   0.708   3.741  0.00  0.00    -0.286 N 
ATOM     17  C   UNL     1      -3.408   0.015   3.243  0.00  0.00    +0.211 C 
ATOM     18  O   UNL     1      -3.321  -1.191   3.142  0.00  0.00    -0.277 OA
ATOM     19  H   UNL     1      -5.261   0.298   4.080  0.00  0.00    +0.155 HD
ATOM     20  N   UNL     1      -2.037   0.940   1.423  0.00  0.00    +0.394 N 
ATOM     21  H   UNL     1      -1.990  -0.042   1.128  0.00  0.00    -0.083 HD
ATOM     22  H   UNL     1      -2.742   1.432   0.860  0.00  0.00    -0.083 HD
ENDROOT
BRANCH   1  23
ATOM     23  C   UNL     1       0.562   3.806   5.117  0.00  0.00    +0.155 C 
BRANCH  23  29
ATOM     24  C   UNL     1       2.937   3.212   5.663  0.00  0.00    +0.125 A 
ATOM     25  C   UNL     1       3.911   2.793   6.558  0.00  0.00    +0.046 A 
ATOM     26  C   UNL     1       3.571   2.515   7.868  0.00  0.00    +0.004 A 
ATOM     27  C   UNL     1       2.260   2.655   8.287  0.00  0.00    +0.001 A 
ATOM     28  C   UNL     1       1.289   3.077   7.399  0.00  0.00    +0.009 A 
ATOM     29  C   UNL     1       1.623   3.351   6.087  0.00  0.00    +0.012 A 
BRANCH  24  31
ATOM     30  C   UNL     1       4.641   3.322   4.009  0.00  0.00    +0.277 C 
ATOM     31  O   UNL     1       3.269   3.486   4.375  0.00  0.00    -0.495 OA
ENDBRANCH  24  31
ENDBRANCH  23  29
ENDBRANCH   1  23
BRANCH   5  32
ATOM     32  C   UNL     1      -0.013   1.086   0.008  0.00  0.00    +0.020 C 
BRANCH  32  33
ATOM     33  C   UNL     1      -0.742   1.585  -1.213  0.00  0.00    -0.049 A 
ATOM     34  C   UNL     1      -1.750   0.824  -1.774  0.00  0.00    +0.007 A 
ATOM     35  C   UNL     1      -2.423   1.282  -2.890  0.00  0.00    +0.045 A 
ATOM     36  C   UNL     1      -2.079   2.501  -3.454  0.00  0.00    +0.117 A 
ATOM     37  C   UNL     1      -1.063   3.261  -2.893  0.00  0.00    +0.045 A 
ATOM     38  C   UNL     1      -0.397   2.801  -1.773  0.00  0.00    +0.007 A 
BRANCH  36  39
ATOM     39  O   UNL     1      -2.736   2.951  -4.556  0.00  0.00    -0.507 OA
ATOM     40  H   UNL     1      -2.336   2.675  -5.392  0.00  0.00    +0.292 HD
ENDBRANCH  36  39
ENDBRANCH  32  33
ENDBRANCH   5  32
TORSDOF 6
