REMARK  Name = ZINC09237239
REMARK  6 active torsions:
REMARK  status: ('A' for Active; 'I' for Inactive)
REMARK    1  A    between atoms: C_1  and  C_2
REMARK    2  A    between atoms: C_5  and  C_8
REMARK    3  A    between atoms: C_10  and  C_20
REMARK    4  A    between atoms: C_16  and  C_19
REMARK    5  A    between atoms: N_22  and  C_23
REMARK    6  A    between atoms: C_28  and  C_29
REMARK                            x       y       z     vdW  Elec       q    Type
REMARK                         _______ _______ _______ _____ _____    ______ ____
ROOT
ATOM      1  C   UNL     1       3.257   7.442  -0.872  0.00  0.00    +0.140 C 
ATOM      2  C   UNL     1       3.565   6.106  -0.184  0.00  0.00    +0.166 C 
ATOM      3  S   UNL     1       4.204   6.469   1.479  0.00  0.00    -0.069 S 
ATOM      4  C   UNL     1       3.028   7.707   1.926  0.00  0.00    +0.209 A 
ATOM      5  N   UNL     1       2.806   8.219   3.104  0.00  0.00    -0.121 NA
ATOM      6  N   UNL     1       1.877   9.108   3.018  0.00  0.00    -0.132 NA
ATOM      7  C   UNL     1       1.460   9.203   1.785  0.00  0.00    +0.148 A 
ATOM      8  N   UNL     1       2.175   8.307   1.044  0.00  0.00    -0.225 N 
ATOM      9  N   UNL     1       2.063   8.055  -0.286  0.00  0.00    -0.272 N 
ATOM     10  C   UNL     1       0.388  10.131   1.274  0.00  0.00    +0.090 C 
ATOM     11  H   UNL     1       1.241   7.504  -0.482  0.00  0.00    +0.167 HD
ENDROOT
BRANCH   1  16
ATOM     12  C   UNL     1       2.367   6.529  -6.508  0.00  0.00    +0.044 C 
ATOM     13  C   UNL     1       2.599   6.767  -5.038  0.00  0.00    -0.050 A 
ATOM     14  C   UNL     1       3.822   7.239  -4.599  0.00  0.00    +0.004 A 
ATOM     15  C   UNL     1       4.035   7.458  -3.251  0.00  0.00    +0.006 A 
ATOM     16  C   UNL     1       3.025   7.204  -2.342  0.00  0.00    -0.024 A 
ATOM     17  C   UNL     1       1.803   6.728  -2.780  0.00  0.00    +0.006 A 
ATOM     18  C   UNL     1       1.589   6.514  -4.129  0.00  0.00    +0.004 A 
ENDBRANCH   1  16
BRANCH   2  19
ATOM     19  C   UNL     1       2.307   5.284  -0.079  0.00  0.00    +0.233 C 
ATOM     20  O   UNL     1       1.360   5.702   0.553  0.00  0.00    -0.274 OA
ATOM     21  N   UNL     1       2.233   4.083  -0.687  0.00  0.00    -0.284 N 
ATOM     22  H   UNL     1       3.017   3.710  -1.120  0.00  0.00    +0.155 HD
BRANCH  21  23
ATOM     23  C   UNL     1       1.026   3.375  -0.694  0.00  0.00    +0.036 A 
ATOM     24  C   UNL     1      -0.179   4.053  -0.561  0.00  0.00    +0.024 A 
ATOM     25  C   UNL     1      -1.368   3.352  -0.569  0.00  0.00    +0.017 A 
ATOM     26  C   UNL     1      -1.361   1.975  -0.714  0.00  0.00    +0.018 A 
ATOM     27  C   UNL     1      -0.162   1.297  -0.841  0.00  0.00    +0.020 A 
ATOM     28  C   UNL     1       1.031   1.993  -0.834  0.00  0.00    -0.028 A 
ATOM     29  C   UNL     1       2.337   1.254  -0.978  0.00  0.00    +0.046 C 
ATOM     30 BR   UNL     1      -2.992   1.019  -0.731  0.00  0.00    -0.050 Br
ENDBRANCH  21  23
ENDBRANCH   2  19
TORSDOF 3
