REMARK  Name = ZINC04019924
REMARK  5 active torsions:
REMARK  status: ('A' for Active; 'I' for Inactive)
REMARK    1  A    between atoms: C_1  and  O_2
REMARK    2  A    between atoms: O_2  and  C_3
REMARK    3  A    between atoms: N_11  and  C_12
REMARK    4  A    between atoms: C_13  and  C_21
REMARK    5  A    between atoms: C_24  and  C_26
REMARK                            x       y       z     vdW  Elec       q    Type
REMARK                         _______ _______ _______ _____ _____    ______ ____
ROOT
ATOM      1  C   UNL     1      -1.201  -0.638   0.010  0.00  0.00    +0.163 A 
ATOM      2  C   UNL     1      -2.373   0.099   0.019  0.00  0.00    +0.049 A 
ATOM      3  C   UNL     1      -3.606  -0.536   0.027  0.00  0.00    +0.004 A 
ATOM      4  C   UNL     1      -3.683  -1.911   0.027  0.00  0.00    +0.012 A 
ATOM      5  C   UNL     1      -2.507  -2.672   0.020  0.00  0.00    +0.022 A 
ATOM      6  C   UNL     1      -1.257  -2.028   0.003  0.00  0.00    +0.179 A 
ATOM      7  O   UNL     1      -0.119  -2.765  -0.017  0.00  0.00    -0.435 OA
ATOM      8  C   UNL     1      -0.178  -4.004   0.532  0.00  0.00    +0.211 A 
ATOM      9  N   UNL     1       0.813  -4.467   1.272  0.00  0.00    -0.319 N 
ATOM     10  C   UNL     1      -1.381  -4.817   0.279  0.00  0.00    +0.078 A 
ATOM     11  C   UNL     1      -2.561  -4.136   0.027  0.00  0.00    +0.028 A 
ATOM     12  H   UNL     1       0.756  -5.355   1.658  0.00  0.00    +0.169 HD
ENDROOT
BRANCH  10  13
ATOM     13  C   UNL     1      -1.332  -6.292   0.302  0.00  0.00    +0.144 A 
ATOM     14  N   UNL     1      -2.399  -7.119   0.073  0.00  0.00    -0.338 N 
ATOM     15  H   UNL     1      -3.307  -6.845  -0.131  0.00  0.00    +0.167 HD
ATOM     16  C   UNL     1      -1.941  -8.418   0.186  0.00  0.00    +0.066 A 
ATOM     17  C   UNL     1      -2.539  -9.664   0.065  0.00  0.00    +0.028 A 
ATOM     18  C   UNL     1      -1.784 -10.805   0.243  0.00  0.00    +0.002 A 
ATOM     19  C   UNL     1      -0.432 -10.714   0.543  0.00  0.00    +0.002 A 
ATOM     20  C   UNL     1       0.174  -9.496   0.666  0.00  0.00    +0.030 A 
ATOM     21  C   UNL     1      -0.571  -8.325   0.490  0.00  0.00    +0.089 A 
ATOM     22  N   UNL     1      -0.259  -7.008   0.541  0.00  0.00    -0.228 NA
ENDBRANCH  10  13
BRANCH   9  23
ATOM     23  C   UNL     1       1.903  -3.707   1.491  0.00  0.00    +0.093 A 
ATOM     24  C   UNL     1       3.052  -4.010   2.233  0.00  0.00    +0.071 A 
ATOM     25  C   UNL     1       4.090  -2.996   2.308  0.00  0.00    -0.023 A 
ATOM     26  C   UNL     1       3.849  -1.841   1.648  0.00  0.00    -0.004 A 
ATOM     27  S   UNL     1       2.255  -2.059   0.905  0.00  0.00    -0.075 S 
ATOM     28  C   UNL     1       4.744  -0.643   1.563  0.00  0.00    +0.043 C 
ATOM     29  C   UNL     1       5.825  -0.767   2.645  0.00  0.00    +0.005 C 
ATOM     30  C   UNL     1       6.420  -2.177   2.586  0.00  0.00    +0.005 C 
ATOM     31  C   UNL     1       5.391  -3.195   3.080  0.00  0.00    +0.037 C 
BRANCH  24  32
ATOM     32  C   UNL     1       3.201  -5.299   2.908  0.00  0.00    +0.244 C 
ATOM     33  O   UNL     1       3.716  -6.236   2.325  0.00  0.00    -0.270 OA
ATOM     34  N   UNL     1       2.769  -5.450   4.176  0.00  0.00    -0.325 N 
ATOM     35  H   UNL     1       2.358  -4.704   4.640  0.00  0.00    +0.145 HD
ATOM     36  H   UNL     1       2.867  -6.305   4.623  0.00  0.00    +0.145 HD
ENDBRANCH  24  32
ENDBRANCH   9  23
BRANCH   1  38
ATOM     37  C   UNL     1      -0.017   1.425   0.010  0.00  0.00    +0.277 C 
ATOM     38  O   UNL     1       0.002  -0.004   0.002  0.00  0.00    -0.491 OA
ENDBRANCH   1  38
TORSDOF 4
