REMARK  Name = ZINC12602914
REMARK  9 active torsions:
REMARK  status: ('A' for Active; 'I' for Inactive)
REMARK    1  A    between atoms: C_1  and  C_2
REMARK    2  A    between atoms: C_5  and  C_8
REMARK    3  A    between atoms: C_11  and  N_34
REMARK    4  A    between atoms: C_17  and  C_30
REMARK    5  A    between atoms: C_30  and  O_32
REMARK    6  A    between atoms: O_32  and  C_33
REMARK    7  A    between atoms: N_34  and  C_35
REMARK    8  A    between atoms: C_35  and  C_36
REMARK    9  A    between atoms: C_35  and  C_37
REMARK                            x       y       z     vdW  Elec       q    Type
REMARK                         _______ _______ _______ _____ _____    ______ ____
ROOT
ATOM      1  C   UNL     1       0.058  -4.865   0.300  0.00  0.00    +0.087 C 
ATOM      2  C   UNL     1      -1.174  -5.622   0.804  0.00  0.00    +0.008 C 
ATOM      3  C   UNL     1      -0.816  -7.094   1.018  0.00  0.00    -0.068 C 
ATOM      4  C   UNL     1       0.356  -7.194   2.000  0.00  0.00    +0.009 C 
ATOM      5  C   UNL     1       1.539  -6.397   1.447  0.00  0.00    +0.103 C 
ATOM      6  N   UNL     1       1.141  -4.991   1.282  0.00  0.00    -0.274 NA
ATOM      7  C   UNL     1       2.286  -4.138   0.943  0.00  0.00    +0.172 C 
ATOM      8  C   UNL     1       3.201  -4.001   2.167  0.00  0.00    +0.068 C 
ATOM      9  C   UNL     1       3.446  -5.378   2.729  0.00  0.00    -0.016 A 
ATOM     10  C   UNL     1       2.701  -6.468   2.405  0.00  0.00    +0.038 A 
ATOM     11  N   UNL     1       3.164  -7.570   3.070  0.00  0.00    -0.356 N 
ATOM     12  H   UNL     1       2.788  -8.462   3.002  0.00  0.00    +0.166 HD
ATOM     13  C   UNL     1       4.237  -7.227   3.842  0.00  0.00    +0.047 A 
ATOM     14  C   UNL     1       4.457  -5.820   3.664  0.00  0.00    +0.003 A 
ATOM     15  C   UNL     1       5.495  -5.157   4.326  0.00  0.00    +0.010 A 
ATOM     16  C   UNL     1       6.281  -5.910   5.162  0.00  0.00    +0.001 A 
ATOM     17  C   UNL     1       6.067  -7.266   5.349  0.00  0.00    +0.002 A 
ATOM     18  C   UNL     1       5.052  -7.973   4.691  0.00  0.00    +0.026 A 
ENDROOT
BRANCH   1  23
ATOM     19  C   UNL     1      -1.267   0.716  -0.406  0.00  0.00    +0.044 C 
ATOM     20  C   UNL     1      -0.921  -0.739  -0.222  0.00  0.00    -0.050 A 
ATOM     21  C   UNL     1      -0.888  -1.585  -1.314  0.00  0.00    +0.003 A 
ATOM     22  C   UNL     1      -0.571  -2.920  -1.146  0.00  0.00    +0.005 A 
ATOM     23  C   UNL     1      -0.287  -3.409   0.116  0.00  0.00    -0.030 A 
ATOM     24  C   UNL     1      -0.319  -2.563   1.208  0.00  0.00    +0.005 A 
ATOM     25  C   UNL     1      -0.632  -1.227   1.039  0.00  0.00    +0.003 A 
ENDBRANCH   1  23
BRANCH   3  26
ATOM     26  N   UNL     1      -1.978  -7.806   1.567  0.00  0.00    +0.383 N 
ATOM     27  H   UNL     1      -1.717  -8.757   1.786  0.00  0.00    -0.085 HD
ATOM     28  H   UNL     1      -2.291  -7.342   2.407  0.00  0.00    -0.085 HD
BRANCH  26  29
ATOM     29  C   UNL     1      -3.062  -7.811   0.577  0.00  0.00    -0.078 C 
ATOM     30  C   UNL     1      -2.632  -8.622  -0.647  0.00  0.00    -0.014 C 
ATOM     31  C   UNL     1      -4.313  -8.442   1.192  0.00  0.00    -0.014 C 
ENDBRANCH  26  29
ENDBRANCH   3  26
BRANCH   7  32
ATOM     32  C   UNL     1       3.056  -4.760  -0.194  0.00  0.00    +0.325 C 
ATOM     33  O   UNL     1       2.587  -5.692  -0.803  0.00  0.00    -0.249 OA
BRANCH  32  34
ATOM     34  O   UNL     1       4.263  -4.278  -0.529  0.00  0.00    -0.467 OA
ATOM     35  C   UNL     1       4.937  -4.916  -1.616  0.00  0.00    +0.280 C 
ENDBRANCH  32  34
ENDBRANCH   7  32
TORSDOF 5
