REMARK  Name = ZINC63437565
REMARK  11 active torsions:
REMARK  status: ('A' for Active; 'I' for Inactive)
REMARK    1  A    between atoms: C_1  and  C_2
REMARK    2  A    between atoms: C_2  and  C_3
REMARK    3  A    between atoms: C_2  and  C_4
REMARK    4  A    between atoms: C_4  and  O_5
REMARK    5  A    between atoms: O_5  and  C_6
REMARK    6  A    between atoms: C_9  and  C_12
REMARK    7  A    between atoms: N_14  and  C_15
REMARK    8  A    between atoms: C_15  and  C_17
REMARK    9  A    between atoms: C_15  and  C_27
REMARK   10  A    between atoms: C_17  and  C_18
REMARK   11  A    between atoms: N_29  and  N_30
REMARK                            x       y       z     vdW  Elec       q    Type
REMARK                         _______ _______ _______ _____ _____    ______ ____
ROOT
ATOM      1  C   UNL     1      -7.728  -6.590  -0.261  0.00  0.00    +0.164 C 
ENDROOT
BRANCH   1   4
ATOM      2  C   UNL     1      -6.376  -4.566  -0.143  0.00  0.00    +0.245 C 
ATOM      3  O   UNL     1      -7.403  -3.921  -0.050  0.00  0.00    -0.270 OA
ATOM      4  N   UNL     1      -6.431  -5.908  -0.253  0.00  0.00    -0.300 N 
ATOM      5  H   UNL     1      -5.612  -6.422  -0.327  0.00  0.00    +0.150 HD
BRANCH   2   9
ATOM      6  C   UNL     1      -2.618  -2.589  -0.120  0.00  0.00    +0.121 A 
ATOM      7  C   UNL     1      -3.790  -1.850  -0.014  0.00  0.00    +0.046 A 
ATOM      8  C   UNL     1      -5.011  -2.487  -0.021  0.00  0.00    +0.016 A 
ATOM      9  C   UNL     1      -5.070  -3.879  -0.135  0.00  0.00    +0.037 A 
ATOM     10  C   UNL     1      -3.889  -4.618  -0.242  0.00  0.00    +0.016 A 
ATOM     11  C   UNL     1      -2.672  -3.973  -0.239  0.00  0.00    +0.046 A 
BRANCH   6  12
ATOM     12  O   UNL     1      -1.417  -1.957  -0.112  0.00  0.00    -0.492 OA
BRANCH  12  13
ATOM     13  C   UNL     1      -1.433  -0.534   0.013  0.00  0.00    +0.232 C 
BRANCH  13  15
ATOM     14  C   UNL     1      -0.019   1.526   0.010  0.00  0.00    +0.010 C 
ATOM     15  C   UNL     1       0.002  -0.004   0.002  0.00  0.00    +0.020 C 
ATOM     16  C   UNL     1       0.742  -0.511   1.242  0.00  0.00    +0.010 C 
ENDBRANCH  13  15
ENDBRANCH  12  13
ENDBRANCH   6  12
ENDBRANCH   2   9
ENDBRANCH   1   4
BRANCH   1  17
ATOM     17  C   UNL     1      -8.176  -6.833   1.158  0.00  0.00    +0.247 C 
ATOM     18  O   UNL     1      -7.481  -6.471   2.083  0.00  0.00    -0.272 OA
ATOM     19  N   UNL     1      -9.349  -7.451   1.397  0.00  0.00    -0.252 N 
ATOM     20  H   UNL     1      -9.905  -7.740   0.657  0.00  0.00    +0.169 HD
BRANCH  19  21
ATOM     21  N   UNL     1      -9.755  -7.671   2.683  0.00  0.00    -0.254 NA
ATOM     22  H   UNL     1      -9.788  -6.808   3.204  0.00  0.00    +0.140 HD
ATOM     23  H   UNL     1     -10.648  -8.141   2.704  0.00  0.00    +0.140 HD
ENDBRANCH  19  21
ENDBRANCH   1  17
BRANCH   1  24
ATOM     24  C   UNL     1      -7.595  -7.929  -0.990  0.00  0.00    +0.065 C 
BRANCH  24  25
ATOM     25  C   UNL     1      -7.267  -7.681  -2.439  0.00  0.00    -0.039 C 
ATOM     26  C   UNL     1      -6.038  -7.669  -3.004  0.00  0.00    -0.001 A 
ATOM     27  C   UNL     1      -4.691  -7.874  -2.459  0.00  0.00    +0.010 A 
ATOM     28  C   UNL     1      -3.627  -7.799  -3.291  0.00  0.00    +0.001 A 
ATOM     29  C   UNL     1      -3.779  -7.530  -4.658  0.00  0.00    +0.002 A 
ATOM     30  C   UNL     1      -4.984  -7.330  -5.233  0.00  0.00    +0.026 A 
ATOM     31  C   UNL     1      -6.171  -7.386  -4.451  0.00  0.00    +0.043 A 
ATOM     32  N   UNL     1      -7.434  -7.230  -4.769  0.00  0.00    -0.380 N 
ATOM     33  C   UNL     1      -8.245  -7.401  -3.558  0.00  0.00    +0.144 C 
ATOM     34  H   UNL     1      -7.774  -7.037  -5.656  0.00  0.00    +0.160 HD
ENDBRANCH  24  25
ENDBRANCH   1  24
TORSDOF 9
