REMARK  Name = ZINC39509300
REMARK  6 active torsions:
REMARK  status: ('A' for Active; 'I' for Inactive)
REMARK    1  A    between atoms: C_1  and  C_2
REMARK    2  A    between atoms: C_2  and  C_33
REMARK    3  A    between atoms: C_4  and  N_21
REMARK    4  A    between atoms: N_10  and  C_14
REMARK    5  A    between atoms: N_21  and  C_22
REMARK    6  A    between atoms: C_22  and  C_23
REMARK                            x       y       z     vdW  Elec       q    Type
REMARK                         _______ _______ _______ _____ _____    ______ ____
ROOT
ATOM      1  C   UNL     1      -0.019   1.526   0.010  0.00  0.00    +0.011 C 
ATOM      2  C   UNL     1       0.002  -0.004   0.002  0.00  0.00    -0.035 C 
ATOM      3  C   UNL     1       0.745  -0.504  -1.243  0.00  0.00    -0.009 C 
ATOM      4  C   UNL     1       2.131   0.137  -1.254  0.00  0.00    -0.065 C 
ATOM      5  C   UNL     1       2.918  -0.201  -0.016  0.00  0.00    +0.012 C 
ATOM      6  C   UNL     1       3.237  -1.704   0.108  0.00  0.00    +0.106 C 
ATOM      7  N   UNL     1       3.487  -1.859   1.562  0.00  0.00    -0.240 NA
ATOM      8  N   UNL     1       2.905  -0.829   2.248  0.00  0.00    -0.264 N 
ATOM      9  C   UNL     1       2.155   0.028   1.302  0.00  0.00    +0.094 C 
ATOM     10  C   UNL     1       0.739  -0.515   1.236  0.00  0.00    +0.030 C 
ATOM     11  C   UNL     1      -1.431  -0.539  -0.001  0.00  0.00    +0.011 C 
ATOM     12  H   UNL     1       4.477  -1.908   1.755  0.00  0.00    +0.144 HD
ENDROOT
BRANCH   8  13
ATOM     13  C   UNL     1       2.995  -0.629   3.629  0.00  0.00    +0.045 A 
ATOM     14  C   UNL     1       2.353   0.453   4.218  0.00  0.00    +0.027 A 
ATOM     15  C   UNL     1       2.443   0.649   5.583  0.00  0.00    +0.040 A 
ATOM     16  C   UNL     1       3.172  -0.233   6.363  0.00  0.00    +0.124 A 
ATOM     17  C   UNL     1       3.812  -1.312   5.778  0.00  0.00    +0.040 A 
ATOM     18  C   UNL     1       3.721  -1.515   4.415  0.00  0.00    +0.027 A 
ATOM     19  F   UNL     1       3.259  -0.040   7.697  0.00  0.00    -0.205 F 
ENDBRANCH   8  13
BRANCH   4  20
ATOM     20  N   UNL     1       2.869  -0.340  -2.432  0.00  0.00    +0.385 N 
ATOM     21  H   UNL     1       3.813   0.014  -2.403  0.00  0.00    -0.085 HD
ATOM     22  H   UNL     1       2.888  -1.348  -2.432  0.00  0.00    -0.085 HD
BRANCH  20  23
ATOM     23  C   UNL     1       2.204   0.137  -3.652  0.00  0.00    -0.028 C 
BRANCH  23  24
ATOM     24  C   UNL     1       2.961  -0.352  -4.860  0.00  0.00    -0.000 A 
ATOM     25  H   UNL     1       4.437   1.099  -5.091  0.00  0.00    +0.166 HD
ATOM     26  C   UNL     1       2.669  -1.464  -5.554  0.00  0.00    +0.029 A 
ATOM     27  C   UNL     1       3.648  -1.560  -6.639  0.00  0.00    -0.000 A 
ATOM     28  C   UNL     1       3.864  -2.473  -7.673  0.00  0.00    +0.010 A 
ATOM     29  C   UNL     1       4.894  -2.275  -8.549  0.00  0.00    +0.001 A 
ATOM     30  C   UNL     1       5.729  -1.174  -8.419  0.00  0.00    +0.002 A 
ATOM     31  C   UNL     1       5.534  -0.260  -7.405  0.00  0.00    +0.026 A 
ATOM     32  C   UNL     1       4.492  -0.442  -6.503  0.00  0.00    +0.047 A 
ATOM     33  N   UNL     1       4.043   0.275  -5.416  0.00  0.00    -0.360 N 
ENDBRANCH  23  24
ENDBRANCH  20  23
ENDBRANCH   4  20
TORSDOF 4
