REMARK  Name = ZINC63028932
REMARK  6 active torsions:
REMARK  status: ('A' for Active; 'I' for Inactive)
REMARK    1  A    between atoms: C_1  and  C_2
REMARK    2  A    between atoms: C_2  and  C_4
REMARK    3  A    between atoms: C_2  and  C_16
REMARK    4  A    between atoms: C_9  and  N_10
REMARK    5  A    between atoms: C_16  and  C_18
REMARK    6  A    between atoms: C_16  and  N_19
REMARK                            x       y       z     vdW  Elec       q    Type
REMARK                         _______ _______ _______ _____ _____    ______ ____
ROOT
ATOM      1  C   UNL     1       0.776  -0.770  -1.121  0.00  0.00    -0.014 A 
ATOM      2  C   UNL     1       1.939  -0.125  -1.518  0.00  0.00    +0.007 A 
ATOM      3  C   UNL     1       2.591  -0.540  -2.664  0.00  0.00    +0.017 A 
ATOM      4  C   UNL     1       2.075  -1.585  -3.391  0.00  0.00    +0.041 A 
ATOM      5  C   UNL     1       0.892  -2.259  -3.009  0.00  0.00    +0.109 A 
ATOM      6  C   UNL     1       0.259  -1.810  -1.831  0.00  0.00    +0.156 A 
ATOM      7  N   UNL     1       0.549  -3.256  -3.850  0.00  0.00    -0.245 NA
ATOM      8  C   UNL     1       1.254  -3.548  -4.904  0.00  0.00    +0.157 A 
ATOM      9  S   UNL     1       2.528  -2.448  -4.872  0.00  0.00    -0.075 S 
ENDROOT
BRANCH   6  10
ATOM     10  N   UNL     1      -0.980  -2.472  -1.366  0.00  0.00    +0.059 N 
ATOM     11  O   UNL     1      -2.057  -2.072  -1.744  0.00  0.00    -0.126 OA
ATOM     12  O   UNL     1      -0.916  -3.413  -0.610  0.00  0.00    -0.126 OA
ENDBRANCH   6  10
BRANCH   1  14
ATOM     13  C   UNL     1      -0.453   1.111  -0.072  0.00  0.00    +0.011 C 
ATOM     14  C   UNL     1       0.071  -0.312   0.130  0.00  0.00    +0.003 C 
BRANCH  14  15
ATOM     15  C   UNL     1       1.052  -0.332   1.304  0.00  0.00    -0.071 C 
ATOM     16  C   UNL     1       0.322   0.076   2.585  0.00  0.00    -0.014 C 
BRANCH  15  17
ATOM     17  N   UNL     1       1.598  -1.687   1.462  0.00  0.00    +0.380 N 
ATOM     18  H   UNL     1       2.079  -1.956   0.617  0.00  0.00    -0.090 HD
ATOM     19  H   UNL     1       2.245  -1.700   2.236  0.00  0.00    -0.090 HD
ATOM     20  H   UNL     1       0.845  -2.334   1.641  0.00  0.00    -0.090 HD
ENDBRANCH  15  17
ENDBRANCH  14  15
ENDBRANCH   1  14
TORSDOF 4
