REMARK  Name = ZINC46772422
REMARK  12 active torsions:
REMARK  status: ('A' for Active; 'I' for Inactive)
REMARK    1  A    between atoms: C_1  and  C_2
REMARK    2  A    between atoms: C_7  and  N_8
REMARK    3  A    between atoms: N_8  and  C_9
REMARK    4  A    between atoms: C_9  and  N_11
REMARK    5  A    between atoms: N_11  and  N_12
REMARK    6  A    between atoms: C_13  and  C_15
REMARK    7  A    between atoms: C_18  and  C_33
REMARK    8  A    between atoms: C_19  and  S_21
REMARK    9  A    between atoms: S_21  and  N_24
REMARK   10  A    between atoms: N_24  and  C_25
REMARK   11  A    between atoms: C_30  and  O_31
REMARK   12  A    between atoms: O_31  and  C_32
REMARK                            x       y       z     vdW  Elec       q    Type
REMARK                         _______ _______ _______ _____ _____    ______ ____
ROOT
ATOM      1  C   UNL     1      -0.106   4.430   4.966  0.00  0.00    +0.040 A 
ATOM      2  C   UNL     1       0.112   5.429   4.016  0.00  0.00    +0.013 A 
ATOM      3  C   UNL     1       0.139   6.752   4.405  0.00  0.00    +0.006 A 
ATOM      4  C   UNL     1      -0.048   7.090   5.734  0.00  0.00    -0.024 A 
ATOM      5  C   UNL     1      -0.264   6.104   6.681  0.00  0.00    +0.112 A 
ATOM      6  C   UNL     1      -0.300   4.777   6.303  0.00  0.00    +0.042 A 
ATOM      7  C   UNL     1      -0.016   8.537   6.152  0.00  0.00    +0.046 C 
ENDROOT
BRANCH   1   9
ATOM      8  N   UNL     1       0.050   2.678   3.263  0.00  0.00    -0.231 N 
ATOM      9  C   UNL     1      -0.138   3.010   4.555  0.00  0.00    +0.260 C 
ATOM     10  O   UNL     1      -0.333   2.142   5.384  0.00  0.00    -0.269 OA
ATOM     11  H   UNL     1       0.205   3.370   2.601  0.00  0.00    +0.173 HD
BRANCH   8  12
ATOM     12  N   UNL     1       0.020   1.332   2.874  0.00  0.00    -0.245 N 
ATOM     13  H   UNL     1      -0.136   0.639   3.535  0.00  0.00    +0.172 HD
BRANCH  12  14
ATOM     14  C   UNL     1       0.207   1.000   1.581  0.00  0.00    +0.151 C 
ATOM     15  S   UNL     1       0.170  -0.644   1.106  0.00  0.00    -0.017 S 
BRANCH  14  16
ATOM     16  N   UNL     1       0.423   1.962   0.662  0.00  0.00    -0.296 N 
ATOM     17  H   UNL     1       0.507   2.888   0.940  0.00  0.00    +0.154 HD
BRANCH  16  24
ATOM     18  C   UNL     1      -1.038   3.514  -1.223  0.00  0.00    +0.045 C 
ATOM     19  C   UNL     1      -0.170   2.357  -1.645  0.00  0.00    -0.029 A 
ATOM     20  C   UNL     1      -0.062   2.026  -2.982  0.00  0.00    +0.005 A 
ATOM     21  C   UNL     1       0.734   0.964  -3.370  0.00  0.00    +0.000 A 
ATOM     22  C   UNL     1       1.425   0.231  -2.423  0.00  0.00    +0.002 A 
ATOM     23  C   UNL     1       1.321   0.557  -1.085  0.00  0.00    +0.023 A 
ATOM     24  C   UNL     1       0.526   1.626  -0.692  0.00  0.00    +0.036 A 
ENDBRANCH  16  24
ENDBRANCH  14  16
ENDBRANCH  12  14
ENDBRANCH   8  12
ENDBRANCH   1   9
BRANCH   5  25
ATOM     25  S   UNL     1      -0.500   6.544   8.370  0.00  0.00    +0.073 S 
ATOM     26  O   UNL     1      -1.490   7.563   8.390  0.00  0.00    -0.150 OA
ATOM     27  O   UNL     1      -0.643   5.328   9.091  0.00  0.00    -0.150 OA
BRANCH  25  28
ATOM     28  N   UNL     1       0.907   7.242   8.896  0.00  0.00    -0.213 N 
ATOM     29  H   UNL     1       0.928   8.187   9.113  0.00  0.00    +0.174 HD
BRANCH  28  30
ATOM     30  C   UNL     1       2.066   6.468   9.026  0.00  0.00    +0.090 A 
ATOM     31  C   UNL     1       2.266   5.370   8.201  0.00  0.00    +0.028 A 
ATOM     32  C   UNL     1       3.411   4.608   8.332  0.00  0.00    +0.002 A 
ATOM     33  C   UNL     1       4.360   4.937   9.282  0.00  0.00    +0.004 A 
ATOM     34  C   UNL     1       4.168   6.029  10.107  0.00  0.00    +0.047 A 
ATOM     35  C   UNL     1       3.025   6.802   9.980  0.00  0.00    +0.142 A 
BRANCH  35  36
ATOM     36  O   UNL     1       2.837   7.880  10.787  0.00  0.00    -0.493 OA
ATOM     37  C   UNL     1       3.862   8.162  11.742  0.00  0.00    +0.277 C 
ENDBRANCH  35  36
ENDBRANCH  28  30
ENDBRANCH  25  28
ENDBRANCH   5  25
TORSDOF 9
