REMARK  Name = ZINC66244880
REMARK  8 active torsions:
REMARK  status: ('A' for Active; 'I' for Inactive)
REMARK    1  A    between atoms: C_1  and  O_2
REMARK    2  A    between atoms: O_2  and  C_3
REMARK    3  A    between atoms: C_6  and  C_9
REMARK    4  A    between atoms: C_9  and  C_10
REMARK    5  A    between atoms: C_10  and  N_11
REMARK    6  A    between atoms: N_14  and  C_15
REMARK    7  A    between atoms: C_15  and  C_16
REMARK    8  A    between atoms: C_16  and  C_22
REMARK                            x       y       z     vdW  Elec       q    Type
REMARK                         _______ _______ _______ _____ _____    ______ ____
ROOT
ATOM      1  N   UNL     1       4.565  -3.075  -5.665  0.00  0.00    -0.357 N 
ATOM      2  C   UNL     1       5.876  -3.442  -5.471  0.00  0.00    +0.169 C 
ATOM      3  N   UNL     1       6.486  -3.121  -4.364  0.00  0.00    -0.371 N 
ATOM      4  N   UNL     1       6.544  -4.147  -6.444  0.00  0.00    -0.357 N 
ATOM      5  H   UNL     1       4.112  -3.314  -6.488  0.00  0.00    +0.162 HD
ATOM      6  H   UNL     1       7.410  -3.379  -4.227  0.00  0.00    +0.159 HD
ATOM      7  H   UNL     1       6.090  -4.386  -7.267  0.00  0.00    +0.162 HD
ATOM      8  H   UNL     1       6.014  -2.623  -3.678  0.00  0.00    +0.159 HD
ENDROOT
BRANCH   1   9
ATOM      9  C   UNL     1       3.854  -2.323  -4.628  0.00  0.00    +0.120 C 
BRANCH   9  10
ATOM     10  C   UNL     1       2.422  -2.045  -5.092  0.00  0.00    +0.056 C 
BRANCH  10  14
ATOM     11  C   UNL     1       0.346   0.148  -2.068  0.00  0.00    +0.120 A 
ATOM     12  C   UNL     1       1.046   0.822  -3.058  0.00  0.00    +0.046 A 
ATOM     13  C   UNL     1       1.717   0.111  -4.034  0.00  0.00    +0.007 A 
ATOM     14  C   UNL     1       1.690  -1.272  -4.025  0.00  0.00    -0.045 A 
ATOM     15  C   UNL     1       0.994  -1.946  -3.039  0.00  0.00    +0.007 A 
ATOM     16  C   UNL     1       0.327  -1.239  -2.058  0.00  0.00    +0.046 A 
BRANCH  11  18
ATOM     17  C   UNL     1      -0.250   2.271  -1.179  0.00  0.00    +0.277 C 
ATOM     18  O   UNL     1      -0.314   0.846  -1.106  0.00  0.00    -0.495 OA
ENDBRANCH  11  18
ENDBRANCH  10  14
ENDBRANCH   9  10
ENDBRANCH   1   9
BRANCH   4  19
ATOM     19  C   UNL     1       7.940  -4.538  -6.237  0.00  0.00    +0.127 C 
BRANCH  19  20
ATOM     20  C   UNL     1       8.415  -5.380  -7.423  0.00  0.00    +0.017 C 
ATOM     21  C   UNL     1       9.866  -5.816  -7.193  0.00  0.00    +0.041 C 
ATOM     22  C   UNL     1      10.760  -4.575  -7.133  0.00  0.00    +0.161 C 
ATOM     23  O   UNL     1      10.619  -3.829  -8.344  0.00  0.00    -0.380 OA
ATOM     24  C   UNL     1       9.293  -3.355  -8.587  0.00  0.00    +0.161 C 
ATOM     25  C   UNL     1       8.340  -4.547  -8.706  0.00  0.00    +0.041 C 
BRANCH  20  26
ATOM     26  C   UNL     1       7.537  -6.598  -7.560  0.00  0.00    -0.039 A 
ATOM     27  C   UNL     1       6.830  -6.811  -8.729  0.00  0.00    +0.007 A 
ATOM     28  C   UNL     1       6.025  -7.926  -8.856  0.00  0.00    +0.038 A 
ATOM     29  C   UNL     1       5.927  -8.832  -7.812  0.00  0.00    +0.123 A 
ATOM     30  C   UNL     1       6.636  -8.617  -6.643  0.00  0.00    +0.038 A 
ATOM     31  C   UNL     1       7.444  -7.503  -6.520  0.00  0.00    +0.007 A 
ATOM     32  F   UNL     1       5.140  -9.923  -7.936  0.00  0.00    -0.205 F 
ENDBRANCH  20  26
ENDBRANCH  19  20
ENDBRANCH   4  19
TORSDOF 7
