REMARK  Name = ZINC20934516
REMARK  12 active torsions:
REMARK  status: ('A' for Active; 'I' for Inactive)
REMARK    1  A    between atoms: C_1  and  C_2
REMARK    2  A    between atoms: C_2  and  O_3
REMARK    3  A    between atoms: O_3  and  C_4
REMARK    4  A    between atoms: C_6  and  C_14
REMARK    5  A    between atoms: C_9  and  O_10
REMARK    6  A    between atoms: O_10  and  C_11
REMARK    7  A    between atoms: C_11  and  C_12
REMARK    8  A    between atoms: C_12  and  O_13
REMARK    9  A    between atoms: C_14  and  N_15
REMARK   10  A    between atoms: N_15  and  C_16
REMARK   11  A    between atoms: C_16  and  C_18
REMARK   12  A    between atoms: C_16  and  C_19
REMARK                            x       y       z     vdW  Elec       q    Type
REMARK                         _______ _______ _______ _____ _____    ______ ____
ROOT
ATOM      1  C   UNL     1       0.065  -4.280  -0.022  0.00  0.00    -0.046 C 
ENDROOT
BRANCH   1   4
ATOM      2  C   UNL     1      -1.192  -0.718   0.015  0.00  0.00    +0.162 A 
ATOM      3  C   UNL     1      -1.168  -2.103   0.002  0.00  0.00    +0.051 A 
ATOM      4  C   UNL     1       0.041  -2.773  -0.013  0.00  0.00    -0.061 A 
ATOM      5  C   UNL     1       1.227  -2.064  -0.021  0.00  0.00    +0.005 A 
ATOM      6  C   UNL     1       1.210  -0.682  -0.013  0.00  0.00    +0.049 A 
ATOM      7  C   UNL     1       0.002  -0.004   0.002  0.00  0.00    +0.162 A 
BRANCH   2   8
ATOM      8  O   UNL     1      -2.381  -0.057   0.036  0.00  0.00    -0.489 OA
BRANCH   8  10
ATOM      9  C   UNL     1      -4.795   0.058   0.071  0.00  0.00    +0.048 C 
ATOM     10  C   UNL     1      -3.567  -0.855   0.049  0.00  0.00    +0.226 C 
ENDBRANCH   8  10
ENDBRANCH   2   8
BRANCH   7  11
ATOM     11  O   UNL     1      -0.016   1.356   0.009  0.00  0.00    -0.486 OA
BRANCH  11  12
ATOM     12  C   UNL     1       1.248   2.022   0.001  0.00  0.00    +0.257 C 
BRANCH  12  13
ATOM     13  C   UNL     1       1.027   3.536   0.011  0.00  0.00    +0.196 C 
BRANCH  13  14
ATOM     14  O   UNL     1       0.406   3.918   1.240  0.00  0.00    -0.392 OA
ATOM     15  H   UNL     1       0.168   4.975   1.430  0.00  0.00    +0.210 HD
ENDBRANCH  13  14
ENDBRANCH  12  13
ENDBRANCH  11  12
ENDBRANCH   7  11
ENDBRANCH   1   4
BRANCH   1  16
ATOM     16  N   UNL     1       0.086  -4.778   1.360  0.00  0.00    +0.384 N 
ATOM     17  H   UNL     1       0.983  -4.399   1.872  0.00  0.00    -0.085 HD
ATOM     18  H   UNL     1      -0.813  -4.428   1.889  0.00  0.00    -0.085 HD
BRANCH  16  19
ATOM     19  C   UNL     1       0.110  -6.246   1.390  0.00  0.00    -0.068 C 
ATOM     20  C   UNL     1       1.554  -6.735   1.261  0.00  0.00    -0.013 C 
BRANCH  19  21
ATOM     21  C   UNL     1      -0.479  -6.738   2.714  0.00  0.00    -0.041 C 
ATOM     22  C   UNL     1      -1.923  -6.249   2.843  0.00  0.00    +0.009 C 
ATOM     23  C   UNL     1      -2.512  -6.742   4.166  0.00  0.00    -0.010 C 
ATOM     24  C   UNL     1      -2.487  -8.271   4.198  0.00  0.00    +0.007 C 
ATOM     25  C   UNL     1      -1.043  -8.760   4.069  0.00  0.00    -0.010 C 
ATOM     26  C   UNL     1      -0.454  -8.268   2.746  0.00  0.00    +0.009 C 
ATOM     27  C   UNL     1      -0.213  -8.212   5.232  0.00  0.00    +0.007 C 
ATOM     28  C   UNL     1      -0.238  -6.683   5.200  0.00  0.00    -0.010 C 
ATOM     29  C   UNL     1      -1.682  -6.194   5.329  0.00  0.00    +0.007 C 
ATOM     30  C   UNL     1       0.351  -6.191   3.877  0.00  0.00    +0.009 C 
ENDBRANCH  19  21
ENDBRANCH  16  19
ENDBRANCH   1  16
TORSDOF 10
