REMARK  Name = ZINC66940509
REMARK  12 active torsions:
REMARK  status: ('A' for Active; 'I' for Inactive)
REMARK    1  A    between atoms: C_1  and  C_2
REMARK    2  A    between atoms: C_2  and  C_4
REMARK    3  A    between atoms: C_2  and  N_16
REMARK    4  A    between atoms: C_7  and  O_10
REMARK    5  A    between atoms: O_10  and  C_11
REMARK    6  A    between atoms: C_11  and  C_12
REMARK    7  A    between atoms: C_12  and  C_13
REMARK    8  A    between atoms: C_13  and  C_14
REMARK    9  A    between atoms: C_13  and  C_15
REMARK   10  A    between atoms: N_16  and  C_17
REMARK   11  A    between atoms: C_17  and  C_19
REMARK   12  A    between atoms: C_17  and  C_26
REMARK                            x       y       z     vdW  Elec       q    Type
REMARK                         _______ _______ _______ _____ _____    ______ ____
ROOT
ATOM      1  N   UNL     1       0.690  -0.478  -1.207  0.00  0.00    +0.394 N 
ATOM      2  H   UNL     1       0.632  -1.484  -1.254  0.00  0.00    -0.083 HD
ATOM      3  H   UNL     1       0.251  -0.077  -2.022  0.00  0.00    -0.083 HD
ENDROOT
BRANCH   1   5
ATOM      4  C   UNL     1      -0.019   1.526   0.010  0.00  0.00    -0.009 C 
ATOM      5  C   UNL     1       0.002  -0.004   0.002  0.00  0.00    -0.043 C 
BRANCH   5   6
ATOM      6  C   UNL     1      -1.412  -0.526   0.013  0.00  0.00    -0.061 A 
ATOM      7  C   UNL     1      -2.140  -0.568  -1.161  0.00  0.00    +0.005 A 
ATOM      8  C   UNL     1      -3.437  -1.046  -1.154  0.00  0.00    +0.046 A 
ATOM      9  C   UNL     1      -4.007  -1.483   0.032  0.00  0.00    +0.121 A 
ATOM     10  C   UNL     1      -3.274  -1.439   1.209  0.00  0.00    +0.046 A 
ATOM     11  C   UNL     1      -1.976  -0.966   1.196  0.00  0.00    +0.005 A 
BRANCH   9  12
ATOM     12  O   UNL     1      -5.282  -1.952   0.042  0.00  0.00    -0.492 OA
BRANCH  12  13
ATOM     13  C   UNL     1      -5.805  -2.385   1.300  0.00  0.00    +0.229 C 
BRANCH  13  14
ATOM     14  C   UNL     1      -7.242  -2.877   1.114  0.00  0.00    +0.044 C 
BRANCH  14  15
ATOM     15  C   UNL     1      -7.801  -3.341   2.460  0.00  0.00    -0.014 C 
ATOM     16  C   UNL     1      -7.902  -2.145   3.409  0.00  0.00    +0.007 C 
ATOM     17  C   UNL     1      -9.190  -3.947   2.254  0.00  0.00    +0.007 C 
ENDBRANCH  14  15
ENDBRANCH  13  14
ENDBRANCH  12  13
ENDBRANCH   9  12
ENDBRANCH   5   6
ENDBRANCH   1   5
BRANCH   1  18
ATOM     18  C   UNL     1       2.100  -0.070  -1.159  0.00  0.00    +0.047 C 
BRANCH  18  19
ATOM     19  C   UNL     1       2.776  -0.448  -2.452  0.00  0.00    -0.053 A 
ATOM     20  C   UNL     1       2.481  -1.655  -3.059  0.00  0.00    +0.005 A 
ATOM     21  C   UNL     1       3.099  -2.002  -4.245  0.00  0.00    +0.038 A 
ATOM     22  C   UNL     1       4.016  -1.141  -4.825  0.00  0.00    +0.123 A 
ATOM     23  C   UNL     1       4.311   0.067  -4.216  0.00  0.00    +0.038 A 
ATOM     24  C   UNL     1       3.687   0.414  -3.033  0.00  0.00    +0.005 A 
ATOM     25  F   UNL     1       4.622  -1.480  -5.984  0.00  0.00    -0.205 F 
ENDBRANCH  18  19
BRANCH  18  26
ATOM     26  C   UNL     1       2.786  -0.766  -0.012  0.00  0.00    +0.201 C 
ATOM     27  O   UNL     1       2.161  -1.527   0.697  0.00  0.00    -0.277 OA
ATOM     28  N   UNL     1       4.093  -0.543   0.227  0.00  0.00    -0.330 N 
ATOM     29  H   UNL     1       4.593   0.065  -0.339  0.00  0.00    +0.145 HD
ATOM     30  H   UNL     1       4.535  -0.992   0.966  0.00  0.00    +0.145 HD
ENDBRANCH  18  26
ENDBRANCH   1  18
TORSDOF 9
