REMARK  Name = ZINC31168678
REMARK  7 active torsions:
REMARK  status: ('A' for Active; 'I' for Inactive)
REMARK    1  A    between atoms: C_1  and  C_2
REMARK    2  A    between atoms: C_5  and  O_28
REMARK    3  A    between atoms: C_7  and  C_10
REMARK    4  A    between atoms: C_11  and  C_12
REMARK    5  A    between atoms: C_13  and  C_14
REMARK    6  A    between atoms: C_18  and  O_24
REMARK    7  A    between atoms: C_20  and  O_23
REMARK                            x       y       z     vdW  Elec       q    Type
REMARK                         _______ _______ _______ _____ _____    ______ ____
ROOT
ATOM      1  C   UNL     1       3.332   5.474  -4.534  0.00  0.00    +0.133 A 
ATOM      2  C   UNL     1       3.755   6.754  -4.725  0.00  0.00    +0.056 A 
ATOM      3  C   UNL     1       4.110   7.191  -6.073  0.00  0.00    +0.018 A 
ATOM      4  C   UNL     1       3.997   6.254  -7.133  0.00  0.00    +0.110 A 
ATOM      5  C   UNL     1       4.328   6.639  -8.438  0.00  0.00    +0.135 A 
ATOM      6  C   UNL     1       4.763   7.930  -8.678  0.00  0.00    +0.093 A 
ATOM      7  C   UNL     1       4.874   8.847  -7.637  0.00  0.00    +0.139 A 
ATOM      8  C   UNL     1       4.550   8.487  -6.338  0.00  0.00    +0.091 A 
ATOM      9 CL   UNL     1       4.692   9.642  -5.050  0.00  0.00    -0.079 Cl
ATOM     10  C   UNL     1       3.532   4.904  -6.817  0.00  0.00    +0.349 A 
ATOM     11  O   UNL     1       3.421   4.072  -7.698  0.00  0.00    -0.244 OA
ATOM     12  O   UNL     1       3.232   4.589  -5.544  0.00  0.00    -0.422 OA
ENDROOT
BRANCH   1  14
ATOM     13  C   UNL     1       2.556   3.779  -2.964  0.00  0.00    +0.003 C 
ATOM     14  C   UNL     1       2.979   5.044  -3.182  0.00  0.00    +0.046 C 
BRANCH  13  16
ATOM     15  C   UNL     1       1.786   2.099  -1.396  0.00  0.00    +0.007 C 
ATOM     16  C   UNL     1       2.203   3.347  -1.611  0.00  0.00    -0.002 C 
BRANCH  15  21
ATOM     17  C   UNL     1       0.250   3.449   2.898  0.00  0.00    +0.038 C 
ATOM     18  C   UNL     1       0.142   2.997   1.440  0.00  0.00    +0.119 C 
ATOM     19  C   UNL     1      -0.571   1.624   1.354  0.00  0.00    +0.065 C 
ATOM     20  C   UNL     1      -0.013   1.086   0.008  0.00  0.00    +0.150 C 
ATOM     21  C   UNL     1       1.422   1.655  -0.003  0.00  0.00    +0.170 C 
ATOM     22  O   UNL     1       1.450   2.775   0.889  0.00  0.00    -0.367 OA
BRANCH  20  23
ATOM     23  O   UNL     1      -0.767   1.588  -1.097  0.00  0.00    -0.389 OA
ATOM     24  H   UNL     1      -0.498   1.299  -2.123  0.00  0.00    +0.210 HD
ENDBRANCH  20  23
ENDBRANCH  15  21
ENDBRANCH  13  16
ENDBRANCH   1  14
BRANCH   7  25
ATOM     25  O   UNL     1       5.303  10.109  -7.897  0.00  0.00    -0.505 OA
ATOM     26  H   UNL     1       5.393  10.839  -7.079  0.00  0.00    +0.292 HD
ENDBRANCH   7  25
BRANCH   5  27
ATOM     27  O   UNL     1       4.224   5.751  -9.459  0.00  0.00    -0.506 OA
ATOM     28  H   UNL     1       4.485   6.058 -10.482  0.00  0.00    +0.292 HD
ENDBRANCH   5  27
TORSDOF 6
