REMARK  Name = ZINC50692269
REMARK  7 active torsions:
REMARK  status: ('A' for Active; 'I' for Inactive)
REMARK    1  A    between atoms: C_1  and  C_2
REMARK    2  A    between atoms: C_2  and  C_4
REMARK    3  A    between atoms: C_2  and  N_11
REMARK    4  A    between atoms: C_4  and  N_5
REMARK    5  A    between atoms: N_11  and  S_12
REMARK    6  A    between atoms: S_12  and  C_15
REMARK    7  A    between atoms: C_20  and  N_21
REMARK                            x       y       z     vdW  Elec       q    Type
REMARK                         _______ _______ _______ _____ _____    ______ ____
ROOT
ATOM      1  S   UNL     1      -2.046  -0.863  -1.427  0.00  0.00    +0.062 S 
ATOM      2  O   UNL     1      -3.365  -1.302  -1.129  0.00  0.00    -0.153 OA
ATOM      3  O   UNL     1      -1.771   0.078  -2.456  0.00  0.00    -0.153 OA
ENDROOT
BRANCH   1   4
ATOM      4  C   UNL     1      -1.107  -2.307  -1.802  0.00  0.00    +0.146 A 
ATOM      5  C   UNL     1      -0.309  -2.350  -2.930  0.00  0.00    +0.048 A 
ATOM      6  C   UNL     1       0.414  -3.508  -3.187  0.00  0.00    +0.038 A 
ATOM      7  C   UNL     1       0.315  -4.574  -2.313  0.00  0.00    +0.128 A 
ATOM      8  N   UNL     1      -0.456  -4.504  -1.245  0.00  0.00    -0.238 NA
ATOM      9  C   UNL     1      -1.155  -3.415  -0.963  0.00  0.00    +0.143 A 
ATOM     10 BR   UNL     1       1.522  -3.625  -4.715  0.00  0.00    -0.049 Br
BRANCH   9  11
ATOM     11  N   UNL     1      -1.949  -3.383   0.178  0.00  0.00    -0.342 N 
ATOM     12  H   UNL     1      -2.513  -2.613   0.354  0.00  0.00    +0.144 HD
ATOM     13  H   UNL     1      -1.939  -4.129   0.797  0.00  0.00    +0.144 HD
ENDBRANCH   9  11
ENDBRANCH   1   4
BRANCH   1  14
ATOM     14  N   UNL     1      -1.431  -0.228  -0.027  0.00  0.00    -0.189 NA
ATOM     15  H   UNL     1      -1.970  -0.218   0.779  0.00  0.00    +0.148 HD
BRANCH  14  17
ATOM     16  C   UNL     1      -0.122   1.821  -0.294  0.00  0.00    +0.024 C 
ATOM     17  C   UNL     1      -0.072   0.319  -0.006  0.00  0.00    +0.057 C 
BRANCH  17  18
ATOM     18  C   UNL     1       0.551   0.084   1.371  0.00  0.00    -0.059 C 
BRANCH  18  19
ATOM     19  N   UNL     1       0.578  -1.357   1.657  0.00  0.00    +0.381 N 
ATOM     20  C   UNL     1       1.016  -1.571   3.042  0.00  0.00    -0.079 C 
ATOM     21  C   UNL     1       0.968  -3.064   3.371  0.00  0.00    -0.019 C 
ATOM     22  C   UNL     1       1.895  -3.822   2.417  0.00  0.00    -0.004 C 
ATOM     23  C   UNL     1       1.474  -3.532   0.973  0.00  0.00    -0.019 C 
ATOM     24  C   UNL     1       1.504  -2.021   0.733  0.00  0.00    -0.079 C 
ATOM     25  H   UNL     1      -0.348  -1.739   1.537  0.00  0.00    -0.082 HD
ENDBRANCH  18  19
ENDBRANCH  17  18
ENDBRANCH  14  17
ENDBRANCH   1  14
TORSDOF 6
