REMARK  Name = ZINC00729433
REMARK  7 active torsions:
REMARK  status: ('A' for Active; 'I' for Inactive)
REMARK    1  A    between atoms: C_1  and  C_2
REMARK    2  A    between atoms: C_2  and  O_3
REMARK    3  A    between atoms: O_3  and  C_4
REMARK    4  A    between atoms: C_6  and  C_12
REMARK    5  A    between atoms: C_9  and  O_10
REMARK    6  A    between atoms: C_21  and  C_31
REMARK    7  A    between atoms: C_22  and  C_23
REMARK                            x       y       z     vdW  Elec       q    Type
REMARK                         _______ _______ _______ _____ _____    ______ ____
ROOT
ATOM      1  C   UNL     1      -0.212  -5.012   0.841  0.00  0.00    +0.091 C 
ATOM      2  C   UNL     1      -1.094  -5.993   0.091  0.00  0.00    +0.028 C 
ATOM      3  C   UNL     1      -2.276  -5.594  -0.409  0.00  0.00    +0.162 C 
ATOM      4  C   UNL     1      -3.170  -6.549  -1.155  0.00  0.00    +0.080 C 
ATOM      5  C   UNL     1      -2.311  -7.612  -1.845  0.00  0.00    +0.014 C 
ATOM      6  C   UNL     1      -1.464  -8.327  -0.788  0.00  0.00    +0.056 C 
ATOM      7  C   UNL     1      -0.625  -7.309  -0.053  0.00  0.00    +0.049 C 
ATOM      8  N   UNL     1       0.536  -7.669   0.443  0.00  0.00    -0.256 NA
ATOM      9  C   UNL     1       1.369  -6.880   1.109  0.00  0.00    +0.048 C 
ATOM     10  C   UNL     1       1.102  -5.572   1.355  0.00  0.00    +0.047 C 
ATOM     11  C   UNL     1       2.666  -7.460   1.610  0.00  0.00    +0.066 C 
ATOM     12  O   UNL     1      -2.669  -4.317  -0.239  0.00  0.00    -0.292 OA
ENDROOT
BRANCH  10  13
ATOM     13  C   UNL     1       2.015  -4.763   2.066  0.00  0.00    +0.245 C 
ATOM     14  O   UNL     1       2.819  -4.076   1.462  0.00  0.00    -0.270 OA
ATOM     15  N   UNL     1       1.997  -4.752   3.414  0.00  0.00    -0.298 N 
ATOM     16  C   UNL     1       1.115  -5.660   4.158  0.00  0.00    +0.108 C 
ATOM     17  C   UNL     1       1.956  -6.448   5.168  0.00  0.00    +0.019 C 
ATOM     18  C   UNL     1       2.738  -5.469   6.048  0.00  0.00    +0.003 C 
ATOM     19  C   UNL     1       3.682  -4.639   5.175  0.00  0.00    +0.019 C 
ATOM     20  C   UNL     1       2.865  -3.835   4.166  0.00  0.00    +0.108 C 
ENDBRANCH  10  13
BRANCH   1  23
ATOM     21  C   UNL     1       0.017  -1.508  -0.555  0.00  0.00    +0.163 A 
ATOM     22  C   UNL     1      -0.264  -2.572   0.288  0.00  0.00    +0.054 A 
ATOM     23  C   UNL     1       0.094  -3.856  -0.077  0.00  0.00    -0.031 A 
ATOM     24  C   UNL     1       0.733  -4.084  -1.282  0.00  0.00    +0.023 A 
ATOM     25  C   UNL     1       1.016  -3.026  -2.127  0.00  0.00    +0.063 A 
ATOM     26  C   UNL     1       0.654  -1.737  -1.770  0.00  0.00    +0.173 A 
ATOM     27 BR   UNL     1       1.891  -3.341  -3.774  0.00  0.00    -0.046 Br
BRANCH  26  28
ATOM     28  O   UNL     1       0.927  -0.697  -2.603  0.00  0.00    -0.503 OA
ATOM     29  H   UNL     1       1.791  -0.288  -2.452  0.00  0.00    +0.292 HD
ENDBRANCH  26  28
BRANCH  21  30
ATOM     30  O   UNL     1      -0.335  -0.244  -0.197  0.00  0.00    -0.489 OA
BRANCH  30  32
ATOM     31  C   UNL     1      -1.102   1.421   1.377  0.00  0.00    +0.048 C 
ATOM     32  C   UNL     1      -0.885  -0.069   1.110  0.00  0.00    +0.226 C 
ENDBRANCH  30  32
ENDBRANCH  21  30
ENDBRANCH   1  23
TORSDOF 5
