REMARK  Name = ZINC38664530
REMARK  10 active torsions:
REMARK  status: ('A' for Active; 'I' for Inactive)
REMARK    1  A    between atoms: C_1  and  C_2
REMARK    2  A    between atoms: N_5  and  C_17
REMARK    3  A    between atoms: N_8  and  C_9
REMARK    4  A    between atoms: C_13  and  O_15
REMARK    5  A    between atoms: O_15  and  C_16
REMARK    6  A    between atoms: C_17  and  C_18
REMARK    7  A    between atoms: N_20  and  C_21
REMARK    8  A    between atoms: C_29  and  C_31
REMARK    9  A    between atoms: C_31  and  O_33
REMARK   10  A    between atoms: O_33  and  C_34
REMARK                            x       y       z     vdW  Elec       q    Type
REMARK                         _______ _______ _______ _____ _____    ______ ____
ROOT
ATOM      1  C   UNL     1       1.288  -4.952  -3.347  0.00  0.00    +0.200 C 
ATOM      2  O   UNL     1       1.038  -4.845  -2.165  0.00  0.00    -0.278 OA
ATOM      3  N   UNL     1       1.387  -6.175  -3.906  0.00  0.00    -0.288 N 
ATOM      4  H   UNL     1       1.654  -6.263  -4.834  0.00  0.00    +0.155 HD
ENDROOT
BRANCH   3   5
ATOM      5  C   UNL     1       1.113  -7.286  -3.167  0.00  0.00    +0.053 C 
ATOM      6  C   UNL     1       1.252  -8.606  -3.560  0.00  0.00    +0.019 A 
ATOM      7  C   UNL     1       1.691  -9.202  -4.767  0.00  0.00    +0.026 A 
ATOM      8  C   UNL     1       1.725 -10.554  -4.875  0.00  0.00    +0.019 A 
ATOM      9  C   UNL     1       1.336 -11.384  -3.820  0.00  0.00    +0.017 A 
ATOM     10  C   UNL     1       0.905 -10.883  -2.636  0.00  0.00    +0.027 A 
ATOM     11  C   UNL     1       0.841  -9.478  -2.446  0.00  0.00    +0.045 A 
ATOM     12  N   UNL     1       0.465  -8.755  -1.410  0.00  0.00    -0.367 N 
ATOM     13  C   UNL     1       0.600  -7.333  -1.745  0.00  0.00    +0.234 C 
ATOM     14 BR   UNL     1       2.312 -11.335  -6.494  0.00  0.00    -0.050 Br
ATOM     15  H   UNL     1       0.154  -9.106  -0.562  0.00  0.00    +0.161 HD
BRANCH  13  16
ATOM     16  C   UNL     1      -0.742  -6.653  -1.654  0.00  0.00    +0.335 C 
ATOM     17  O   UNL     1      -1.737  -7.228  -2.027  0.00  0.00    -0.248 OA
BRANCH  16  18
ATOM     18  O   UNL     1      -0.831  -5.408  -1.159  0.00  0.00    -0.466 OA
ATOM     19  C   UNL     1      -2.134  -4.825  -1.103  0.00  0.00    +0.280 C 
ENDBRANCH  16  18
ENDBRANCH  13  16
ENDBRANCH   3   5
BRANCH   1  20
ATOM     20  C   UNL     1       1.488  -3.720  -4.190  0.00  0.00    +0.019 C 
BRANCH  20  24
ATOM     21  C   UNL     1       1.343   1.178  -4.186  0.00  0.00    +0.026 C 
ATOM     22  C   UNL     1       1.126  -0.082  -3.345  0.00  0.00    +0.054 C 
ATOM     23  C   UNL     1       1.405  -1.324  -4.197  0.00  0.00    -0.056 C 
ATOM     24  N   UNL     1       1.329  -2.523  -3.353  0.00  0.00    +0.388 N 
ATOM     25  C   UNL     1       2.393  -2.490  -2.342  0.00  0.00    -0.059 C 
ATOM     26  C   UNL     1       2.163  -1.306  -1.397  0.00  0.00    +0.087 C 
ATOM     27  N   UNL     1       2.051  -0.078  -2.201  0.00  0.00    -0.331 N 
ATOM     28  H   UNL     1       0.431  -2.553  -2.894  0.00  0.00    -0.081 HD
BRANCH  27  29
ATOM     29  C   UNL     1       2.806   1.056  -1.891  0.00  0.00    +0.033 A 
ATOM     30  C   UNL     1       4.118   1.161  -2.337  0.00  0.00    +0.023 A 
ATOM     31  C   UNL     1       4.864   2.283  -2.030  0.00  0.00    +0.005 A 
ATOM     32  C   UNL     1       4.308   3.302  -1.280  0.00  0.00    +0.046 A 
ATOM     33  C   UNL     1       2.998   3.202  -0.833  0.00  0.00    +0.122 A 
ATOM     34  C   UNL     1       2.244   2.080  -1.143  0.00  0.00    +0.068 A 
BRANCH  33  35
ATOM     35  O   UNL     1       2.453   4.205  -0.096  0.00  0.00    -0.495 OA
ATOM     36  C   UNL     1       3.286   5.333   0.181  0.00  0.00    +0.277 C 
ENDBRANCH  33  35
ENDBRANCH  27  29
ENDBRANCH  20  24
ENDBRANCH   1  20
TORSDOF 7
