REMARK  Name = ZINC03648815
REMARK  7 active torsions:
REMARK  status: ('A' for Active; 'I' for Inactive)
REMARK    1  A    between atoms: C_1  and  C_2
REMARK    2  A    between atoms: C_4  and  N_26
REMARK    3  A    between atoms: C_8  and  N_11
REMARK    4  A    between atoms: C_12  and  C_14
REMARK    5  A    between atoms: C_14  and  N_15
REMARK    6  A    between atoms: C_16  and  C_25
REMARK    7  A    between atoms: C_18  and  C_20
REMARK                            x       y       z     vdW  Elec       q    Type
REMARK                         _______ _______ _______ _____ _____    ______ ____
ROOT
ATOM      1  C   UNL     1       2.496  -0.312  -0.571  0.00  0.00    +0.044 C 
ATOM      2  C   UNL     1       2.421   1.178  -0.358  0.00  0.00    -0.038 A 
ATOM      3  C   UNL     1       3.551   1.940  -0.349  0.00  0.00    +0.045 A 
ATOM      4  C   UNL     1       3.457   3.324  -0.150  0.00  0.00    +0.099 A 
ATOM      5  C   UNL     1       1.152   3.222   0.031  0.00  0.00    +0.048 A 
ATOM      6  C   UNL     1       1.181   1.819  -0.165  0.00  0.00    +0.003 A 
ATOM      7  C   UNL     1      -0.020   1.093  -0.164  0.00  0.00    +0.033 A 
ATOM      8  C   UNL     1      -1.213   1.756   0.023  0.00  0.00    +0.034 A 
ATOM      9  C   UNL     1      -1.234   3.140   0.221  0.00  0.00    +0.025 A 
ATOM     10  C   UNL     1      -0.083   3.865   0.224  0.00  0.00    +0.028 A 
ATOM     11  N   UNL     1       2.293   3.994   0.041  0.00  0.00    -0.343 N 
ATOM     12  H   UNL     1       2.264   5.010   0.183  0.00  0.00    +0.167 HD
ENDROOT
BRANCH   4  13
ATOM     13  N   UNL     1       4.616   4.088  -0.144  0.00  0.00    -0.317 N 
ATOM     14  C   UNL     1       5.570   3.588   0.855  0.00  0.00    +0.106 C 
ATOM     15  C   UNL     1       6.887   4.358   0.734  0.00  0.00    +0.019 C 
ATOM     16  C   UNL     1       6.622   5.850   0.956  0.00  0.00    +0.003 C 
ATOM     17  C   UNL     1       5.589   6.334  -0.066  0.00  0.00    +0.019 C 
ATOM     18  C   UNL     1       4.310   5.507   0.077  0.00  0.00    +0.106 C 
ENDBRANCH   4  13
BRANCH   8  19
ATOM     19  N   UNL     1      -2.414   1.037   0.019  0.00  0.00    -0.284 N 
ATOM     20  C   UNL     1      -3.537   1.603  -0.466  0.00  0.00    +0.239 C 
ATOM     21  O   UNL     1      -3.488   2.698  -0.986  0.00  0.00    -0.273 OA
ATOM     22  H   UNL     1      -2.439   0.131   0.365  0.00  0.00    +0.155 HD
BRANCH  20  23
ATOM     23  C   UNL     1      -4.853   0.877  -0.363  0.00  0.00    +0.239 C 
BRANCH  23  24
ATOM     24  N   UNL     1      -5.912   1.696  -0.958  0.00  0.00    -0.258 N 
ATOM     25  C   UNL     1      -6.303   1.672  -2.250  0.00  0.00    +0.051 A 
ATOM     26  C   UNL     1      -7.303   2.573  -2.394  0.00  0.00    +0.070 A 
ATOM     27  C   UNL     1      -7.530   3.167  -1.148  0.00  0.00    +0.179 A 
ATOM     28  N   UNL     1      -6.700   2.639  -0.286  0.00  0.00    -0.165 NA
ATOM     29 BR   UNL     1      -8.229   2.959  -3.997  0.00  0.00    -0.046 Br
ATOM     30  C   UNL     1      -5.730   0.799  -3.336  0.00  0.00    +0.066 C 
BRANCH  27  31
ATOM     31  C   UNL     1      -8.558   4.228  -0.849  0.00  0.00    +0.437 C 
ATOM     32  F   UNL     1      -9.760   3.620  -0.471  0.00  0.00    -0.164 F 
ATOM     33  F   UNL     1      -8.099   5.042   0.192  0.00  0.00    -0.164 F 
ATOM     34  F   UNL     1      -8.770   5.007  -1.992  0.00  0.00    -0.164 F 
ENDBRANCH  27  31
ENDBRANCH  23  24
ENDBRANCH  20  23
ENDBRANCH   8  19
TORSDOF 5
