REMARK  Name = ZINC65266399
REMARK  9 active torsions:
REMARK  status: ('A' for Active; 'I' for Inactive)
REMARK    1  A    between atoms: C_1  and  C_2
REMARK    2  A    between atoms: C_2  and  C_3
REMARK    3  A    between atoms: C_2  and  C_4
REMARK    4  A    between atoms: C_2  and  N_5
REMARK    5  A    between atoms: C_20  and  C_22
REMARK    6  A    between atoms: C_26  and  O_30
REMARK    7  A    between atoms: C_27  and  O_28
REMARK    8  A    between atoms: O_28  and  C_29
REMARK    9  A    between atoms: O_30  and  C_31
REMARK                            x       y       z     vdW  Elec       q    Type
REMARK                         _______ _______ _______ _____ _____    ______ ____
ROOT
ATOM      1  N   UNL     1       0.312  -1.147  -1.374  0.00  0.00    -0.370 N 
ATOM      2  C   UNL     1       1.597  -1.042  -1.275  0.00  0.00    +0.099 C 
ATOM      3  N   UNL     1       2.212  -0.726  -0.074  0.00  0.00    -0.286 N 
ATOM      4  C   UNL     1       3.342   0.100  -0.118  0.00  0.00    +0.145 A 
ATOM      5  C   UNL     1       3.976   0.363  -1.334  0.00  0.00    +0.069 A 
ATOM      6  C   UNL     1       5.102   1.172  -1.353  0.00  0.00    +0.028 A 
ATOM      7  C   UNL     1       5.554   1.700  -0.151  0.00  0.00    +0.022 A 
ATOM      8  C   UNL     1       4.874   1.405   1.014  0.00  0.00    +0.113 A 
ATOM      9  N   UNL     1       3.807   0.628   1.003  0.00  0.00    -0.238 NA
ATOM     10  N   UNL     1       3.475  -0.171  -2.531  0.00  0.00    -0.328 N 
ATOM     11  C   UNL     1       2.504  -1.264  -2.456  0.00  0.00    +0.103 C 
ATOM     12  C   UNL     1       3.204  -2.632  -2.359  0.00  0.00    +0.054 C 
ATOM     13  C   UNL     1       3.470  -2.989  -3.838  0.00  0.00    +0.111 C 
ATOM     14  N   UNL     1       2.537  -2.196  -4.654  0.00  0.00    -0.295 N 
ATOM     15  C   UNL     1       1.692  -1.384  -3.756  0.00  0.00    +0.141 C 
ATOM     16  C   UNL     1       2.466  -2.209  -6.000  0.00  0.00    +0.250 C 
ATOM     17  O   UNL     1       1.596  -1.578  -6.569  0.00  0.00    -0.270 OA
ATOM     18  H   UNL     1      -0.097  -1.288  -2.242  0.00  0.00    +0.161 HD
ATOM     19  H   UNL     1       3.768   0.174  -3.389  0.00  0.00    +0.147 HD
ATOM     20  H   UNL     1       1.872  -1.066   0.768  0.00  0.00    +0.155 HD
ENDROOT
BRANCH  16  21
ATOM     21  C   UNL     1       3.443  -2.989  -6.784  0.00  0.00    +0.082 A 
ATOM     22  C   UNL     1       3.733  -4.310  -6.429  0.00  0.00    +0.017 A 
ATOM     23  C   UNL     1       4.645  -5.035  -7.163  0.00  0.00    +0.005 A 
ATOM     24  C   UNL     1       5.280  -4.463  -8.254  0.00  0.00    +0.049 A 
ATOM     25  C   UNL     1       5.003  -3.156  -8.617  0.00  0.00    +0.162 A 
ATOM     26  C   UNL     1       4.080  -2.412  -7.888  0.00  0.00    +0.174 A 
BRANCH  26  27
ATOM     27  O   UNL     1       3.801  -1.133  -8.245  0.00  0.00    -0.491 OA
ATOM     28  C   UNL     1       4.605  -0.107  -7.659  0.00  0.00    +0.277 C 
ENDBRANCH  26  27
BRANCH  25  29
ATOM     29  O   UNL     1       5.630  -2.601  -9.688  0.00  0.00    -0.491 OA
ATOM     30  C   UNL     1       6.562  -3.424 -10.393  0.00  0.00    +0.277 C 
ENDBRANCH  25  29
ENDBRANCH  16  21
BRANCH   1  32
ATOM     31  C   UNL     1      -0.227   0.260   0.552  0.00  0.00    +0.033 C 
ATOM     32  C   UNL     1      -0.525  -1.052  -0.176  0.00  0.00    +0.031 C 
ATOM     33  C   UNL     1      -0.224  -2.231   0.752  0.00  0.00    +0.033 C 
ATOM     34  C   UNL     1      -2.001  -1.087  -0.581  0.00  0.00    +0.033 C 
ENDBRANCH   1  32
TORSDOF 4
