REMARK  Name = ZINC32602084
REMARK  11 active torsions:
REMARK  status: ('A' for Active; 'I' for Inactive)
REMARK    1  A    between atoms: C_1  and  C_2
REMARK    2  A    between atoms: C_4  and  S_12
REMARK    3  A    between atoms: C_5  and  C_9
REMARK    4  A    between atoms: C_9  and  C_10
REMARK    5  A    between atoms: C_9  and  C_11
REMARK    6  A    between atoms: S_12  and  N_15
REMARK    7  A    between atoms: N_15  and  C_16
REMARK    8  A    between atoms: C_18  and  C_24
REMARK    9  A    between atoms: C_18  and  C_25
REMARK   10  A    between atoms: C_20  and  C_22
REMARK   11  A    between atoms: C_20  and  C_23
REMARK                            x       y       z     vdW  Elec       q    Type
REMARK                         _______ _______ _______ _____ _____    ______ ____
ROOT
ATOM      1  S   UNL     1       1.126   4.067  -4.305  0.00  0.00    +0.059 S 
ATOM      2  O   UNL     1       1.490   5.167  -3.482  0.00  0.00    -0.153 OA
ATOM      3  O   UNL     1       1.754   3.808  -5.553  0.00  0.00    -0.153 OA
ENDROOT
BRANCH   1   7
ATOM      4  C   UNL     1      -3.407   6.629  -3.846  0.00  0.00    +0.045 C 
ATOM      5  C   UNL     1      -2.647   5.447  -4.391  0.00  0.00    -0.035 A 
ATOM      6  C   UNL     1      -1.296   5.314  -4.129  0.00  0.00    +0.033 A 
ATOM      7  C   UNL     1      -0.597   4.233  -4.633  0.00  0.00    +0.109 A 
ATOM      8  C   UNL     1      -1.252   3.278  -5.389  0.00  0.00    -0.017 A 
ATOM      9  C   UNL     1      -2.603   3.407  -5.646  0.00  0.00    +0.021 A 
ATOM     10  C   UNL     1      -3.302   4.492  -5.147  0.00  0.00    +0.021 A 
ATOM     11 BR   UNL     1      -5.152   4.668  -5.497  0.00  0.00    -0.050 Br
BRANCH   8  12
ATOM     12  C   UNL     1      -0.491   2.096  -5.933  0.00  0.00    +0.015 C 
ATOM     13  C   UNL     1      -1.183   0.802  -5.502  0.00  0.00    +0.012 C 
ATOM     14  C   UNL     1      -0.456   2.171  -7.461  0.00  0.00    +0.012 C 
ENDBRANCH   8  12
ENDBRANCH   1   7
BRANCH   1  15
ATOM     15  N   UNL     1       1.321   2.703  -3.385  0.00  0.00    -0.187 NA
ATOM     16  H   UNL     1       2.005   1.915  -3.731  0.00  0.00    +0.148 HD
BRANCH  15  17
ATOM     17  C   UNL     1       0.760   2.646  -2.029  0.00  0.00    +0.074 C 
ATOM     18  C   UNL     1       1.710   1.861  -1.125  0.00  0.00    +0.007 C 
ATOM     19  C   UNL     1       1.141   1.768   0.289  0.00  0.00    -0.072 C 
ATOM     20  N   UNL     1      -0.238   1.330   0.315  0.00  0.00    +0.386 N 
ATOM     21  C   UNL     1      -1.180   1.825  -0.668  0.00  0.00    -0.072 C 
ATOM     22  C   UNL     1      -0.584   1.919  -2.070  0.00  0.00    +0.007 C 
ATOM     23  C   UNL     1      -2.369   0.841  -0.734  0.00  0.00    -0.010 C 
ATOM     24  C   UNL     1      -1.743   3.190  -0.257  0.00  0.00    -0.010 C 
ATOM     25  C   UNL     1       1.308   3.117   0.998  0.00  0.00    -0.010 C 
ATOM     26  C   UNL     1       1.990   0.735   1.064  0.00  0.00    -0.010 C 
ATOM     27  H   UNL     1      -0.279   0.237   0.191  0.00  0.00    -0.084 HD
ATOM     28  H   UNL     1      -0.693   1.607   1.277  0.00  0.00    -0.084 HD
ENDBRANCH  15  17
ENDBRANCH   1  15
TORSDOF 4
