REMARK  Name = ZINC09281708
REMARK  10 active torsions:
REMARK  status: ('A' for Active; 'I' for Inactive)
REMARK    1  A    between atoms: C_1  and  O_2
REMARK    2  A    between atoms: O_2  and  C_3
REMARK    3  A    between atoms: C_6  and  C_9
REMARK    4  A    between atoms: C_17  and  O_37
REMARK    5  A    between atoms: C_20  and  C_21
REMARK    6  A    between atoms: C_20  and  N_72
REMARK    7  A    between atoms: N_23  and  C_24
REMARK    8  A    between atoms: C_25  and  C_33
REMARK    9  A    between atoms: C_33  and  O_35
REMARK   10  A    between atoms: O_35  and  C_36
REMARK                            x       y       z     vdW  Elec       q    Type
REMARK                         _______ _______ _______ _____ _____    ______ ____
ROOT
ATOM      1  C   UNL     1      -2.089  -1.742   7.246  0.00  0.00    -0.031 C 
ATOM      2  C   UNL     1      -2.946  -2.529   8.238  0.00  0.00    +0.011 C 
ATOM      3  C   UNL     1      -2.238  -2.612   9.591  0.00  0.00    +0.005 C 
ATOM      4  C   UNL     1      -3.106  -3.409  10.567  0.00  0.00    +0.000 C 
ATOM      5  C   UNL     1      -4.458  -2.715  10.738  0.00  0.00    +0.003 C 
ATOM      6  C   UNL     1      -5.163  -2.621   9.382  0.00  0.00    +0.035 C 
ATOM      7  C   UNL     1      -4.291  -1.818   8.416  0.00  0.00    +0.066 C 
ATOM      8  C   UNL     1      -4.982  -1.708   7.056  0.00  0.00    +0.016 C 
ATOM      9  C   UNL     1      -4.069  -0.949   6.089  0.00  0.00    -0.075 C 
ATOM     10  N   UNL     1      -2.795  -1.687   5.947  0.00  0.00    +0.390 N 
ATOM     11  H   UNL     1      -2.998  -2.645   5.637  0.00  0.00    -0.080 HD
ENDROOT
BRANCH   1  15
ATOM     12  C   UNL     1      -1.408   2.196   8.758  0.00  0.00    +0.120 A 
ATOM     13  C   UNL     1      -0.993   1.091   9.487  0.00  0.00    +0.046 A 
ATOM     14  C   UNL     1      -1.214  -0.181   8.995  0.00  0.00    +0.005 A 
ATOM     15  C   UNL     1      -1.849  -0.353   7.779  0.00  0.00    -0.060 A 
ATOM     16  C   UNL     1      -2.258   0.747   7.049  0.00  0.00    +0.005 A 
ATOM     17  C   UNL     1      -2.044   2.021   7.538  0.00  0.00    +0.046 A 
BRANCH  12  19
ATOM     18  C   UNL     1      -1.645   4.540   8.437  0.00  0.00    +0.277 C 
ATOM     19  O   UNL     1      -1.191   3.449   9.240  0.00  0.00    -0.495 OA
ENDBRANCH  12  19
ENDBRANCH   1  15
BRANCH   7  20
ATOM     20  O   UNL     1      -4.072  -0.509   8.947  0.00  0.00    -0.388 OA
ATOM     21  H   UNL     1      -4.882  -0.000   9.086  0.00  0.00    +0.210 HD
ENDBRANCH   7  20
BRANCH  10  22
ATOM     22  C   UNL     1      -1.942  -1.028   4.937  0.00  0.00    +0.020 C 
BRANCH  22  23
ATOM     23  C   UNL     1      -2.507  -1.312   3.569  0.00  0.00    +0.201 C 
ATOM     24  O   UNL     1      -3.517  -1.974   3.455  0.00  0.00    -0.278 OA
ATOM     25  N   UNL     1      -1.891  -0.830   2.472  0.00  0.00    -0.281 N 
ATOM     26  H   UNL     1      -1.083  -0.301   2.562  0.00  0.00    +0.155 HD
BRANCH  25  27
ATOM     27  C   UNL     1      -2.411  -1.091   1.214  0.00  0.00    +0.086 A 
ATOM     28  C   UNL     1      -1.924  -0.686  -0.022  0.00  0.00    +0.091 A 
ATOM     29  C   UNL     1      -2.667  -1.095  -1.203  0.00  0.00    -0.021 A 
ATOM     30  C   UNL     1      -3.764  -1.845  -0.961  0.00  0.00    -0.004 A 
ATOM     31  S   UNL     1      -3.825  -2.002   0.801  0.00  0.00    -0.077 S 
ATOM     32  C   UNL     1      -4.714  -2.407  -1.973  0.00  0.00    +0.043 C 
ATOM     33  C   UNL     1      -4.467  -1.701  -3.314  0.00  0.00    +0.005 C 
ATOM     34  C   UNL     1      -2.962  -1.690  -3.596  0.00  0.00    +0.005 C 
ATOM     35  C   UNL     1      -2.258  -0.738  -2.627  0.00  0.00    +0.037 C 
BRANCH  28  36
ATOM     36  C   UNL     1      -0.711   0.127  -0.132  0.00  0.00    +0.342 C 
ATOM     37  O   UNL     1       0.375  -0.412  -0.236  0.00  0.00    -0.245 OA
BRANCH  36  38
ATOM     38  O   UNL     1      -0.797   1.472  -0.118  0.00  0.00    -0.464 OA
ATOM     39  C   UNL     1       0.446   2.214  -0.231  0.00  0.00    +0.280 C 
ENDBRANCH  36  38
ENDBRANCH  28  36
ENDBRANCH  25  27
ENDBRANCH  22  23
ENDBRANCH  10  22
TORSDOF 8
