REMARK  Name = ZINC63362116
REMARK  8 active torsions:
REMARK  status: ('A' for Active; 'I' for Inactive)
REMARK    1  A    between atoms: C_1  and  C_2
REMARK    2  A    between atoms: C_2  and  C_4
REMARK    3  A    between atoms: C_2  and  N_12
REMARK    4  A    between atoms: C_4  and  C_5
REMARK    5  A    between atoms: C_5  and  C_6
REMARK    6  A    between atoms: C_13  and  C_15
REMARK    7  A    between atoms: C_20  and  N_21
REMARK    8  A    between atoms: C_24  and  C_40
REMARK                            x       y       z     vdW  Elec       q    Type
REMARK                         _______ _______ _______ _____ _____    ______ ____
ROOT
ATOM      1  C   UNL     1       2.722  -1.063  -2.429  0.00  0.00    +0.059 A 
ATOM      2  C   UNL     1       1.988  -1.394  -3.570  0.00  0.00    +0.015 A 
ATOM      3  C   UNL     1       2.639  -1.838  -4.701  0.00  0.00    +0.001 A 
ATOM      4  C   UNL     1       4.019  -1.957  -4.712  0.00  0.00    +0.002 A 
ATOM      5  C   UNL     1       4.757  -1.633  -3.591  0.00  0.00    +0.025 A 
ATOM      6  C   UNL     1       4.119  -1.179  -2.446  0.00  0.00    +0.058 A 
ENDROOT
BRANCH   6   7
ATOM      7  N   UNL     1       4.864  -0.846  -1.313  0.00  0.00    -0.192 N 
ATOM      8  C   UNL     1       5.189  -1.718  -0.336  0.00  0.00    +0.253 C 
ATOM      9  O   UNL     1       4.877  -2.887  -0.266  0.00  0.00    -0.272 OA
ATOM     10  C   UNL     1       6.025  -0.934   0.652  0.00  0.00    +0.137 C 
ATOM     11  C   UNL     1       5.330  -0.898   2.018  0.00  0.00    +0.139 C 
ATOM     12  C   UNL     1       5.900   0.304   2.761  0.00  0.00    -0.034 C 
ATOM     13  C   UNL     1       6.411  -0.166   3.896  0.00  0.00    -0.001 A 
ATOM     14  C   UNL     1       7.039   0.514   5.039  0.00  0.00    +0.010 A 
ATOM     15  C   UNL     1       7.468  -0.287   6.050  0.00  0.00    +0.001 A 
ATOM     16  C   UNL     1       7.336  -1.679   6.038  0.00  0.00    +0.002 A 
ATOM     17  C   UNL     1       6.767  -2.387   5.029  0.00  0.00    +0.026 A 
ATOM     18  C   UNL     1       6.274  -1.654   3.910  0.00  0.00    +0.043 A 
ATOM     19  N   UNL     1       5.671  -2.074   2.823  0.00  0.00    -0.375 N 
ATOM     20  C   UNL     1       5.897   1.704   2.197  0.00  0.00    +0.052 C 
ATOM     21  C   UNL     1       6.520   1.628   0.789  0.00  0.00    +0.115 C 
ATOM     22  N   UNL     1       5.983   0.444   0.113  0.00  0.00    -0.268 N 
ATOM     23  C   UNL     1       5.349   0.378  -1.064  0.00  0.00    +0.317 C 
ATOM     24  O   UNL     1       5.223   1.322  -1.820  0.00  0.00    -0.252 OA
ATOM     25  C   UNL     1       7.455  -1.472   0.744  0.00  0.00    +0.044 C 
ATOM     26  H   UNL     1       5.485  -2.996   2.587  0.00  0.00    +0.160 HD
ENDBRANCH   6   7
BRANCH   1  28
ATOM     27  N   UNL     1       0.688  -0.476  -1.203  0.00  0.00    -0.309 N 
ATOM     28  C   UNL     1       2.031  -0.587  -1.215  0.00  0.00    +0.246 C 
ATOM     29  O   UNL     1       2.674  -0.294  -0.225  0.00  0.00    -0.270 OA
ATOM     30  H   UNL     1       0.175  -0.710  -1.993  0.00  0.00    +0.149 HD
BRANCH  27  32
ATOM     31  C   UNL     1      -0.019   1.526   0.010  0.00  0.00    +0.028 C 
ATOM     32  C   UNL     1       0.002  -0.004   0.002  0.00  0.00    +0.070 C 
BRANCH  32  33
ATOM     33  C   UNL     1      -1.433  -0.534   0.013  0.00  0.00    +0.026 C 
BRANCH  33  34
ATOM     34  C   UNL     1      -1.413  -2.059   0.130  0.00  0.00    +0.037 C 
BRANCH  34  35
ATOM     35  C   UNL     1      -2.827  -2.581   0.141  0.00  0.00    -0.047 A 
ATOM     36  C   UNL     1      -3.502  -2.723   1.339  0.00  0.00    +0.003 A 
ATOM     37  C   UNL     1      -4.799  -3.201   1.349  0.00  0.00    +0.000 A 
ATOM     38  C   UNL     1      -5.421  -3.537   0.161  0.00  0.00    +0.000 A 
ATOM     39  C   UNL     1      -4.746  -3.394  -1.037  0.00  0.00    +0.000 A 
ATOM     40  C   UNL     1      -3.451  -2.911  -1.048  0.00  0.00    +0.003 A 
ENDBRANCH  34  35
ENDBRANCH  33  34
ENDBRANCH  32  33
ENDBRANCH  27  32
ENDBRANCH   1  28
TORSDOF 6
