REMARK  Name = ZINC63373251
REMARK  10 active torsions:
REMARK  status: ('A' for Active; 'I' for Inactive)
REMARK    1  A    between atoms: C_1  and  C_2
REMARK    2  A    between atoms: C_2  and  C_3
REMARK    3  A    between atoms: C_3  and  O_4
REMARK    4  A    between atoms: O_4  and  C_5
REMARK    5  A    between atoms: C_8  and  C_14
REMARK    6  A    between atoms: C_10  and  O_11
REMARK    7  A    between atoms: O_11  and  C_12
REMARK    8  A    between atoms: C_12  and  C_13
REMARK    9  A    between atoms: N_20  and  C_35
REMARK   10  A    between atoms: C_23  and  C_34
REMARK                            x       y       z     vdW  Elec       q    Type
REMARK                         _______ _______ _______ _____ _____    ______ ____
ROOT
ATOM      1  C   UNL     1      -6.400  -4.585  -0.003  0.00  0.00    +0.065 C 
ATOM      2  C   UNL     1      -7.246  -4.172  -1.224  0.00  0.00    +0.123 C 
ATOM      3  N   UNL     1      -8.446  -3.491  -0.731  0.00  0.00    -0.268 N 
ATOM      4  C   UNL     1      -8.875  -2.256  -1.027  0.00  0.00    +0.317 C 
ATOM      5  O   UNL     1      -8.388  -1.559  -1.895  0.00  0.00    -0.252 OA
ATOM      6  N   UNL     1      -9.904  -1.879  -0.255  0.00  0.00    -0.192 N 
ATOM      7  C   UNL     1     -10.295  -2.872   0.571  0.00  0.00    +0.253 C 
ATOM      8  O   UNL     1     -11.173  -2.827   1.407  0.00  0.00    -0.272 OA
ATOM      9  C   UNL     1      -9.412  -4.053   0.236  0.00  0.00    +0.137 C 
ATOM     10  C   UNL     1      -8.629  -4.510   1.465  0.00  0.00    +0.139 C 
ATOM     11  C   UNL     1      -7.165  -4.163   1.226  0.00  0.00    -0.027 C 
ATOM     12  C   UNL     1      -6.780  -3.443   2.276  0.00  0.00    -0.000 A 
ATOM     13  C   UNL     1      -5.468  -2.897   2.658  0.00  0.00    +0.010 A 
ATOM     14  C   UNL     1      -5.431  -2.178   3.811  0.00  0.00    +0.001 A 
ATOM     15  C   UNL     1      -6.554  -1.950   4.612  0.00  0.00    +0.002 A 
ATOM     16  C   UNL     1      -7.798  -2.421   4.341  0.00  0.00    +0.026 A 
ATOM     17  C   UNL     1      -7.961  -3.199   3.158  0.00  0.00    +0.043 A 
ATOM     18  N   UNL     1      -9.031  -3.791   2.675  0.00  0.00    -0.375 N 
ATOM     19  C   UNL     1     -10.221  -5.195  -0.383  0.00  0.00    +0.044 C 
ATOM     20  H   UNL     1      -9.926  -3.761   3.047  0.00  0.00    +0.160 HD
ENDROOT
BRANCH   6  21
ATOM     21  C   UNL     1     -10.499  -0.611  -0.299  0.00  0.00    +0.048 A 
ATOM     22  C   UNL     1     -11.638  -0.350   0.451  0.00  0.00    +0.024 A 
ATOM     23  C   UNL     1     -12.223   0.900   0.406  0.00  0.00    +0.005 A 
ATOM     24  C   UNL     1     -11.676   1.893  -0.385  0.00  0.00    +0.038 A 
ATOM     25  C   UNL     1     -10.541   1.637  -1.135  0.00  0.00    +0.125 A 
ATOM     26  C   UNL     1      -9.947   0.388  -1.089  0.00  0.00    +0.062 A 
ATOM     27  F   UNL     1     -10.009   2.609  -1.909  0.00  0.00    -0.205 F 
ENDBRANCH   6  21
BRANCH   1  31
ATOM     28  C   UNL     1      -2.614  -2.599  -0.114  0.00  0.00    +0.162 A 
ATOM     29  C   UNL     1      -3.786  -1.861  -0.090  0.00  0.00    +0.050 A 
ATOM     30  C   UNL     1      -5.008  -2.506  -0.054  0.00  0.00    +0.008 A 
ATOM     31  C   UNL     1      -5.065  -3.887  -0.042  0.00  0.00    -0.035 A 
ATOM     32  C   UNL     1      -3.899  -4.630  -0.066  0.00  0.00    +0.053 A 
ATOM     33  C   UNL     1      -2.671  -3.990  -0.108  0.00  0.00    +0.162 A 
BRANCH  28  34
ATOM     34  O   UNL     1      -1.411  -1.966  -0.150  0.00  0.00    -0.488 OA
BRANCH  34  35
ATOM     35  C   UNL     1      -1.429  -0.537  -0.154  0.00  0.00    +0.229 C 
BRANCH  35  37
ATOM     36  C   UNL     1      -0.014   1.521  -0.200  0.00  0.00    +0.007 C 
ATOM     37  C   UNL     1       0.006  -0.009  -0.196  0.00  0.00    +0.038 C 
ENDBRANCH  35  37
ENDBRANCH  34  35
ENDBRANCH  28  34
BRANCH  33  38
ATOM     38  O   UNL     1      -1.523  -4.719  -0.138  0.00  0.00    -0.489 OA
BRANCH  38  39
ATOM     39  C   UNL     1      -1.657  -6.141  -0.130  0.00  0.00    +0.226 C 
ATOM     40  C   UNL     1      -0.270  -6.785  -0.166  0.00  0.00    +0.048 C 
ENDBRANCH  38  39
ENDBRANCH  33  38
ENDBRANCH   1  31
TORSDOF 7
