REMARK  Name = ZINC49937187
REMARK  2 active torsions:
REMARK  status: ('A' for Active; 'I' for Inactive)
REMARK    1  A    between atoms: C_5  and  C_7
REMARK    2  A    between atoms: C_18  and  C_20
REMARK                            x       y       z     vdW  Elec       q    Type
REMARK                         _______ _______ _______ _____ _____    ______ ____
ROOT
ATOM      1  C   UNL     1       1.382  -2.121  -0.013  0.00  0.00    +0.156 C 
ATOM      2  C   UNL     1       0.649  -2.632   1.240  0.00  0.00    +0.113 C 
ATOM      3  C   UNL     1      -0.424  -3.679   0.987  0.00  0.00    +0.065 C 
ATOM      4  C   UNL     1      -0.910  -4.422   2.155  0.00  0.00    +0.040 A 
ATOM      5  C   UNL     1      -2.104  -5.141   2.118  0.00  0.00    +0.033 A 
ATOM      6  C   UNL     1      -2.518  -5.834   3.238  0.00  0.00    +0.042 A 
ATOM      7  C   UNL     1      -1.749  -5.814   4.392  0.00  0.00    +0.023 A 
ATOM      8  C   UNL     1      -0.567  -5.102   4.440  0.00  0.00    +0.048 A 
ATOM      9  C   UNL     1      -0.133  -4.395   3.328  0.00  0.00    +0.130 A 
ATOM     10  O   UNL     1       1.019  -3.684   3.380  0.00  0.00    -0.483 OA
ATOM     11  C   UNL     1       1.664  -3.306   2.162  0.00  0.00    +0.215 C 
ATOM     12 CL   UNL     1      -4.004  -6.731   3.202  0.00  0.00    -0.084 Cl
ATOM     13  N   UNL     1      -0.817  -3.921  -0.219  0.00  0.00    -0.215 NA
ATOM     14  C   UNL     1      -0.266  -3.376  -1.333  0.00  0.00    +0.249 A 
ATOM     15  N   UNL     1       0.794  -2.535  -1.296  0.00  0.00    -0.221 N 
ATOM     16  N   UNL     1       1.106  -2.218  -2.624  0.00  0.00    -0.156 NA
ATOM     17  C   UNL     1       0.228  -2.832  -3.375  0.00  0.00    +0.247 A 
ATOM     18  N   UNL     1      -0.596  -3.525  -2.611  0.00  0.00    -0.198 NA
ENDROOT
BRANCH   1  23
ATOM     19  C   UNL     1       0.243   1.478   0.042  0.00  0.00    +0.001 A 
ATOM     20  C   UNL     1       1.449   2.149   0.117  0.00  0.00    +0.003 A 
ATOM     21  C   UNL     1       2.635   1.440   0.150  0.00  0.00    +0.039 A 
ATOM     22  C   UNL     1       2.614   0.056   0.108  0.00  0.00    +0.129 A 
ATOM     23  C   UNL     1       1.406  -0.615   0.033  0.00  0.00    +0.013 A 
ATOM     24  C   UNL     1       0.221   0.096   0.000  0.00  0.00    +0.008 A 
ATOM     25  F   UNL     1       3.773  -0.638   0.140  0.00  0.00    -0.205 F 
ENDBRANCH   1  23
BRANCH  11  26
ATOM     26  C   UNL     1       2.220  -4.533   1.486  0.00  0.00    -0.004 A 
ATOM     27  C   UNL     1       3.369  -4.458   0.714  0.00  0.00    +0.027 A 
ATOM     28  C   UNL     1       3.850  -5.604   0.109  0.00  0.00    +0.111 A 
ATOM     29  N   UNL     1       3.228  -6.757   0.259  0.00  0.00    -0.263 NA
ATOM     30  C   UNL     1       2.133  -6.866   0.985  0.00  0.00    +0.111 A 
ATOM     31  C   UNL     1       1.598  -5.764   1.625  0.00  0.00    +0.027 A 
ENDBRANCH  11  26
TORSDOF 2
