REMARK  Name = ZINC30514136
REMARK  8 active torsions:
REMARK  status: ('A' for Active; 'I' for Inactive)
REMARK    1  A    between atoms: C_1  and  C_2
REMARK    2  A    between atoms: C_2  and  C_4
REMARK    3  A    between atoms: C_2  and  N_15
REMARK    4  A    between atoms: N_9  and  C_10
REMARK    5  A    between atoms: C_10  and  C_11
REMARK    6  A    between atoms: N_15  and  C_16
REMARK    7  A    between atoms: C_16  and  C_17
REMARK    8  A    between atoms: C_17  and  N_22
REMARK                            x       y       z     vdW  Elec       q    Type
REMARK                         _______ _______ _______ _____ _____    ______ ____
ROOT
ATOM      1  C   UNL     1      -3.380   4.680  -1.253  0.00  0.00    +0.034 C 
ATOM      2  C   UNL     1      -3.356   3.941   0.086  0.00  0.00    +0.138 C 
ENDROOT
BRANCH   2   3
ATOM      3  C   UNL     1      -3.721   4.897   1.193  0.00  0.00    +0.237 C 
ATOM      4  O   UNL     1      -4.691   4.678   1.887  0.00  0.00    -0.274 OA
ATOM      5  N   UNL     1      -2.966   5.991   1.416  0.00  0.00    -0.239 N 
ATOM      6  C   UNL     1      -3.289   6.842   2.409  0.00  0.00    +0.306 C 
ATOM      7  O   UNL     1      -4.261   6.623   3.105  0.00  0.00    -0.252 OA
ATOM      8  N   UNL     1      -2.534   7.936   2.632  0.00  0.00    -0.291 N 
ATOM      9  H   UNL     1      -2.085   6.189   0.786  0.00  0.00    +0.159 HD
ATOM     10  H   UNL     1      -1.653   8.134   2.002  0.00  0.00    +0.151 HD
BRANCH   8  11
ATOM     11  C   UNL     1      -2.885   8.861   3.712  0.00  0.00    +0.219 C 
BRANCH  11  12
ATOM     12  C   UNL     1      -1.874  10.009   3.749  0.00  0.00    +0.405 C 
ATOM     13  F   UNL     1      -1.896  10.689   2.526  0.00  0.00    -0.169 F 
ATOM     14  F   UNL     1      -2.210  10.893   4.780  0.00  0.00    -0.169 F 
ATOM     15  F   UNL     1      -0.593   9.495   3.974  0.00  0.00    -0.169 F 
ENDBRANCH  11  12
ENDBRANCH   8  11
ENDBRANCH   2   3
BRANCH   2  16
ATOM     16  N   UNL     1      -4.323   2.836   0.054  0.00  0.00    -0.307 NA
ATOM     17  H   UNL     1      -4.641   2.597   1.080  0.00  0.00    +0.123 HD
BRANCH  16  18
ATOM     18  C   UNL     1      -3.730   1.635  -0.547  0.00  0.00    +0.069 C 
BRANCH  18  19
ATOM     19  C   UNL     1      -4.716   0.470  -0.439  0.00  0.00    -0.053 C 
ATOM     20  C   UNL     1      -4.168  -0.759  -1.194  0.00  0.00    -0.011 C 
ATOM     21  C   UNL     1      -5.423  -1.404  -1.832  0.00  0.00    -0.001 C 
ATOM     22  C   UNL     1      -6.261  -0.173  -2.256  0.00  0.00    -0.001 C 
ATOM     23  C   UNL     1      -6.047   0.843  -1.115  0.00  0.00    -0.011 C 
BRANCH  19  24
ATOM     24  N   UNL     1      -4.945   0.135   0.972  0.00  0.00    +0.385 N 
ATOM     25  C   UNL     1      -5.661   1.212   1.659  0.00  0.00    -0.067 C 
ATOM     26  C   UNL     1      -6.285   0.679   2.954  0.00  0.00    +0.050 C 
ATOM     27  S   UNL     1      -4.946   0.089   4.034  0.00  0.00    -0.164 S 
ATOM     28  C   UNL     1      -3.986  -0.993   2.929  0.00  0.00    +0.050 C 
ATOM     29  C   UNL     1      -3.690  -0.222   1.637  0.00  0.00    -0.067 C 
ATOM     30  H   UNL     1      -5.591  -0.754   1.023  0.00  0.00    -0.081 HD
ENDBRANCH  19  24
ENDBRANCH  18  19
ENDBRANCH  16  18
ENDBRANCH   2  16
TORSDOF 7
