REMARK  Name = ZINC61594869
REMARK  10 active torsions:
REMARK  status: ('A' for Active; 'I' for Inactive)
REMARK    1  A    between atoms: C_1  and  C_2
REMARK    2  A    between atoms: C_2  and  C_3
REMARK    3  A    between atoms: C_3  and  N_4
REMARK    4  A    between atoms: C_10  and  S_11
REMARK    5  A    between atoms: S_11  and  C_12
REMARK    6  A    between atoms: C_12  and  C_14
REMARK    7  A    between atoms: C_12  and  C_20
REMARK    8  A    between atoms: C_20  and  C_22
REMARK    9  A    between atoms: C_20  and  N_24
REMARK   10  A    between atoms: C_22  and  C_23
REMARK                            x       y       z     vdW  Elec       q    Type
REMARK                         _______ _______ _______ _____ _____    ______ ____
ROOT
ATOM      1  C   UNL     1      -1.445  -3.873   3.674  0.00  0.00    +0.076 C 
ENDROOT
BRANCH   1   2
ATOM      2  C   UNL     1      -1.359  -3.494   5.130  0.00  0.00    +0.003 A 
ATOM      3  C   UNL     1      -0.472  -3.906   6.069  0.00  0.00    +0.013 A 
ATOM      4  C   UNL     1      -0.586  -3.421   7.358  0.00  0.00    +0.023 A 
ATOM      5  C   UNL     1      -1.582  -2.546   7.646  0.00  0.00    +0.055 A 
ATOM      6  S   UNL     1      -2.395  -2.380   6.065  0.00  0.00    -0.085 S 
ATOM      7 BR   UNL     1      -1.998  -1.714   9.292  0.00  0.00    -0.043 Br
ENDBRANCH   1   2
BRANCH   1   8
ATOM      8  S   UNL     1      -1.259  -2.387   2.651  0.00  0.00    -0.079 S 
BRANCH   8  15
ATOM      9  N   UNL     1      -1.034  -2.253  -0.135  0.00  0.00    -0.271 N 
ATOM     10  C   UNL     1      -0.960  -3.086  -1.192  0.00  0.00    +0.345 A 
ATOM     11  O   UNL     1      -0.854  -2.758  -2.361  0.00  0.00    -0.245 OA
ATOM     12  N   UNL     1      -1.025  -4.348  -0.722  0.00  0.00    -0.226 N 
ATOM     13  H   UNL     1      -0.996  -5.161  -1.251  0.00  0.00    +0.194 HD
ATOM     14  N   UNL     1      -1.143  -4.271   0.673  0.00  0.00    -0.145 NA
ATOM     15  C   UNL     1      -1.141  -3.013   1.008  0.00  0.00    +0.193 A 
BRANCH   9  16
ATOM     16  C   UNL     1      -1.000  -0.790  -0.192  0.00  0.00    +0.129 C 
BRANCH  16  18
ATOM     17  C   UNL     1       0.484   1.220  -0.156  0.00  0.00    +0.005 C 
ATOM     18  C   UNL     1       0.449  -0.309  -0.097  0.00  0.00    +0.018 C 
ENDBRANCH  16  18
ENDBRANCH   9  16
ENDBRANCH   8  15
ENDBRANCH   1   8
BRANCH   1  19
ATOM     19  C   UNL     1      -2.804  -4.519   3.395  0.00  0.00    -0.057 C 
BRANCH  19  20
ATOM     20  N   UNL     1      -3.024  -5.624   4.337  0.00  0.00    +0.381 N 
ATOM     21  H   UNL     1      -3.011  -5.268   5.281  0.00  0.00    -0.090 HD
ATOM     22  H   UNL     1      -3.918  -6.052   4.150  0.00  0.00    -0.090 HD
ATOM     23  H   UNL     1      -2.293  -6.311   4.226  0.00  0.00    -0.090 HD
ENDBRANCH  19  20
BRANCH  19  24
ATOM     24  C   UNL     1      -3.909  -3.475   3.566  0.00  0.00    -0.018 C 
ATOM     25  C   UNL     1      -5.253  -4.086   3.166  0.00  0.00    +0.002 C 
ENDBRANCH  19  24
ENDBRANCH   1  19
TORSDOF 8
