REMARK  Name = ZINC13570713
REMARK  13 active torsions:
REMARK  status: ('A' for Active; 'I' for Inactive)
REMARK    1  A    between atoms: C_1  and  O_2
REMARK    2  A    between atoms: O_2  and  C_3
REMARK    3  A    between atoms: C_5  and  C_13
REMARK    4  A    between atoms: C_7  and  O_11
REMARK    5  A    between atoms: C_8  and  O_9
REMARK    6  A    between atoms: O_9  and  C_10
REMARK    7  A    between atoms: O_11  and  C_12
REMARK    8  A    between atoms: N_15  and  C_16
REMARK    9  A    between atoms: C_16  and  C_18
REMARK   10  A    between atoms: C_16  and  C_22
REMARK   11  A    between atoms: C_18  and  C_19
REMARK   12  A    between atoms: C_19  and  S_20
REMARK   13  A    between atoms: S_20  and  C_21
REMARK                            x       y       z     vdW  Elec       q    Type
REMARK                         _______ _______ _______ _____ _____    ______ ____
ROOT
ATOM      1  C   UNL     1       3.644   0.614  -6.345  0.00  0.00    +0.160 C 
ENDROOT
BRANCH   1   2
ATOM      2  C   UNL     1       4.748  -0.113  -7.069  0.00  0.00    +0.236 C 
ATOM      3  O   UNL     1       4.678  -1.313  -7.233  0.00  0.00    -0.274 OA
ATOM      4  N   UNL     1       5.812   0.570  -7.535  0.00  0.00    -0.300 N 
ATOM      5  C   UNL     1       5.964   2.003  -7.251  0.00  0.00    +0.110 C 
ATOM      6  C   UNL     1       6.160   2.750  -8.575  0.00  0.00    +0.047 C 
ATOM      7  C   UNL     1       7.331   2.130  -9.338  0.00  0.00    +0.064 C 
ATOM      8  C   UNL     1       7.029   0.664  -9.649  0.00  0.00    +0.047 C 
ATOM      9  C   UNL     1       6.845  -0.106  -8.332  0.00  0.00    +0.110 C 
ATOM     10  C   UNL     1       7.560   2.886 -10.619  0.00  0.00    +0.057 A 
ATOM     11  C   UNL     1       8.564   3.776 -10.796  0.00  0.00    +0.039 A 
ATOM     12  N   UNL     1       8.477   4.256 -12.036  0.00  0.00    -0.349 N 
ATOM     13  C   UNL     1       7.456   3.702 -12.639  0.00  0.00    +0.171 A 
ATOM     14  N   UNL     1       6.859   2.841 -11.782  0.00  0.00    -0.348 N 
ATOM     15  H   UNL     1       6.078   2.294 -11.964  0.00  0.00    +0.166 HD
ATOM     16  C   UNL     1       9.566   4.109  -9.718  0.00  0.00    +0.070 C 
ATOM     17  C   UNL     1       9.005   3.610  -8.380  0.00  0.00    +0.088 C 
ATOM     18  N   UNL     1       8.552   2.219  -8.520  0.00  0.00    -0.305 NA
ATOM     19  H   UNL     1       8.414   1.790  -7.617  0.00  0.00    +0.123 HD
ATOM     20  H   UNL     1       9.074   4.911 -12.429  0.00  0.00    +0.166 HD
ENDBRANCH   1   2
BRANCH   1  23
ATOM     21  C   UNL     1       2.275   0.130  -4.389  0.00  0.00    +0.245 C 
ATOM     22  O   UNL     1       2.274   1.319  -4.132  0.00  0.00    -0.270 OA
ATOM     23  N   UNL     1       2.931  -0.324  -5.474  0.00  0.00    -0.300 N 
ATOM     24  H   UNL     1       2.932  -1.272  -5.679  0.00  0.00    +0.150 HD
BRANCH  21  27
ATOM     25  C   UNL     1       0.203  -1.231  -1.566  0.00  0.00    +0.166 A 
ATOM     26  C   UNL     1       0.875  -0.344  -2.385  0.00  0.00    +0.062 A 
ATOM     27  C   UNL     1       1.556  -0.815  -3.511  0.00  0.00    +0.044 A 
ATOM     28  C   UNL     1       1.556  -2.180  -3.805  0.00  0.00    +0.062 A 
ATOM     29  C   UNL     1       0.882  -3.063  -2.982  0.00  0.00    +0.166 A 
ATOM     30  C   UNL     1       0.208  -2.593  -1.858  0.00  0.00    +0.204 A 
BRANCH  25  32
ATOM     31  C   UNL     1      -0.424   0.634  -0.230  0.00  0.00    +0.277 C 
ATOM     32  O   UNL     1      -0.460  -0.774  -0.469  0.00  0.00    -0.491 OA
ENDBRANCH  25  32
BRANCH  30  33
ATOM     33  O   UNL     1      -0.449  -3.463  -1.047  0.00  0.00    -0.488 OA
ATOM     34  C   UNL     1      -1.817  -3.733  -1.359  0.00  0.00    +0.277 C 
ENDBRANCH  30  33
BRANCH  29  35
ATOM     35  O   UNL     1       0.881  -4.393  -3.268  0.00  0.00    -0.491 OA
ATOM     36  C   UNL     1       1.596  -4.806  -4.434  0.00  0.00    +0.277 C 
ENDBRANCH  29  35
ENDBRANCH  21  27
ENDBRANCH   1  23
BRANCH   1  37
ATOM     37  C   UNL     1       2.668   1.205  -7.365  0.00  0.00    +0.042 C 
BRANCH  37  38
ATOM     38  C   UNL     1       1.634   2.068  -6.639  0.00  0.00    +0.071 C 
BRANCH  38  39
ATOM     39  S   UNL     1       0.477   2.769  -7.848  0.00  0.00    -0.164 S 
ATOM     40  C   UNL     1      -0.668   3.751  -6.840  0.00  0.00    +0.084 C 
ENDBRANCH  38  39
ENDBRANCH  37  38
ENDBRANCH   1  37
TORSDOF 9
