REMARK  Name = ZINC18254491
REMARK  6 active torsions:
REMARK  status: ('A' for Active; 'I' for Inactive)
REMARK    1  A    between atoms: C_1  and  C_2
REMARK    2  A    between atoms: C_7  and  S_9
REMARK    3  A    between atoms: S_9  and  C_10
REMARK    4  A    between atoms: C_10  and  C_11
REMARK    5  A    between atoms: C_16  and  C_19
REMARK    6  A    between atoms: C_16  and  N_22
REMARK                            x       y       z     vdW  Elec       q    Type
REMARK                         _______ _______ _______ _____ _____    ______ ____
ROOT
ATOM      1  C   UNL     1      -1.676  -2.532  -3.358  0.00  0.00    +0.226 C 
ATOM      2  O   UNL     1      -2.276  -1.911  -4.210  0.00  0.00    -0.275 OA
ATOM      3  N   UNL     1      -1.742  -3.878  -3.333  0.00  0.00    -0.301 N 
ATOM      4  C   UNL     1      -1.026  -4.644  -2.304  0.00  0.00    +0.107 C 
ATOM      5  C   UNL     1      -0.146  -5.692  -2.991  0.00  0.00    +0.016 C 
ATOM      6  C   UNL     1      -1.010  -6.546  -3.923  0.00  0.00    +0.015 C 
ATOM      7  C   UNL     1      -1.634  -5.656  -5.001  0.00  0.00    +0.016 C 
ATOM      8  C   UNL     1      -2.535  -4.607  -4.332  0.00  0.00    +0.107 C 
ENDROOT
BRANCH   6   9
ATOM      9  N   UNL     1      -0.176  -7.574  -4.559  0.00  0.00    +0.389 N 
ATOM     10  C   UNL     1       0.410  -8.435  -3.525  0.00  0.00    -0.077 C 
ATOM     11  C   UNL     1       1.344  -9.457  -4.176  0.00  0.00    -0.019 C 
ATOM     12  C   UNL     1       0.546 -10.313  -5.164  0.00  0.00    -0.004 C 
ATOM     13  C   UNL     1      -0.121  -9.398  -6.194  0.00  0.00    -0.019 C 
ATOM     14  C   UNL     1      -1.001  -8.378  -5.468  0.00  0.00    -0.077 C 
ATOM     15  H   UNL     1       0.564  -7.129  -5.082  0.00  0.00    -0.080 HD
ENDBRANCH   6   9
BRANCH   6  16
ATOM     16  C   UNL     1      -2.103  -7.210  -3.126  0.00  0.00    +0.200 C 
ATOM     17  O   UNL     1      -2.012  -7.288  -1.919  0.00  0.00    -0.278 OA
ATOM     18  N   UNL     1      -3.183  -7.716  -3.754  0.00  0.00    -0.330 N 
ATOM     19  H   UNL     1      -3.224  -7.718  -4.723  0.00  0.00    +0.145 HD
ATOM     20  H   UNL     1      -3.919  -8.079  -3.236  0.00  0.00    +0.145 HD
ENDBRANCH   6  16
BRANCH   1  21
ATOM     21  C   UNL     1      -0.859  -1.799  -2.326  0.00  0.00    +0.173 C 
BRANCH  21  22
ATOM     22  S   UNL     1      -0.970  -0.013  -2.624  0.00  0.00    -0.078 S 
BRANCH  22  29
ATOM     23  C   UNL     1       2.057  -0.535   1.465  0.00  0.00    +0.066 C 
ATOM     24  C   UNL     1       1.385   0.397   0.490  0.00  0.00    +0.046 A 
ATOM     25  C   UNL     1       1.558   1.746   0.609  0.00  0.00    +0.093 A 
ATOM     26  C   UNL     1       0.921   2.596  -0.313  0.00  0.00    +0.252 A 
ATOM     27  O   UNL     1       1.054   3.807  -0.236  0.00  0.00    -0.268 OA
ATOM     28  N   UNL     1       0.161   2.048  -1.284  0.00  0.00    -0.302 N 
ATOM     29  C   UNL     1       0.025   0.694  -1.353  0.00  0.00    +0.170 A 
ATOM     30  N   UNL     1       0.630  -0.096  -0.487  0.00  0.00    -0.228 NA
ATOM     31  H   UNL     1      -0.288   2.615  -1.930  0.00  0.00    +0.171 HD
ENDBRANCH  22  29
ENDBRANCH  21  22
ENDBRANCH   1  21
TORSDOF 5
