REMARK  Name = ZINC16010214
REMARK  7 active torsions:
REMARK  status: ('A' for Active; 'I' for Inactive)
REMARK    1  A    between atoms: C_1  and  C_2
REMARK    2  A    between atoms: C_2  and  C_3
REMARK    3  A    between atoms: C_3  and  C_4
REMARK    4  A    between atoms: C_4  and  C_5
REMARK    5  A    between atoms: C_8  and  N_11
REMARK    6  A    between atoms: C_16  and  C_34
REMARK    7  A    between atoms: C_34  and  C_35
REMARK                            x       y       z     vdW  Elec       q    Type
REMARK                         _______ _______ _______ _____ _____    ______ ____
ROOT
ATOM      1  N   UNL     1       3.508  -3.921   5.831  0.00  0.00    -0.210 N 
ATOM      2  C   UNL     1       4.810  -4.227   5.822  0.00  0.00    +0.232 C 
ATOM      3  O   UNL     1       5.542  -4.146   4.858  0.00  0.00    -0.274 OA
ATOM      4  C   UNL     1       5.228  -4.690   7.199  0.00  0.00    +0.108 C 
ATOM      5  C   UNL     1       5.589  -6.189   7.146  0.00  0.00    +0.076 C 
ATOM      6  N   UNL     1       4.299  -6.900   7.351  0.00  0.00    -0.295 NA
ATOM      7  C   UNL     1       3.596  -6.087   8.361  0.00  0.00    +0.136 C 
ATOM      8  C   UNL     1       3.910  -4.609   8.020  0.00  0.00    +0.123 C 
ATOM      9  C   UNL     1       2.907  -4.089   7.015  0.00  0.00    +0.233 C 
ATOM     10  O   UNL     1       1.738  -3.862   7.245  0.00  0.00    -0.274 OA
ATOM     11  C   UNL     1       4.042  -6.431   9.754  0.00  0.00    +0.006 A 
ATOM     12  C   UNL     1       5.262  -6.405  10.392  0.00  0.00    +0.046 A 
ATOM     13  C   UNL     1       5.359  -6.793  11.719  0.00  0.00    +0.124 A 
ATOM     14  C   UNL     1       4.225  -7.206  12.399  0.00  0.00    +0.040 A 
ATOM     15  C   UNL     1       3.002  -7.233  11.762  0.00  0.00    +0.026 A 
ATOM     16  C   UNL     1       2.897  -6.845  10.428  0.00  0.00    +0.039 A 
ATOM     17  N   UNL     1       1.789  -6.787   9.579  0.00  0.00    -0.283 N 
ATOM     18  C   UNL     1       2.115  -6.352   8.347  0.00  0.00    +0.243 C 
ATOM     19  O   UNL     1       1.362  -6.204   7.408  0.00  0.00    -0.273 OA
ATOM     20  F   UNL     1       6.554  -6.768  12.346  0.00  0.00    -0.205 F 
ATOM     21  H   UNL     1       3.771  -6.946   6.493  0.00  0.00    +0.124 HD
ATOM     22  H   UNL     1       0.889  -7.031   9.846  0.00  0.00    +0.155 HD
ENDROOT
BRANCH   1  26
ATOM     23  C   UNL     1       1.493  -2.538   2.454  0.00  0.00    -0.047 A 
ATOM     24  C   UNL     1       1.687  -1.697   3.534  0.00  0.00    +0.005 A 
ATOM     25  C   UNL     1       2.354  -2.153   4.655  0.00  0.00    +0.024 A 
ATOM     26  C   UNL     1       2.830  -3.456   4.696  0.00  0.00    +0.044 A 
ATOM     27  C   UNL     1       2.634  -4.298   3.609  0.00  0.00    +0.024 A 
ATOM     28  C   UNL     1       1.962  -3.839   2.494  0.00  0.00    +0.005 A 
BRANCH  23  29
ATOM     29  C   UNL     1       0.765  -2.038   1.233  0.00  0.00    +0.035 C 
BRANCH  29  30
ATOM     30  C   UNL     1      -0.734  -2.303   1.389  0.00  0.00    +0.004 C 
BRANCH  30  32
ATOM     31  C   UNL     1      -2.972  -2.060   0.306  0.00  0.00    +0.004 C 
ATOM     32  C   UNL     1      -1.474  -1.796   0.150  0.00  0.00    -0.003 C 
ENDBRANCH  30  32
ENDBRANCH  29  30
ENDBRANCH  23  29
ENDBRANCH   1  26
BRANCH   5  33
ATOM     33  C   UNL     1       6.184  -6.546   5.782  0.00  0.00    +0.115 C 
BRANCH  33  34
ATOM     34  C   UNL     1       6.642  -7.981   5.793  0.00  0.00    +0.212 C 
ATOM     35  O   UNL     1       6.505  -8.653   6.794  0.00  0.00    -0.276 OA
ATOM     36  N   UNL     1       7.203  -8.519   4.692  0.00  0.00    -0.329 N 
ATOM     37  H   UNL     1       7.312  -7.981   3.892  0.00  0.00    +0.145 HD
ATOM     38  H   UNL     1       7.497  -9.443   4.699  0.00  0.00    +0.145 HD
ENDBRANCH  33  34
ENDBRANCH   5  33
TORSDOF 6
