REMARK  Name = ZINC20759788
REMARK  8 active torsions:
REMARK  status: ('A' for Active; 'I' for Inactive)
REMARK    1  A    between atoms: C_1  and  O_2
REMARK    2  A    between atoms: O_2  and  C_3
REMARK    3  A    between atoms: C_5  and  C_11
REMARK    4  A    between atoms: C_7  and  O_9
REMARK    5  A    between atoms: O_9  and  C_10
REMARK    6  A    between atoms: N_13  and  C_14
REMARK    7  A    between atoms: C_14  and  C_15
REMARK    8  A    between atoms: C_15  and  C_16
REMARK                            x       y       z     vdW  Elec       q    Type
REMARK                         _______ _______ _______ _____ _____    ______ ____
ROOT
ATOM      1  C   UNL     1       2.895  -8.107   4.632  0.00  0.00    +0.217 C 
ATOM      2  O   UNL     1       2.392  -8.772   3.751  0.00  0.00    -0.276 OA
ATOM      3  N   UNL     1       3.514  -8.713   5.664  0.00  0.00    -0.301 N 
ATOM      4  C   UNL     1       4.123  -7.921   6.742  0.00  0.00    +0.110 C 
ATOM      5  C   UNL     1       5.585  -8.352   6.904  0.00  0.00    +0.047 C 
ATOM      6  C   UNL     1       5.645  -9.865   7.122  0.00  0.00    +0.064 C 
ATOM      7  C   UNL     1       5.060 -10.586   5.908  0.00  0.00    +0.047 C 
ATOM      8  C   UNL     1       3.588 -10.179   5.736  0.00  0.00    +0.110 C 
ATOM      9  C   UNL     1       7.074 -10.291   7.329  0.00  0.00    +0.057 A 
ATOM     10  C   UNL     1       7.597 -10.600   8.538  0.00  0.00    +0.039 A 
ATOM     11  N   UNL     1       8.875 -10.935   8.362  0.00  0.00    -0.349 N 
ATOM     12  C   UNL     1       9.169 -10.846   7.090  0.00  0.00    +0.171 A 
ATOM     13  N   UNL     1       8.067 -10.446   6.414  0.00  0.00    -0.348 N 
ATOM     14  H   UNL     1       7.998 -10.297   5.458  0.00  0.00    +0.166 HD
ATOM     15  C   UNL     1       6.798 -10.543   9.818  0.00  0.00    +0.070 C 
ATOM     16  C   UNL     1       5.527  -9.727   9.546  0.00  0.00    +0.088 C 
ATOM     17  N   UNL     1       4.874 -10.219   8.325  0.00  0.00    -0.305 NA
ATOM     18  H   UNL     1       3.926  -9.880   8.260  0.00  0.00    +0.123 HD
ATOM     19  H   UNL     1       9.488 -11.202   9.064  0.00  0.00    +0.166 HD
ENDROOT
BRANCH   1  20
ATOM     20  C   UNL     1       2.828  -6.603   4.572  0.00  0.00    +0.114 C 
BRANCH  20  21
ATOM     21  C   UNL     1       2.077  -6.176   3.309  0.00  0.00    +0.113 C 
BRANCH  21  24
ATOM     22  C   UNL     1       1.392  -4.107   2.219  0.00  0.00    +0.244 C 
ATOM     23  O   UNL     1       0.888  -4.774   1.336  0.00  0.00    -0.270 OA
ATOM     24  N   UNL     1       2.012  -4.713   3.251  0.00  0.00    -0.311 N 
ATOM     25  H   UNL     1       2.414  -4.181   3.955  0.00  0.00    +0.149 HD
BRANCH  22  28
ATOM     26  C   UNL     1       0.626  -0.618   1.042  0.00  0.00    +0.124 A 
ATOM     27  C   UNL     1       0.686  -2.001   1.093  0.00  0.00    +0.059 A 
ATOM     28  C   UNL     1       1.326  -2.631   2.160  0.00  0.00    +0.044 A 
ATOM     29  C   UNL     1       1.904  -1.864   3.172  0.00  0.00    +0.059 A 
ATOM     30  C   UNL     1       1.840  -0.482   3.114  0.00  0.00    +0.124 A 
ATOM     31  C   UNL     1       1.207   0.141   2.047  0.00  0.00    +0.091 A 
BRANCH  26  33
ATOM     32  C   UNL     1      -0.017   1.425   0.010  0.00  0.00    +0.277 C 
ATOM     33  O   UNL     1       0.002  -0.004   0.002  0.00  0.00    -0.495 OA
ENDBRANCH  26  33
BRANCH  30  34
ATOM     34  O   UNL     1       2.402   0.267   4.099  0.00  0.00    -0.495 OA
ATOM     35  C   UNL     1       2.298   1.686   3.975  0.00  0.00    +0.277 C 
ENDBRANCH  30  34
ENDBRANCH  22  28
ENDBRANCH  21  24
ENDBRANCH  20  21
ENDBRANCH   1  20
TORSDOF 6
