REMARK  Name = ZINC43726391
REMARK  6 active torsions:
REMARK  status: ('A' for Active; 'I' for Inactive)
REMARK    1  A    between atoms: C_1  and  C_2
REMARK    2  A    between atoms: C_2  and  C_3
REMARK    3  A    between atoms: C_2  and  C_4
REMARK    4  A    between atoms: C_2  and  C_5
REMARK    5  A    between atoms: C_5  and  C_7
REMARK    6  A    between atoms: N_26  and  C_29
REMARK                            x       y       z     vdW  Elec       q    Type
REMARK                         _______ _______ _______ _____ _____    ______ ____
ROOT
ATOM      1  C   UNL     1       0.798  -1.961  -1.502  0.00  0.00    +0.172 C 
ATOM      2  C   UNL     1       1.722  -2.638  -0.481  0.00  0.00    +0.119 C 
ATOM      3  C   UNL     1       3.087  -2.772  -1.225  0.00  0.00    +0.116 C 
ATOM      4  C   UNL     1       2.689  -2.792  -2.706  0.00  0.00    +0.136 C 
ATOM      5  N   UNL     1       1.363  -2.177  -2.829  0.00  0.00    -0.236 N 
ATOM      6  N   UNL     1       0.825  -1.799  -4.072  0.00  0.00    -0.191 NA
ATOM      7  C   UNL     1       1.675  -1.386  -4.976  0.00  0.00    +0.138 C 
ATOM      8  C   UNL     1       3.115  -1.315  -4.657  0.00  0.00    -0.000 A 
ATOM      9  C   UNL     1       3.653  -1.993  -3.544  0.00  0.00    -0.016 A 
ATOM     10  C   UNL     1       4.996  -1.960  -3.252  0.00  0.00    +0.006 A 
ATOM     11  C   UNL     1       5.857  -1.211  -4.038  0.00  0.00    +0.000 A 
ATOM     12  C   UNL     1       5.370  -0.496  -5.117  0.00  0.00    +0.001 A 
ATOM     13  C   UNL     1       3.974  -0.555  -5.452  0.00  0.00    +0.010 A 
ATOM     14  C   UNL     1       3.520  -4.168  -0.804  0.00  0.00    +0.232 C 
ATOM     15  O   UNL     1       4.653  -4.599  -0.834  0.00  0.00    -0.274 OA
ATOM     16  N   UNL     1       2.434  -4.841  -0.393  0.00  0.00    -0.208 N 
ATOM     17  C   UNL     1       1.317  -4.082  -0.273  0.00  0.00    +0.232 C 
ATOM     18  O   UNL     1       0.193  -4.479  -0.049  0.00  0.00    -0.274 OA
ENDROOT
BRANCH  16  19
ATOM     19  C   UNL     1       2.452  -6.212  -0.100  0.00  0.00    +0.062 A 
ATOM     20  C   UNL     1       2.734  -6.645   1.188  0.00  0.00    +0.025 A 
ATOM     21  C   UNL     1       2.752  -7.996   1.474  0.00  0.00    +0.002 A 
ATOM     22  C   UNL     1       2.488  -8.919   0.478  0.00  0.00    +0.002 A 
ATOM     23  C   UNL     1       2.207  -8.492  -0.807  0.00  0.00    +0.022 A 
ATOM     24  C   UNL     1       2.182  -7.141  -1.098  0.00  0.00    +0.063 A 
ATOM     25 CL   UNL     1       1.821  -6.605  -2.709  0.00  0.00    -0.082 Cl
ENDBRANCH  16  19
BRANCH   1  26
ATOM     26  C   UNL     1       0.718  -0.483  -1.216  0.00  0.00    +0.161 C 
ATOM     27  O   UNL     1       1.453   0.284  -1.790  0.00  0.00    -0.295 OA
BRANCH  26  29
ATOM     28  C   UNL     1      -0.183   1.562  -0.141  0.00  0.00    +0.018 C 
ATOM     29  C   UNL     1      -0.280   0.037  -0.213  0.00  0.00    +0.023 C 
ATOM     30  C   UNL     1       0.023  -0.558   1.164  0.00  0.00    +0.018 C 
ATOM     31  C   UNL     1      -1.692  -0.366  -0.642  0.00  0.00    +0.018 C 
ENDBRANCH  26  29
ENDBRANCH   1  26
TORSDOF 3
