REMARK  Name = ZINC39988961
REMARK  8 active torsions:
REMARK  status: ('A' for Active; 'I' for Inactive)
REMARK    1  A    between atoms: C_1  and  N_2
REMARK    2  A    between atoms: N_2  and  C_3
REMARK    3  A    between atoms: C_3  and  N_5
REMARK    4  A    between atoms: C_6  and  C_30
REMARK    5  A    between atoms: C_9  and  C_11
REMARK    6  A    between atoms: C_13  and  C_24
REMARK    7  A    between atoms: C_33  and  O_36
REMARK    8  A    between atoms: O_36  and  C_37
REMARK                            x       y       z     vdW  Elec       q    Type
REMARK                         _______ _______ _______ _____ _____    ______ ____
ROOT
ATOM      1  C   UNL     1      -0.295  -5.225   0.660  0.00  0.00    +0.152 C 
ATOM      2  C   UNL     1      -0.797  -4.545   1.919  0.00  0.00    -0.014 C 
ATOM      3  C   UNL     1      -2.142  -4.734   2.249  0.00  0.00    +0.002 A 
ATOM      4  C   UNL     1      -2.691  -4.137   3.404  0.00  0.00    +0.030 A 
ATOM      5  C   UNL     1      -4.004  -4.336   3.702  0.00  0.00    +0.042 A 
ATOM      6  C   UNL     1      -4.821  -5.120   2.889  0.00  0.00    +0.022 A 
ATOM      7  C   UNL     1      -4.347  -5.721   1.762  0.00  0.00    +0.025 A 
ATOM      8  C   UNL     1      -3.000  -5.558   1.392  0.00  0.00    +0.041 A 
ATOM      9  N   UNL     1      -2.538  -6.149   0.285  0.00  0.00    -0.284 N 
ATOM     10  C   UNL     1      -1.291  -6.045  -0.129  0.00  0.00    +0.230 C 
ATOM     11  O   UNL     1      -0.940  -6.610  -1.148  0.00  0.00    -0.274 OA
ATOM     12 CL   UNL     1      -4.675  -3.600   5.124  0.00  0.00    -0.084 Cl
ATOM     13  H   UNL     1      -3.153  -6.682  -0.242  0.00  0.00    +0.155 HD
ENDROOT
BRANCH   2  14
ATOM     14  C   UNL     1       0.060  -3.755   2.726  0.00  0.00    -0.020 A 
ATOM     15  C   UNL     1      -0.202  -2.387   2.908  0.00  0.00    +0.008 A 
ATOM     16  C   UNL     1       0.637  -1.629   3.693  0.00  0.00    +0.001 A 
ATOM     17  C   UNL     1       1.736  -2.210   4.304  0.00  0.00    +0.000 A 
ATOM     18  C   UNL     1       2.004  -3.558   4.131  0.00  0.00    +0.001 A 
ATOM     19  C   UNL     1       1.174  -4.336   3.354  0.00  0.00    +0.008 A 
ENDBRANCH   2  14
BRANCH   1  23
ATOM     20  N   UNL     1       0.731  -2.121  -1.054  0.00  0.00    -0.197 N 
ATOM     21  C   UNL     1       1.339  -3.006  -2.062  0.00  0.00    +0.136 C 
ATOM     22  C   UNL     1       1.022  -4.418  -1.530  0.00  0.00    +0.083 C 
ATOM     23  C   UNL     1       0.253  -4.159  -0.254  0.00  0.00    +0.055 C 
ATOM     24  N   UNL     1       0.144  -2.908  -0.065  0.00  0.00    -0.185 NA
BRANCH  21  25
ATOM     25  C   UNL     1       0.707  -2.788  -3.412  0.00  0.00    -0.025 A 
ATOM     26  C   UNL     1      -0.653  -2.554  -3.508  0.00  0.00    +0.009 A 
ATOM     27  C   UNL     1      -1.235  -2.354  -4.744  0.00  0.00    +0.046 A 
ATOM     28  C   UNL     1      -0.454  -2.388  -5.891  0.00  0.00    +0.120 A 
ATOM     29  C   UNL     1       0.909  -2.622  -5.792  0.00  0.00    +0.046 A 
ATOM     30  C   UNL     1       1.488  -2.816  -4.552  0.00  0.00    +0.009 A 
BRANCH  28  31
ATOM     31  O   UNL     1      -1.025  -2.192  -7.109  0.00  0.00    -0.495 OA
ATOM     32  C   UNL     1      -0.160  -2.240  -8.245  0.00  0.00    +0.277 C 
ENDBRANCH  28  31
ENDBRANCH  21  25
BRANCH  20  33
ATOM     33  C   UNL     1       0.745  -0.774  -1.080  0.00  0.00    +0.153 C 
ATOM     34  S   UNL     1       1.512   0.049  -2.371  0.00  0.00    -0.017 S 
BRANCH  33  36
ATOM     35  C   UNL     1       0.170   1.390  -0.120  0.00  0.00    +0.127 C 
ATOM     36  N   UNL     1       0.154  -0.074  -0.091  0.00  0.00    -0.328 N 
ATOM     37  H   UNL     1      -0.280  -0.540   0.640  0.00  0.00    +0.147 HD
ENDBRANCH  33  36
ENDBRANCH  20  33
ENDBRANCH   1  23
TORSDOF 6
