REMARK  Name = ZINC39655928
REMARK  6 active torsions:
REMARK  status: ('A' for Active; 'I' for Inactive)
REMARK    1  A    between atoms: C_1  and  C_2
REMARK    2  A    between atoms: C_8  and  C_11
REMARK    3  A    between atoms: C_11  and  C_12
REMARK    4  A    between atoms: C_12  and  N_13
REMARK    5  A    between atoms: C_14  and  C_16
REMARK    6  A    between atoms: C_27  and  C_29
REMARK                            x       y       z     vdW  Elec       q    Type
REMARK                         _______ _______ _______ _____ _____    ______ ____
ROOT
ATOM      1  C   UNL     1       4.623  -0.116  -7.496  0.00  0.00    +0.100 C 
ATOM      2  C   UNL     1       4.726   0.718  -8.793  0.00  0.00    +0.121 C 
ATOM      3  N   UNL     1       5.636  -0.059  -9.667  0.00  0.00    -0.300 N 
ATOM      4  C   UNL     1       5.252  -1.472  -9.436  0.00  0.00    +0.115 C 
ATOM      5  C   UNL     1       4.968  -1.553  -7.922  0.00  0.00    -0.004 C 
ATOM      6  C   UNL     1       3.787  -2.481  -7.656  0.00  0.00    -0.010 C 
ATOM      7  C   UNL     1       4.175  -3.914  -8.033  0.00  0.00    -0.082 C 
ATOM      8  N   UNL     1       5.339  -4.332  -7.243  0.00  0.00    +0.379 N 
ATOM      9  C   UNL     1       6.496  -3.492  -7.575  0.00  0.00    -0.082 C 
ATOM     10  C   UNL     1       6.207  -2.042  -7.178  0.00  0.00    -0.010 C 
ATOM     11  C   UNL     1       6.596   0.412 -10.487  0.00  0.00    +0.219 C 
ATOM     12  O   UNL     1       7.264  -0.358 -11.144  0.00  0.00    -0.275 OA
ATOM     13  H   UNL     1       5.128  -4.239  -6.261  0.00  0.00    -0.086 HD
ATOM     14  H   UNL     1       5.555  -5.296  -7.449  0.00  0.00    -0.086 HD
ENDROOT
BRANCH   1  16
ATOM     15  N   UNL     1       3.017  -0.185  -5.617  0.00  0.00    -0.315 N 
ATOM     16  C   UNL     1       3.223  -0.055  -6.942  0.00  0.00    +0.218 C 
ATOM     17  O   UNL     1       2.282   0.111  -7.689  0.00  0.00    -0.275 OA
ATOM     18  H   UNL     1       3.769  -0.318  -5.019  0.00  0.00    +0.149 HD
BRANCH  15  19
ATOM     19  C   UNL     1       1.655  -0.126  -5.078  0.00  0.00    +0.109 C 
BRANCH  19  20
ATOM     20  C   UNL     1       1.700  -0.299  -3.559  0.00  0.00    +0.056 C 
BRANCH  20  28
ATOM     21  C   UNL     1      -1.627  -4.959  -3.406  0.00  0.00    +0.044 C 
ATOM     22  C   UNL     1      -1.683  -3.501  -3.031  0.00  0.00    -0.050 A 
ATOM     23  C   UNL     1      -2.836  -2.980  -2.461  0.00  0.00    +0.005 A 
ATOM     24  C   UNL     1      -2.908  -1.649  -2.112  0.00  0.00    +0.026 A 
ATOM     25  C   UNL     1      -1.815  -0.817  -2.331  0.00  0.00    +0.047 A 
ATOM     26  N   UNL     1      -1.579   0.519  -2.098  0.00  0.00    -0.360 N 
ATOM     27  C   UNL     1      -0.315   0.846  -2.506  0.00  0.00    +0.087 A 
ATOM     28  C   UNL     1       0.300  -0.238  -3.005  0.00  0.00    -0.021 A 
ATOM     29  C   UNL     1      -0.648  -1.350  -2.909  0.00  0.00    +0.003 A 
ATOM     30  C   UNL     1      -0.596  -2.703  -3.251  0.00  0.00    +0.013 A 
ATOM     31  H   UNL     1      -2.215   1.137  -1.705  0.00  0.00    +0.165 HD
ENDBRANCH  20  28
ENDBRANCH  19  20
ENDBRANCH  15  19
ENDBRANCH   1  16
BRANCH  11  32
ATOM     32  C   UNL     1       6.840   1.896 -10.586  0.00  0.00    +0.075 C 
ATOM     33  C   UNL     1       5.877   2.616 -11.545  0.00  0.00    +0.013 C 
ATOM     34  C   UNL     1       7.085   3.449 -12.006  0.00  0.00    +0.001 C 
ATOM     35  C   UNL     1       7.968   2.271 -11.563  0.00  0.00    +0.013 C 
ENDBRANCH  11  32
TORSDOF 5
