REMARK  Name = ZINC38330722
REMARK  17 active torsions:
REMARK  status: ('A' for Active; 'I' for Inactive)
REMARK    1  A    between atoms: C_1  and  C_2
REMARK    2  A    between atoms: C_2  and  C_4
REMARK    3  A    between atoms: C_2  and  N_14
REMARK    4  A    between atoms: C_7  and  S_10
REMARK    5  A    between atoms: S_10  and  N_13
REMARK    6  A    between atoms: N_14  and  C_15
REMARK    7  A    between atoms: N_14  and  C_23
REMARK    8  A    between atoms: C_15  and  C_16
REMARK    9  A    between atoms: N_18  and  C_19
REMARK   10  A    between atoms: C_19  and  C_20
REMARK   11  A    between atoms: C_20  and  C_21
REMARK   12  A    between atoms: C_20  and  C_22
REMARK   13  A    between atoms: C_23  and  C_24
REMARK   14  A    between atoms: N_26  and  C_27
REMARK   15  A    between atoms: C_27  and  C_28
REMARK   16  A    between atoms: C_28  and  C_29
REMARK   17  A    between atoms: C_28  and  C_30
REMARK                            x       y       z     vdW  Elec       q    Type
REMARK                         _______ _______ _______ _____ _____    ______ ____
ROOT
ATOM      1  N   UNL     1       0.755  -0.404  -1.300  0.00  0.00    +0.395 N 
ATOM      2  H   UNL     1       1.749  -0.233  -1.329  0.00  0.00    -0.080 HD
ENDROOT
BRANCH   1   4
ATOM      3  C   UNL     1       0.531   1.794  -0.242  0.00  0.00    -0.008 C 
ATOM      4  C   UNL     1       0.169   0.310  -0.157  0.00  0.00    -0.040 C 
BRANCH   4   5
ATOM      5  C   UNL     1       0.710  -0.267   1.126  0.00  0.00    -0.061 A 
ATOM      6  C   UNL     1       2.044  -0.618   1.218  0.00  0.00    +0.004 A 
ATOM      7  C   UNL     1       2.540  -1.147   2.394  0.00  0.00    +0.029 A 
ATOM      8  C   UNL     1       1.703  -1.325   3.479  0.00  0.00    +0.105 A 
ATOM      9  C   UNL     1       0.369  -0.973   3.388  0.00  0.00    +0.029 A 
ATOM     10  C   UNL     1      -0.127  -0.440   2.213  0.00  0.00    +0.004 A 
BRANCH   8  11
ATOM     11  S   UNL     1       2.335  -2.000   4.979  0.00  0.00    +0.056 S 
ATOM     12  O   UNL     1       1.230  -2.572   5.665  0.00  0.00    -0.153 OA
ATOM     13  O   UNL     1       3.488  -2.753   4.631  0.00  0.00    -0.153 OA
BRANCH  11  14
ATOM     14  N   UNL     1       2.860  -0.731   5.904  0.00  0.00    -0.204 NA
ATOM     15  H   UNL     1       2.835  -0.793   6.872  0.00  0.00    +0.144 HD
ATOM     16  H   UNL     1       3.193   0.074   5.479  0.00  0.00    +0.144 HD
ENDBRANCH  11  14
ENDBRANCH   8  11
ENDBRANCH   4   5
ENDBRANCH   1   4
BRANCH   1  17
ATOM     17  C   UNL     1       0.508  -1.845  -1.156  0.00  0.00    +0.020 C 
BRANCH  17  18
ATOM     18  C   UNL     1      -0.976  -2.104  -1.166  0.00  0.00    +0.197 C 
ATOM     19  O   UNL     1      -1.754  -1.174  -1.169  0.00  0.00    -0.278 OA
ATOM     20  N   UNL     1      -1.439  -3.370  -1.171  0.00  0.00    -0.317 N 
ATOM     21  H   UNL     1      -0.817  -4.114  -1.168  0.00  0.00    +0.149 HD
BRANCH  20  22
ATOM     22  C   UNL     1      -2.882  -3.622  -1.181  0.00  0.00    +0.107 C 
BRANCH  22  23
ATOM     23  C   UNL     1      -3.136  -5.131  -1.185  0.00  0.00    -0.000 C 
ATOM     24  C   UNL     1      -4.639  -5.395  -1.069  0.00  0.00    +0.009 C 
ATOM     25  C   UNL     1      -2.611  -5.733  -2.490  0.00  0.00    +0.009 C 
ENDBRANCH  22  23
ENDBRANCH  20  22
ENDBRANCH  17  18
ENDBRANCH   1  17
BRANCH   1  26
ATOM     26  C   UNL     1       0.139   0.077  -2.544  0.00  0.00    +0.020 C 
BRANCH  26  27
ATOM     27  C   UNL     1       0.861  -0.521  -3.725  0.00  0.00    +0.197 C 
ATOM     28  O   UNL     1       1.766  -1.309  -3.547  0.00  0.00    -0.278 OA
ATOM     29  N   UNL     1       0.500  -0.180  -4.978  0.00  0.00    -0.317 N 
ATOM     30  H   UNL     1      -0.223   0.450  -5.120  0.00  0.00    +0.149 HD
BRANCH  29  31
ATOM     31  C   UNL     1       1.202  -0.761  -6.125  0.00  0.00    +0.107 C 
BRANCH  31  32
ATOM     32  C   UNL     1       0.602  -0.212  -7.421  0.00  0.00    -0.000 C 
ATOM     33  C   UNL     1       1.413  -0.721  -8.614  0.00  0.00    +0.009 C 
ATOM     34  C   UNL     1      -0.848  -0.683  -7.552  0.00  0.00    +0.009 C 
ENDBRANCH  31  32
ENDBRANCH  29  31
ENDBRANCH  26  27
ENDBRANCH   1  26
TORSDOF 12
