REMARK  Name = ZINC59619517
REMARK  4 active torsions:
REMARK  status: ('A' for Active; 'I' for Inactive)
REMARK    1  A    between atoms: C_12  and  C_14
REMARK    2  A    between atoms: N_21  and  C_22
REMARK    3  A    between atoms: C_22  and  C_23
REMARK    4  A    between atoms: C_23  and  N_24
REMARK                            x       y       z     vdW  Elec       q    Type
REMARK                         _______ _______ _______ _____ _____    ______ ____
ROOT
ATOM      1  C   UNL     1      -0.016   1.337   0.009  0.00  0.00    +0.033 C 
ATOM      2  C   UNL     1       0.002  -0.004   0.002  0.00  0.00    +0.031 C 
ATOM      3  C   UNL     1      -1.248  -0.784   0.004  0.00  0.00    +0.090 C 
ATOM      4  C   UNL     1      -1.184  -2.116  -0.216  0.00  0.00    +0.249 C 
ATOM      5  O   UNL     1      -2.323  -2.848  -0.251  0.00  0.00    -0.270 OA
ATOM      6  N   UNL     1       0.035  -2.733  -0.404  0.00  0.00    -0.219 N 
ATOM      7  C   UNL     1       1.191  -2.001  -0.482  0.00  0.00    +0.198 C 
ATOM      8  N   UNL     1       1.214  -0.716  -0.013  0.00  0.00    -0.287 N 
ATOM      9  N   UNL     1       2.258  -2.523  -1.052  0.00  0.00    -0.186 NA
ATOM     10  C   UNL     1       2.216  -3.753  -1.592  0.00  0.00    +0.193 C 
ATOM     11  N   UNL     1       1.215  -4.565  -1.386  0.00  0.00    -0.339 N 
ATOM     12  C   UNL     1       0.120  -4.196  -0.485  0.00  0.00    +0.183 C 
ATOM     13  N   UNL     1       3.264  -4.171  -2.387  0.00  0.00    -0.317 N 
ATOM     14  H   UNL     1       3.249  -5.056  -2.784  0.00  0.00    +0.149 HD
ATOM     15  H   UNL     1       1.196  -5.424  -1.836  0.00  0.00    +0.164 HD
ATOM     16  H   UNL     1       2.038  -0.311   0.300  0.00  0.00    +0.155 HD
ENDROOT
BRANCH  12  17
ATOM     17  C   UNL     1       0.389  -4.771   0.907  0.00  0.00    +0.034 C 
ATOM     18  C   UNL     1       0.467  -6.301   0.827  0.00  0.00    +0.011 C 
ATOM     19  C   UNL     1       0.911  -6.835   2.191  0.00  0.00    +0.027 C 
ATOM     20  C   UNL     1       0.077  -6.227   3.280  0.00  0.00    -0.031 C 
ATOM     21  C   UNL     1      -0.645  -5.163   3.133  0.00  0.00    -0.031 C 
ATOM     22  C   UNL     1      -0.754  -4.390   1.850  0.00  0.00    +0.034 C 
ENDBRANCH  12  17
BRANCH  13  23
ATOM     23  C   UNL     1       4.399  -3.278  -2.632  0.00  0.00    +0.086 C 
BRANCH  23  24
ATOM     24  C   UNL     1       5.414  -3.979  -3.538  0.00  0.00    -0.060 C 
BRANCH  24  25
ATOM     25  N   UNL     1       6.552  -3.083  -3.783  0.00  0.00    +0.381 N 
ATOM     26  C   UNL     1       6.095  -1.908  -4.535  0.00  0.00    -0.079 C 
ATOM     27  C   UNL     1       7.259  -0.933  -4.723  0.00  0.00    -0.019 C 
ATOM     28  C   UNL     1       8.382  -1.631  -5.497  0.00  0.00    -0.004 C 
ATOM     29  C   UNL     1       8.800  -2.896  -4.741  0.00  0.00    -0.019 C 
ATOM     30  C   UNL     1       7.578  -3.797  -4.552  0.00  0.00    -0.079 C 
ATOM     31  H   UNL     1       6.941  -2.785  -2.901  0.00  0.00    -0.082 HD
ENDBRANCH  24  25
ENDBRANCH  23  24
ENDBRANCH  13  23
TORSDOF 4
