REMARK  Name = ZINC36024363
REMARK  11 active torsions:
REMARK  status: ('A' for Active; 'I' for Inactive)
REMARK    1  A    between atoms: C_1  and  C_2
REMARK    2  A    between atoms: C_2  and  C_3
REMARK    3  A    between atoms: C_3  and  C_5
REMARK    4  A    between atoms: C_3  and  N_6
REMARK    5  A    between atoms: C_9  and  C_28
REMARK    6  A    between atoms: N_15  and  C_18
REMARK    7  A    between atoms: C_18  and  N_20
REMARK    8  A    between atoms: N_20  and  C_21
REMARK    9  A    between atoms: C_25  and  C_27
REMARK   10  A    between atoms: C_28  and  C_29
REMARK   11  A    between atoms: C_28  and  C_30
REMARK                            x       y       z     vdW  Elec       q    Type
REMARK                         _______ _______ _______ _____ _____    ______ ____
ROOT
ATOM      1  N   UNL     1      -2.002  -0.184   1.265  0.00  0.00    -0.311 N 
ATOM      2  C   UNL     1      -1.514  -0.463   2.492  0.00  0.00    +0.201 C 
ATOM      3  O   UNL     1      -0.476  -1.044   2.726  0.00  0.00    -0.277 OA
ATOM      4  C   UNL     1      -2.481   0.071   3.526  0.00  0.00    +0.022 C 
ATOM      5  N   UNL     1      -3.339   1.027   2.784  0.00  0.00    +0.401 N 
ATOM      6  C   UNL     1      -3.277   0.526   1.396  0.00  0.00    +0.006 C 
ATOM      7  C   UNL     1      -3.331   1.700   0.420  0.00  0.00    +0.025 C 
ATOM      8  C   UNL     1      -3.231   1.173  -1.015  0.00  0.00    +0.107 C 
ATOM      9  N   UNL     1      -4.274   0.158  -1.219  0.00  0.00    -0.312 N 
ATOM     10  C   UNL     1      -4.352  -0.974  -0.286  0.00  0.00    +0.107 C 
ATOM     11  C   UNL     1      -4.442  -0.428   1.143  0.00  0.00    +0.025 C 
ATOM     12  H   UNL     1      -4.286   1.000   3.133  0.00  0.00    -0.082 HD
ATOM     13  H   UNL     1      -2.963   1.961   2.840  0.00  0.00    -0.082 HD
ENDROOT
BRANCH   4  14
ATOM     14  C   UNL     1      -1.722   0.791   4.644  0.00  0.00    -0.023 C 
ATOM     15  C   UNL     1      -0.787  -0.198   5.343  0.00  0.00    +0.006 C 
ATOM     16  C   UNL     1      -0.901   1.935   4.047  0.00  0.00    +0.006 C 
ENDBRANCH   4  14
BRANCH   1  17
ATOM     17  C   UNL     1      -1.354  -0.532  -0.002  0.00  0.00    +0.071 C 
ATOM     18  C   UNL     1      -0.879  -1.985   0.051  0.00  0.00    +0.028 C 
BRANCH  17  20
ATOM     19  C   UNL     1      -0.642   1.828  -0.408  0.00  0.00    +0.005 C 
ATOM     20  C   UNL     1      -0.154   0.389  -0.231  0.00  0.00    +0.019 C 
ENDBRANCH  17  20
ENDBRANCH   1  17
BRANCH   9  21
ATOM     21  C   UNL     1      -5.143   0.264  -2.244  0.00  0.00    +0.137 C 
ATOM     22  S   UNL     1      -4.962   1.518  -3.394  0.00  0.00    -0.018 S 
BRANCH  21  23
ATOM     23  N   UNL     1      -6.155  -0.618  -2.362  0.00  0.00    -0.297 N 
ATOM     24  H   UNL     1      -7.049  -0.372  -2.075  0.00  0.00    +0.154 HD
BRANCH  23  25
ATOM     25  C   UNL     1      -5.918  -1.888  -2.900  0.00  0.00    +0.033 A 
ATOM     26  C   UNL     1      -4.622  -2.280  -3.211  0.00  0.00    +0.023 A 
ATOM     27  C   UNL     1      -4.391  -3.534  -3.740  0.00  0.00    +0.002 A 
ATOM     28  C   UNL     1      -5.447  -4.399  -3.962  0.00  0.00    +0.003 A 
ATOM     29  C   UNL     1      -6.738  -4.011  -3.653  0.00  0.00    -0.049 A 
ATOM     30  C   UNL     1      -6.976  -2.760  -3.118  0.00  0.00    +0.026 A 
ATOM     31  C   UNL     1      -7.886  -4.956  -3.896  0.00  0.00    +0.044 C 
ENDBRANCH  23  25
ENDBRANCH  21  23
ENDBRANCH   9  21
TORSDOF 6
