REMARK  Name = ZINC43305404
REMARK  8 active torsions:
REMARK  status: ('A' for Active; 'I' for Inactive)
REMARK    1  A    between atoms: C_1  and  C_2
REMARK    2  A    between atoms: C_2  and  C_4
REMARK    3  A    between atoms: C_2  and  N_17
REMARK    4  A    between atoms: C_4  and  C_6
REMARK    5  A    between atoms: C_7  and  N_16
REMARK    6  A    between atoms: N_8  and  C_15
REMARK    7  A    between atoms: N_11  and  C_14
REMARK    8  A    between atoms: C_21  and  O_24
REMARK                            x       y       z     vdW  Elec       q    Type
REMARK                         _______ _______ _______ _____ _____    ______ ____
ROOT
ATOM      1  C   UNL     1      -1.271  -0.906  -0.100  0.00  0.00    +0.158 C 
ATOM      2  O   UNL     1      -1.694  -1.491   0.876  0.00  0.00    -0.294 OA
ENDROOT
BRANCH   1   3
ATOM      3  C   UNL     1      -2.089  -0.752  -1.240  0.00  0.00    +0.118 A 
ATOM      4  C   UNL     1      -3.440  -1.141  -1.221  0.00  0.00    +0.116 A 
ATOM      5  N   UNL     1      -4.192  -0.973  -2.349  0.00  0.00    -0.284 N 
ATOM      6  C   UNL     1      -3.666  -0.445  -3.465  0.00  0.00    +0.333 A 
ATOM      7  O   UNL     1      -4.377  -0.316  -4.443  0.00  0.00    -0.246 OA
ATOM      8  N   UNL     1      -2.383  -0.055  -3.542  0.00  0.00    -0.263 N 
ATOM      9  C   UNL     1      -1.559  -0.174  -2.481  0.00  0.00    +0.269 A 
ATOM     10  O   UNL     1      -0.398   0.185  -2.553  0.00  0.00    -0.267 OA
ATOM     11  C   UNL     1      -1.874   0.513  -4.793  0.00  0.00    +0.157 C 
ATOM     12  C   UNL     1      -5.600  -1.375  -2.339  0.00  0.00    +0.155 C 
BRANCH   4  13
ATOM     13  N   UNL     1      -3.989  -1.679  -0.098  0.00  0.00    -0.344 N 
ATOM     14  H   UNL     1      -3.528  -1.601   0.752  0.00  0.00    +0.144 HD
ATOM     15  H   UNL     1      -4.841  -2.139  -0.147  0.00  0.00    +0.144 HD
ENDBRANCH   4  13
ENDBRANCH   1   3
BRANCH   1  17
ATOM     16  C   UNL     1       0.073   1.157   0.193  0.00  0.00    -0.005 C 
ATOM     17  C   UNL     1       0.127  -0.344  -0.095  0.00  0.00    +0.001 C 
BRANCH  17  18
ATOM     18  N   UNL     1       0.920  -1.014   0.944  0.00  0.00    +0.388 N 
ATOM     19  C   UNL     1       2.280  -0.460   0.953  0.00  0.00    -0.078 C 
ATOM     20  C   UNL     1       3.086  -1.097   2.087  0.00  0.00    -0.016 C 
ATOM     21  C   UNL     1       3.152  -2.612   1.871  0.00  0.00    +0.027 C 
ATOM     22  C   UNL     1       1.728  -3.168   1.788  0.00  0.00    +0.098 C 
ATOM     23  C   UNL     1       0.972  -2.455   0.665  0.00  0.00    -0.046 C 
ATOM     24  H   UNL     1       0.491  -0.862   1.844  0.00  0.00    -0.081 HD
BRANCH  22  25
ATOM     25  O   UNL     1       1.778  -4.570   1.514  0.00  0.00    -0.394 OA
ATOM     26  H   UNL     1       2.247  -5.085   2.185  0.00  0.00    +0.210 HD
ENDBRANCH  22  25
ENDBRANCH  17  18
ENDBRANCH   1  17
TORSDOF 5
