REMARK  Name = ZINC13741543
REMARK  7 active torsions:
REMARK  status: ('A' for Active; 'I' for Inactive)
REMARK    1  A    between atoms: C_7  and  C_17
REMARK    2  A    between atoms: N_9  and  C_10
REMARK    3  A    between atoms: C_17  and  C_18
REMARK    4  A    between atoms: C_18  and  C_19
REMARK    5  A    between atoms: C_19  and  C_20
REMARK    6  A    between atoms: C_20  and  N_68
REMARK    7  A    between atoms: C_30  and  C_34
REMARK                            x       y       z     vdW  Elec       q    Type
REMARK                         _______ _______ _______ _____ _____    ______ ____
ROOT
ATOM      1  C   UNL     1      -0.037   1.099  -2.490  0.00  0.00    -0.079 C 
ENDROOT
BRANCH   1  15
ATOM      2  C   UNL     1      -1.085   3.008  -3.546  0.00  0.00    -0.076 C 
ATOM      3  C   UNL     1      -1.954   3.441  -4.730  0.00  0.00    +0.021 C 
ATOM      4  C   UNL     1      -1.197   3.186  -6.032  0.00  0.00    +0.092 C 
ATOM      5  C   UNL     1      -0.799   1.714  -6.126  0.00  0.00    +0.021 C 
ATOM      6  C   UNL     1       0.034   1.337  -4.898  0.00  0.00    -0.076 C 
ATOM      7  C   UNL     1      -2.045   3.574  -7.216  0.00  0.00    -0.010 A 
ATOM      8  C   UNL     1      -3.376   3.377  -7.524  0.00  0.00    +0.007 A 
ATOM      9  C   UNL     1      -3.888   3.859  -8.714  0.00  0.00    +0.001 A 
ATOM     10  C   UNL     1      -3.069   4.538  -9.597  0.00  0.00    +0.013 A 
ATOM     11  C   UNL     1      -1.735   4.736  -9.289  0.00  0.00    +0.061 A 
ATOM     12  C   UNL     1      -1.224   4.256  -8.101  0.00  0.00    -0.004 A 
ATOM     13  C   UNL     1       0.155   4.307  -7.485  0.00  0.00    +0.197 C 
ATOM     14  O   UNL     1      -0.024   4.014  -6.087  0.00  0.00    -0.364 OA
ATOM     15  N   UNL     1      -0.773   1.570  -3.682  0.00  0.00    +0.380 N 
ATOM     16  H   UNL     1      -1.652   1.044  -3.759  0.00  0.00    -0.082 HD
BRANCH  11  17
ATOM     17  C   UNL     1      -0.841   5.475 -10.251  0.00  0.00    +0.418 C 
ATOM     18  F   UNL     1      -1.581   5.859 -11.374  0.00  0.00    -0.166 F 
ATOM     19  F   UNL     1      -0.322   6.613  -9.624  0.00  0.00    -0.166 F 
ATOM     20  F   UNL     1       0.209   4.641 -10.648  0.00  0.00    -0.166 F 
ENDBRANCH  11  17
ENDBRANCH   1  15
BRANCH   1  21
ATOM     21  C   UNL     1      -0.753   1.593  -1.232  0.00  0.00    -0.018 C 
BRANCH  21  22
ATOM     22  C   UNL     1      -0.013   1.086   0.008  0.00  0.00    +0.003 C 
BRANCH  22  23
ATOM     23  C   UNL     1      -0.729   1.579   1.267  0.00  0.00    +0.037 C 
BRANCH  23  30
ATOM     24  C   UNL     1       2.949   3.189   3.686  0.00  0.00    +0.001 A 
ATOM     25  C   UNL     1       3.280   2.384   4.767  0.00  0.00    +0.002 A 
ATOM     26  C   UNL     1       2.558   1.243   5.040  0.00  0.00    +0.027 A 
ATOM     27  C   UNL     1       1.486   0.892   4.226  0.00  0.00    +0.054 A 
ATOM     28  C   UNL     1       1.154   1.712   3.132  0.00  0.00    +0.003 A 
ATOM     29  C   UNL     1       1.899   2.864   2.873  0.00  0.00    +0.010 A 
ATOM     30  C   UNL     1       0.000   1.080   2.488  0.00  0.00    -0.022 A 
ATOM     31  C   UNL     1      -0.289  -0.024   3.194  0.00  0.00    +0.096 A 
ATOM     32  N   UNL     1       0.592  -0.157   4.234  0.00  0.00    -0.316 N 
BRANCH  32  33
ATOM     33  C   UNL     1       0.583  -1.201   5.170  0.00  0.00    +0.047 A 
ATOM     34  C   UNL     1       1.752  -1.895   5.449  0.00  0.00    +0.029 A 
ATOM     35  C   UNL     1       1.742  -2.919   6.375  0.00  0.00    +0.040 A 
ATOM     36  C   UNL     1       0.564  -3.261   7.018  0.00  0.00    +0.124 A 
ATOM     37  C   UNL     1      -0.605  -2.574   6.737  0.00  0.00    +0.040 A 
ATOM     38  C   UNL     1      -0.598  -1.545   5.816  0.00  0.00    +0.029 A 
ATOM     39  F   UNL     1       0.555  -4.268   7.919  0.00  0.00    -0.205 F 
ENDBRANCH  32  33
ENDBRANCH  23  30
ENDBRANCH  22  23
ENDBRANCH  21  22
ENDBRANCH   1  21
TORSDOF 7
