REMARK  Name = ZINC63588895
REMARK  9 active torsions:
REMARK  status: ('A' for Active; 'I' for Inactive)
REMARK    1  A    between atoms: C_1  and  C_2
REMARK    2  A    between atoms: C_2  and  O_3
REMARK    3  A    between atoms: O_3  and  C_4
REMARK    4  A    between atoms: C_7  and  N_10
REMARK    5  A    between atoms: N_12  and  C_13
REMARK    6  A    between atoms: C_13  and  C_14
REMARK    7  A    between atoms: C_14  and  C_15
REMARK    8  A    between atoms: N_24  and  C_25
REMARK    9  A    between atoms: C_25  and  C_27
REMARK                            x       y       z     vdW  Elec       q    Type
REMARK                         _______ _______ _______ _____ _____    ______ ____
ROOT
ATOM      1  N   UNL     1       0.854  -5.786  -2.266  0.00  0.00    -0.328 N 
ATOM      2  C   UNL     1       1.803  -6.440  -2.997  0.00  0.00    +0.194 C 
ATOM      3  N   UNL     1       1.992  -7.780  -2.825  0.00  0.00    -0.357 N 
ATOM      4  N   UNL     1       2.540  -5.775  -3.873  0.00  0.00    -0.143 NA
ATOM      5  H   UNL     1       1.391  -8.286  -2.255  0.00  0.00    +0.162 HD
ATOM      6  H   UNL     1       0.450  -4.974  -2.612  0.00  0.00    +0.169 HD
ENDROOT
BRANCH   1  10
ATOM      7  C   UNL     1      -0.312  -7.276   1.449  0.00  0.00    +0.121 A 
ATOM      8  C   UNL     1      -1.262  -6.758   0.581  0.00  0.00    +0.047 A 
ATOM      9  C   UNL     1      -0.877  -6.264  -0.650  0.00  0.00    +0.029 A 
ATOM     10  C   UNL     1       0.462  -6.286  -1.018  0.00  0.00    +0.042 A 
ATOM     11  C   UNL     1       1.412  -6.804  -0.148  0.00  0.00    +0.029 A 
ATOM     12  C   UNL     1       1.026  -7.293   1.084  0.00  0.00    +0.047 A 
BRANCH   7  13
ATOM     13  O   UNL     1      -0.693  -7.761   2.661  0.00  0.00    -0.492 OA
BRANCH  13  15
ATOM     14  C   UNL     1      -2.320  -8.298   4.365  0.00  0.00    +0.048 C 
ATOM     15  C   UNL     1      -2.087  -7.712   2.971  0.00  0.00    +0.225 C 
ENDBRANCH  13  15
ENDBRANCH   7  13
ENDBRANCH   1  10
BRANCH   4  16
ATOM     16  C   UNL     1       2.482  -4.437  -3.917  0.00  0.00    +0.270 C 
ATOM     17  O   UNL     1       1.900  -3.823  -3.041  0.00  0.00    -0.268 OA
BRANCH  16  18
ATOM     18  C   UNL     1       3.126  -3.705  -5.032  0.00  0.00    +0.040 A 
ATOM     19  C   UNL     1       3.691  -4.408  -6.097  0.00  0.00    +0.016 A 
ATOM     20  C   UNL     1       4.290  -3.723  -7.132  0.00  0.00    +0.040 A 
ATOM     21  C   UNL     1       4.332  -2.337  -7.117  0.00  0.00    +0.142 A 
ATOM     22  C   UNL     1       3.772  -1.633  -6.061  0.00  0.00    +0.077 A 
ATOM     23  C   UNL     1       3.165  -2.311  -5.023  0.00  0.00    +0.036 A 
ATOM     24 CL   UNL     1       3.829   0.102  -6.048  0.00  0.00    -0.081 Cl
ATOM     25  F   UNL     1       4.920  -1.670  -8.134  0.00  0.00    -0.204 F 
ENDBRANCH  16  18
ENDBRANCH   4  16
BRANCH   3  26
ATOM     26  C   UNL     1       3.102  -8.456  -3.501  0.00  0.00    +0.120 C 
BRANCH  26  27
ATOM     27  C   UNL     1       3.088  -9.944  -3.142  0.00  0.00    +0.054 C 
BRANCH  27  28
ATOM     28  C   UNL     1       4.230 -10.639  -3.837  0.00  0.00    -0.040 C 
ATOM     29  C   UNL     1       5.454 -10.902  -3.325  0.00  0.00    -0.001 A 
ATOM     30  C   UNL     1       6.065 -10.630  -2.018  0.00  0.00    +0.010 A 
ATOM     31  C   UNL     1       7.340 -11.023  -1.796  0.00  0.00    +0.001 A 
ATOM     32  C   UNL     1       8.091 -11.682  -2.780  0.00  0.00    +0.002 A 
ATOM     33  C   UNL     1       7.598 -11.967  -4.004  0.00  0.00    +0.026 A 
ATOM     34  C   UNL     1       6.267 -11.600  -4.346  0.00  0.00    +0.043 A 
ATOM     35  N   UNL     1       5.573 -11.761  -5.447  0.00  0.00    -0.380 N 
ATOM     36  C   UNL     1       4.237 -11.189  -5.245  0.00  0.00    +0.144 C 
ATOM     37  H   UNL     1       5.889 -12.191  -6.257  0.00  0.00    +0.160 HD
ENDBRANCH  27  28
ENDBRANCH  26  27
ENDBRANCH   3  26
TORSDOF 8
