REMARK  Name = ZINC49543341
REMARK  12 active torsions:
REMARK  status: ('A' for Active; 'I' for Inactive)
REMARK    1  A    between atoms: C_1  and  O_2
REMARK    2  A    between atoms: O_2  and  C_3
REMARK    3  A    between atoms: C_6  and  C_11
REMARK    4  A    between atoms: C_7  and  O_9
REMARK    5  A    between atoms: O_9  and  C_10
REMARK    6  A    between atoms: C_14  and  O_34
REMARK    7  A    between atoms: N_18  and  C_24
REMARK    8  A    between atoms: C_20  and  C_21
REMARK    9  A    between atoms: C_27  and  O_32
REMARK   10  A    between atoms: C_29  and  O_30
REMARK   11  A    between atoms: O_30  and  C_31
REMARK   12  A    between atoms: O_32  and  C_33
REMARK                            x       y       z     vdW  Elec       q    Type
REMARK                         _______ _______ _______ _____ _____    ______ ____
ROOT
ATOM      1  C   UNL     1      -6.255  -2.558  -0.088  0.00  0.00    +0.081 C 
ATOM      2  C   UNL     1      -7.232  -2.067  -1.162  0.00  0.00    +0.110 C 
ATOM      3  C   UNL     1      -7.758  -0.698  -0.848  0.00  0.00    +0.189 C 
ATOM      4  N   UNL     1      -7.951  -0.271   0.365  0.00  0.00    -0.215 NA
ATOM      5  C   UNL     1      -7.629  -1.092   1.411  0.00  0.00    +0.103 A 
ATOM      6  C   UNL     1      -6.826  -2.190   1.260  0.00  0.00    +0.058 A 
ATOM      7  N   UNL     1      -6.682  -2.798   2.463  0.00  0.00    -0.313 N 
ATOM      8  C   UNL     1      -7.375  -2.134   3.414  0.00  0.00    +0.109 A 
ATOM      9  C   UNL     1      -8.001  -1.044   2.824  0.00  0.00    +0.107 A 
ENDROOT
BRANCH   1  13
ATOM     10  C   UNL     1      -2.455  -0.668  -0.615  0.00  0.00    +0.124 A 
ATOM     11  C   UNL     1      -3.569   0.087  -0.276  0.00  0.00    +0.046 A 
ATOM     12  C   UNL     1      -4.795  -0.526  -0.107  0.00  0.00    +0.011 A 
ATOM     13  C   UNL     1      -4.916  -1.892  -0.274  0.00  0.00    +0.004 A 
ATOM     14  C   UNL     1      -3.805  -2.651  -0.614  0.00  0.00    +0.127 A 
ATOM     15  C   UNL     1      -2.575  -2.038  -0.790  0.00  0.00    +0.091 A 
BRANCH  10  17
ATOM     16  C   UNL     1      -1.199   1.351  -0.585  0.00  0.00    +0.277 C 
ATOM     17  O   UNL     1      -1.248  -0.064  -0.781  0.00  0.00    -0.495 OA
ENDBRANCH  10  17
BRANCH  14  18
ATOM     18  O   UNL     1      -3.925  -3.995  -0.778  0.00  0.00    -0.495 OA
ATOM     19  C   UNL     1      -2.773  -4.696  -1.251  0.00  0.00    +0.277 C 
ENDBRANCH  14  18
ENDBRANCH   1  13
BRANCH   7  20
ATOM     20  C   UNL     1      -5.920  -3.954   2.690  0.00  0.00    +0.089 A 
ATOM     21  C   UNL     1      -6.551  -5.164   2.942  0.00  0.00    +0.033 A 
ATOM     22  C   UNL     1      -5.801  -6.302   3.164  0.00  0.00    +0.048 A 
ATOM     23  C   UNL     1      -4.415  -6.239   3.136  0.00  0.00    +0.124 A 
ATOM     24  C   UNL     1      -3.779  -5.033   2.884  0.00  0.00    +0.093 A 
ATOM     25  C   UNL     1      -4.529  -3.890   2.656  0.00  0.00    +0.147 A 
BRANCH  25  26
ATOM     26  O   UNL     1      -3.908  -2.708   2.403  0.00  0.00    -0.493 OA
ATOM     27  C   UNL     1      -2.484  -2.684   2.523  0.00  0.00    +0.277 C 
ENDBRANCH  25  26
BRANCH  23  28
ATOM     28  O   UNL     1      -3.680  -7.361   3.355  0.00  0.00    -0.495 OA
ATOM     29  C   UNL     1      -4.400  -8.569   3.608  0.00  0.00    +0.277 C 
ENDBRANCH  23  28
ENDBRANCH   7  20
BRANCH   9  30
ATOM     30  C   UNL     1      -8.855  -0.051   3.481  0.00  0.00    +0.390 C 
ATOM     31  O   UNL     1      -9.082  -0.137   4.681  0.00  0.00    -0.240 OA
ATOM     32  O   UNL     1      -9.343   0.864   2.830  0.00  0.00    -0.240 OA
ENDBRANCH   9  30
BRANCH   3  33
ATOM     33  O   UNL     1      -8.045   0.132  -1.874  0.00  0.00    -0.495 OA
ATOM     34  H   UNL     1      -8.379   0.996  -1.599  0.00  0.00    +0.293 HD
ENDBRANCH   3  33
TORSDOF 8
