REMARK  Name = ZINC19356976
REMARK  3 active torsions:
REMARK  status: ('A' for Active; 'I' for Inactive)
REMARK    1  A    between atoms: C_4  and  O_27
REMARK    2  A    between atoms: C_5  and  C_7
REMARK    3  A    between atoms: O_27  and  C_28
REMARK                            x       y       z     vdW  Elec       q    Type
REMARK                         _______ _______ _______ _____ _____    ______ ____
ROOT
ATOM      1  C   UNL     1       1.227  -2.187  -0.022  0.00  0.00    +0.212 C 
ATOM      2  N   UNL     1      -0.027  -2.707   0.556  0.00  0.00    -0.294 N 
ATOM      3  C   UNL     1      -1.147  -2.750  -0.262  0.00  0.00    +0.159 C 
ATOM      4  N   UNL     1      -0.993  -3.380  -1.497  0.00  0.00    -0.259 N 
ATOM      5  C   UNL     1       0.262  -3.227  -2.085  0.00  0.00    +0.205 A 
ATOM      6  N   UNL     1       1.319  -2.675  -1.402  0.00  0.00    -0.288 N 
ATOM      7  C   UNL     1       2.408  -2.679  -2.247  0.00  0.00    +0.076 A 
ATOM      8  C   UNL     1       3.728  -2.266  -2.126  0.00  0.00    +0.077 A 
ATOM      9  C   UNL     1       4.594  -2.417  -3.192  0.00  0.00    +0.164 A 
ATOM     10  C   UNL     1       4.153  -2.979  -4.386  0.00  0.00    +0.164 A 
ATOM     11  C   UNL     1       2.844  -3.391  -4.524  0.00  0.00    +0.079 A 
ATOM     12  C   UNL     1       1.957  -3.245  -3.453  0.00  0.00    +0.095 A 
ATOM     13  N   UNL     1       0.637  -3.553  -3.287  0.00  0.00    -0.214 NA
ATOM     14  O   UNL     1       5.027  -3.123  -5.427  0.00  0.00    -0.488 OA
ATOM     15  C   UNL     1       5.472  -1.912  -6.041  0.00  0.00    +0.232 C 
ATOM     16  C   UNL     1       6.650  -1.324  -5.280  0.00  0.00    +0.082 C 
ATOM     17  C   UNL     1       6.272  -0.889  -3.873  0.00  0.00    +0.232 C 
ATOM     18  O   UNL     1       5.895  -2.014  -3.078  0.00  0.00    -0.488 OA
ATOM     19  N   UNL     1      -2.284  -2.230   0.105  0.00  0.00    -0.375 N 
ATOM     20  H   UNL     1      -0.067  -3.008   1.477  0.00  0.00    +0.151 HD
ATOM     21  H   UNL     1      -2.363  -1.798   0.970  0.00  0.00    +0.158 HD
ATOM     22  H   UNL     1      -1.706  -3.888  -1.916  0.00  0.00    +0.158 HD
ATOM     23  H   UNL     1      -3.051  -2.275  -0.487  0.00  0.00    +0.158 HD
ENDROOT
BRANCH   1  28
ATOM     24  C   UNL     1       0.920   1.397  -1.169  0.00  0.00    +0.001 A 
ATOM     25  C   UNL     1       1.172   2.088   0.002  0.00  0.00    +0.004 A 
ATOM     26  C   UNL     1       1.442   1.398   1.167  0.00  0.00    +0.046 A 
ATOM     27  C   UNL     1       1.461   0.011   1.163  0.00  0.00    +0.134 A 
ATOM     28  C   UNL     1       1.207  -0.680  -0.013  0.00  0.00    +0.035 A 
ATOM     29  C   UNL     1       0.937   0.015  -1.177  0.00  0.00    +0.011 A 
BRANCH  27  30
ATOM     30  O   UNL     1       1.727  -0.670   2.308  0.00  0.00    -0.434 OA
BRANCH  30  31
ATOM     31  C   UNL     1       1.980   0.107   3.481  0.00  0.00    +0.541 C 
ATOM     32  F   UNL     1       3.091   0.929   3.266  0.00  0.00    -0.166 F 
ATOM     33  F   UNL     1       0.862   0.898   3.766  0.00  0.00    -0.166 F 
ENDBRANCH  30  31
ENDBRANCH  27  30
ENDBRANCH   1  28
TORSDOF 3
