REMARK  Name = ZINC08254557
REMARK  8 active torsions:
REMARK  status: ('A' for Active; 'I' for Inactive)
REMARK    1  A    between atoms: C_1  and  C_2
REMARK    2  A    between atoms: C_2  and  C_3
REMARK    3  A    between atoms: C_11  and  C_13
REMARK    4  A    between atoms: C_13  and  N_14
REMARK    5  A    between atoms: N_14  and  C_15
REMARK    6  A    between atoms: C_15  and  N_17
REMARK    7  A    between atoms: N_17  and  C_18
REMARK    8  A    between atoms: C_21  and  C_25
REMARK                            x       y       z     vdW  Elec       q    Type
REMARK                         _______ _______ _______ _____ _____    ______ ____
ROOT
ATOM      1  N   UNL     1      -2.127   5.129   0.823  0.00  0.00    -0.328 N 
ATOM      2  H   UNL     1      -1.299   5.623   0.932  0.00  0.00    +0.148 HD
ENDROOT
BRANCH   1   3
ATOM      3  C   UNL     1      -3.302   5.787   0.777  0.00  0.00    +0.135 C 
ATOM      4  S   UNL     1      -4.764   4.917   0.585  0.00  0.00    -0.019 S 
BRANCH   3   5
ATOM      5  N   UNL     1      -3.327   7.131   0.883  0.00  0.00    -0.296 N 
ATOM      6  H   UNL     1      -2.507   7.619   1.054  0.00  0.00    +0.154 HD
BRANCH   5   7
ATOM      7  C   UNL     1      -4.536   7.821   0.745  0.00  0.00    +0.047 A 
ATOM      8  C   UNL     1      -5.666   7.389   1.428  0.00  0.00    +0.024 A 
ATOM      9  C   UNL     1      -6.858   8.073   1.290  0.00  0.00    +0.005 A 
ATOM     10  C   UNL     1      -6.928   9.187   0.474  0.00  0.00    -0.049 A 
ATOM     11  C   UNL     1      -5.805   9.621  -0.207  0.00  0.00    +0.020 A 
ATOM     12  C   UNL     1      -4.608   8.944  -0.070  0.00  0.00    +0.039 A 
ATOM     13 BR   UNL     1      -3.071   9.542  -0.996  0.00  0.00    -0.048 Br
ATOM     14  C   UNL     1      -8.230   9.931   0.327  0.00  0.00    +0.044 C 
ENDBRANCH   5   7
ENDBRANCH   3   5
ENDBRANCH   1   3
BRANCH   1  15
ATOM     15  C   UNL     1      -2.100   3.669   0.709  0.00  0.00    +0.088 C 
BRANCH  15  22
ATOM     16  C   UNL     1      -0.341   2.130  -1.889  0.00  0.00    -0.025 C 
ATOM     17  C   UNL     1      -0.390   3.627  -1.575  0.00  0.00    -0.075 C 
ATOM     18  C   UNL     1       1.562   3.447  -0.151  0.00  0.00    -0.078 C 
ATOM     19  C   UNL     1       1.666   1.944  -0.425  0.00  0.00    -0.015 C 
ATOM     20  C   UNL     1       0.260   1.390  -0.688  0.00  0.00    -0.013 C 
ATOM     21  C   UNL     1      -0.606   1.649   0.551  0.00  0.00    -0.010 C 
ATOM     22  C   UNL     1      -0.654   3.178   0.790  0.00  0.00    -0.051 C 
ATOM     23  N   UNL     1       0.153   3.889  -0.225  0.00  0.00    +0.383 N 
ATOM     24  H   UNL     1       0.110   4.898  -0.038  0.00  0.00    -0.081 HD
BRANCH  16  26
ATOM     25  C   UNL     1      -2.308   2.262  -3.425  0.00  0.00    +0.004 C 
ATOM     26  C   UNL     1      -1.757   1.614  -2.152  0.00  0.00    -0.002 C 
ENDBRANCH  16  26
ENDBRANCH  15  22
ENDBRANCH   1  15
TORSDOF 6
