REMARK  Name = ZINC67086092
REMARK  12 active torsions:
REMARK  status: ('A' for Active; 'I' for Inactive)
REMARK    1  A    between atoms: C_1  and  C_2
REMARK    2  A    between atoms: C_2  and  C_4
REMARK    3  A    between atoms: C_2  and  N_12
REMARK    4  A    between atoms: C_7  and  C_10
REMARK    5  A    between atoms: N_15  and  C_16
REMARK    6  A    between atoms: C_16  and  C_17
REMARK    7  A    between atoms: C_21  and  C_23
REMARK    8  A    between atoms: N_25  and  C_26
REMARK    9  A    between atoms: C_26  and  C_27
REMARK   10  A    between atoms: C_27  and  N_28
REMARK   11  A    between atoms: N_28  and  C_29
REMARK   12  A    between atoms: N_28  and  C_30
REMARK                            x       y       z     vdW  Elec       q    Type
REMARK                         _______ _______ _______ _____ _____    ______ ____
ROOT
ATOM      1  C   UNL     1      -4.053  -1.252  -2.393  0.00  0.00    +0.141 C 
ENDROOT
BRANCH   1   5
ATOM      2  N   UNL     1      -1.372  -0.511   0.012  0.00  0.00    -0.293 N 
ATOM      3  C   UNL     1      -2.051  -0.643  -1.145  0.00  0.00    +0.300 C 
ATOM      4  O   UNL     1      -1.522  -0.341  -2.197  0.00  0.00    -0.253 OA
ATOM      5  N   UNL     1      -3.315  -1.109  -1.135  0.00  0.00    -0.295 N 
ATOM      6  H   UNL     1      -1.794  -0.752   0.852  0.00  0.00    +0.151 HD
ATOM      7  H   UNL     1      -3.737  -1.350  -0.295  0.00  0.00    +0.151 HD
BRANCH   2   9
ATOM      8  C   UNL     1      -0.019   1.526   0.010  0.00  0.00    +0.033 C 
ATOM      9  C   UNL     1       0.002  -0.004   0.002  0.00  0.00    +0.102 C 
BRANCH   9  10
ATOM     10  C   UNL     1       0.731  -0.503   1.223  0.00  0.00    -0.027 A 
ATOM     11  C   UNL     1       0.077  -0.557   2.441  0.00  0.00    +0.007 A 
ATOM     12  C   UNL     1       0.738  -1.013   3.563  0.00  0.00    +0.019 A 
ATOM     13  C   UNL     1       2.070  -1.421   3.466  0.00  0.00    +0.052 A 
ATOM     14  C   UNL     1       2.724  -1.364   2.234  0.00  0.00    +0.019 A 
ATOM     15  C   UNL     1       2.049  -0.911   1.119  0.00  0.00    +0.007 A 
BRANCH  13  16
ATOM     16  C   UNL     1       2.763  -1.895   4.627  0.00  0.00    +0.099 C 
ATOM     17  N   UNL     1       3.312  -2.271   5.547  0.00  0.00    -0.191 NA
ENDBRANCH  13  16
ENDBRANCH   9  10
ENDBRANCH   2   9
ENDBRANCH   1   5
BRANCH   1  18
ATOM     18  C   UNL     1      -5.432  -1.789  -2.108  0.00  0.00    -0.030 A 
ATOM     19  C   UNL     1      -5.650  -3.155  -2.087  0.00  0.00    +0.005 A 
ATOM     20  C   UNL     1      -6.913  -3.656  -1.826  0.00  0.00    +0.001 A 
ATOM     21  C   UNL     1      -7.964  -2.795  -1.585  0.00  0.00    +0.013 A 
ATOM     22  C   UNL     1      -7.751  -1.416  -1.606  0.00  0.00    +0.037 A 
ATOM     23  C   UNL     1      -6.473  -0.917  -1.864  0.00  0.00    +0.018 A 
BRANCH  22  24
ATOM     24  C   UNL     1      -8.872  -0.488  -1.350  0.00  0.00    +0.244 C 
ATOM     25  O   UNL     1      -8.684   0.713  -1.368  0.00  0.00    -0.270 OA
ATOM     26  N   UNL     1     -10.104  -0.973  -1.096  0.00  0.00    -0.313 N 
ATOM     27  H   UNL     1     -10.255  -1.931  -1.081  0.00  0.00    +0.149 HD
BRANCH  26  28
ATOM     28  C   UNL     1     -11.216  -0.053  -0.842  0.00  0.00    +0.086 C 
BRANCH  28  29
ATOM     29  C   UNL     1     -12.493  -0.855  -0.585  0.00  0.00    -0.061 C 
BRANCH  29  30
ATOM     30  N   UNL     1     -13.607   0.068  -0.330  0.00  0.00    +0.377 N 
ATOM     31  C   UNL     1     -13.879   0.853  -1.542  0.00  0.00    -0.097 C 
ATOM     32  C   UNL     1     -14.805  -0.700   0.035  0.00  0.00    -0.097 C 
ATOM     33  H   UNL     1     -13.363   0.690   0.426  0.00  0.00    -0.083 HD
ENDBRANCH  29  30
ENDBRANCH  28  29
ENDBRANCH  26  28
ENDBRANCH  22  24
ENDBRANCH   1  18
TORSDOF 9
