REMARK  Name = ZINC23356498
REMARK  10 active torsions:
REMARK  status: ('A' for Active; 'I' for Inactive)
REMARK    1  A    between atoms: C_1  and  C_2
REMARK    2  A    between atoms: C_5  and  C_35
REMARK    3  A    between atoms: C_6  and  N_8
REMARK    4  A    between atoms: C_9  and  C_11
REMARK    5  A    between atoms: C_11  and  C_13
REMARK    6  A    between atoms: C_11  and  N_14
REMARK    7  A    between atoms: N_17  and  C_20
REMARK    8  A    between atoms: C_20  and  C_21
REMARK    9  A    between atoms: N_23  and  C_24
REMARK   10  A    between atoms: C_28  and  C_30
REMARK                            x       y       z     vdW  Elec       q    Type
REMARK                         _______ _______ _______ _____ _____    ______ ____
ROOT
ATOM      1  N   UNL     1       4.742  -1.894   2.022  0.00  0.00    -0.295 NA
ATOM      2  C   UNL     1       4.878  -1.161   0.756  0.00  0.00    +0.066 C 
ATOM      3  C   UNL     1       3.870  -0.010   0.725  0.00  0.00    -0.063 C 
ATOM      4  N   UNL     1       2.511  -0.548   0.876  0.00  0.00    +0.387 N 
ATOM      5  C   UNL     1       2.375  -1.282   2.142  0.00  0.00    -0.063 C 
ATOM      6  C   UNL     1       3.383  -2.433   2.172  0.00  0.00    +0.066 C 
ATOM      7  H   UNL     1       2.333  -1.256   0.052  0.00  0.00    -0.081 HD
ENDROOT
BRANCH   1   8
ATOM      8  C   UNL     1       5.746  -2.962   2.122  0.00  0.00    +0.140 C 
ATOM      9  C   UNL     1       5.751  -3.780   0.829  0.00  0.00    +0.034 C 
BRANCH   8  11
ATOM     10  N   UNL     1       8.169  -3.147   2.582  0.00  0.00    -0.284 N 
ATOM     11  C   UNL     1       7.108  -2.354   2.337  0.00  0.00    +0.234 C 
ATOM     12  O   UNL     1       7.248  -1.150   2.291  0.00  0.00    -0.274 OA
ATOM     13  H   UNL     1       8.028  -4.230   2.713  0.00  0.00    +0.155 HD
BRANCH  10  19
ATOM     14  C   UNL     1      11.261   0.543   1.585  0.00  0.00    +0.044 C 
ATOM     15  C   UNL     1      10.978  -0.806   2.193  0.00  0.00    -0.049 A 
ATOM     16  C   UNL     1      11.987  -1.498   2.838  0.00  0.00    +0.004 A 
ATOM     17  C   UNL     1      11.731  -2.736   3.398  0.00  0.00    +0.005 A 
ATOM     18  C   UNL     1      10.466  -3.286   3.315  0.00  0.00    -0.029 A 
ATOM     19  C   UNL     1       9.451  -2.594   2.668  0.00  0.00    +0.037 A 
ATOM     20  C   UNL     1       9.713  -1.352   2.102  0.00  0.00    +0.027 A 
ATOM     21  C   UNL     1      10.189  -4.636   3.925  0.00  0.00    +0.045 C 
ENDBRANCH  10  19
ENDBRANCH   8  11
ENDBRANCH   1   8
BRANCH   4  22
ATOM     22  C   UNL     1       1.507   0.520   0.776  0.00  0.00    +0.019 C 
BRANCH  22  23
ATOM     23  C   UNL     1       0.132  -0.090   0.688  0.00  0.00    +0.201 C 
ATOM     24  O   UNL     1       0.001  -1.296   0.706  0.00  0.00    -0.278 OA
ATOM     25  N   UNL     1      -0.952   0.704   0.583  0.00  0.00    -0.287 N 
ATOM     26  H   UNL     1      -0.841   1.797   0.648  0.00  0.00    +0.155 HD
BRANCH  25  27
ATOM     27  C   UNL     1      -2.218   0.139   0.390  0.00  0.00    +0.034 A 
ATOM     28  C   UNL     1      -2.360  -0.996  -0.398  0.00  0.00    +0.025 A 
ATOM     29  C   UNL     1      -3.609  -1.555  -0.582  0.00  0.00    +0.022 A 
ATOM     30  C   UNL     1      -4.721  -0.977   0.007  0.00  0.00    +0.053 A 
ATOM     31  C   UNL     1      -4.582   0.157   0.788  0.00  0.00    +0.075 A 
ATOM     32  C   UNL     1      -3.334   0.716   0.980  0.00  0.00    +0.037 A 
ATOM     33 CL   UNL     1      -6.291  -1.678  -0.233  0.00  0.00    -0.083 Cl
BRANCH  31  34
ATOM     34  C   UNL     1      -5.794   0.782   1.429  0.00  0.00    +0.419 C 
ATOM     35  F   UNL     1      -5.405   1.907   2.163  0.00  0.00    -0.166 F 
ATOM     36  F   UNL     1      -6.702   1.164   0.435  0.00  0.00    -0.166 F 
ATOM     37  F   UNL     1      -6.401  -0.145   2.283  0.00  0.00    -0.166 F 
ENDBRANCH  31  34
ENDBRANCH  25  27
ENDBRANCH  22  23
ENDBRANCH   4  22
TORSDOF 7
