REMARK  Name = ZINC66657328
REMARK  5 active torsions:
REMARK  status: ('A' for Active; 'I' for Inactive)
REMARK    1  A    between atoms: C_1  and  C_2
REMARK    2  A    between atoms: C_10  and  C_11
REMARK    3  A    between atoms: C_17  and  C_19
REMARK    4  A    between atoms: N_21  and  C_22
REMARK    5  A    between atoms: N_21  and  C_23
REMARK                            x       y       z     vdW  Elec       q    Type
REMARK                         _______ _______ _______ _____ _____    ______ ____
ROOT
ATOM      1  C   UNL     1       0.031  -0.382   2.484  0.00  0.00    +0.284 C 
ATOM      2  O   UNL     1       0.017   0.806   2.745  0.00  0.00    -0.267 OA
ATOM      3  N   UNL     1       0.053  -1.291   3.479  0.00  0.00    -0.273 N 
ATOM      4  C   UNL     1       0.077  -2.744   3.205  0.00  0.00    +0.178 C 
ATOM      5  S   UNL     1       0.789  -3.394   4.780  0.00  0.00    -0.139 S 
ATOM      6  C   UNL     1       0.105  -2.074   5.878  0.00  0.00    +0.102 C 
ATOM      7  C   UNL     1       0.061  -0.893   4.877  0.00  0.00    +0.173 C 
ENDROOT
BRANCH   1  17
ATOM      8  C   UNL     1      -0.018   1.503   0.010  0.00  0.00    +0.048 C 
ATOM      9  C   UNL     1       0.002  -0.004   0.002  0.00  0.00    +0.008 A 
ATOM     10  C   UNL     1       0.009  -0.877  -1.171  0.00  0.00    +0.025 A 
ATOM     11  C   UNL     1      -0.001  -0.654  -2.551  0.00  0.00    +0.012 A 
ATOM     12  C   UNL     1       0.010  -1.717  -3.409  0.00  0.00    +0.002 A 
ATOM     13  C   UNL     1       0.030  -3.016  -2.920  0.00  0.00    +0.024 A 
ATOM     14  C   UNL     1       0.040  -3.258  -1.562  0.00  0.00    +0.084 A 
ATOM     15  C   UNL     1       0.030  -2.191  -0.669  0.00  0.00    +0.154 A 
ATOM     16  O   UNL     1       0.035  -2.113   0.676  0.00  0.00    -0.448 OA
ATOM     17  C   UNL     1       0.024  -0.826   1.083  0.00  0.00    +0.194 A 
ATOM     18 CL   UNL     1       0.065  -4.889  -0.969  0.00  0.00    -0.080 Cl
ENDBRANCH   1  17
BRANCH   7  19
ATOM     19  C   UNL     1       1.260  -0.013   5.117  0.00  0.00    +0.236 C 
ATOM     20  O   UNL     1       2.016   0.244   4.204  0.00  0.00    -0.274 OA
ATOM     21  N   UNL     1       1.492   0.489   6.346  0.00  0.00    -0.306 N 
ATOM     22  C   UNL     1       2.658   1.345   6.579  0.00  0.00    +0.131 C 
ATOM     23  C   UNL     1       0.579   0.179   7.448  0.00  0.00    +0.131 C 
ENDBRANCH   7  19
TORSDOF 2
