REMARK  Name = ZINC36146360
REMARK  10 active torsions:
REMARK  status: ('A' for Active; 'I' for Inactive)
REMARK    1  A    between atoms: C_4  and  C_7
REMARK    2  A    between atoms: C_7  and  C_8
REMARK    3  A    between atoms: C_8  and  C_10
REMARK    4  A    between atoms: C_8  and  O_34
REMARK    5  A    between atoms: C_10  and  N_11
REMARK    6  A    between atoms: N_11  and  C_12
REMARK    7  A    between atoms: N_11  and  C_20
REMARK    8  A    between atoms: C_12  and  C_13
REMARK    9  A    between atoms: C_20  and  C_21
REMARK   10  A    between atoms: C_24  and  C_27
REMARK                            x       y       z     vdW  Elec       q    Type
REMARK                         _______ _______ _______ _____ _____    ______ ____
ROOT
ATOM      1  N   UNL     1       5.529  -1.918   2.742  0.00  0.00    +0.387 N 
ATOM      2  H   UNL     1       5.585  -1.145   3.387  0.00  0.00    -0.081 HD
ENDROOT
BRANCH   1   3
ATOM      3  C   UNL     1       4.928  -1.462   1.482  0.00  0.00    -0.046 C 
BRANCH   3   4
ATOM      4  C   UNL     1       3.574  -0.809   1.769  0.00  0.00    +0.102 C 
BRANCH   4   5
ATOM      5  O   UNL     1       3.772   0.375   2.544  0.00  0.00    -0.393 OA
ATOM      6  H   UNL     1       4.324   1.041   2.111  0.00  0.00    +0.210 HD
ENDBRANCH   4   5
BRANCH   4   7
ATOM      7  C   UNL     1       2.892  -0.447   0.449  0.00  0.00    +0.064 C 
BRANCH   7  11
ATOM      8  C   UNL     1      -1.029   1.055   1.235  0.00  0.00    +0.000 A 
ATOM      9  C   UNL     1       0.046   1.923   1.186  0.00  0.00    +0.000 A 
ATOM     10  C   UNL     1       1.315   1.436   0.931  0.00  0.00    +0.004 A 
ATOM     11  C   UNL     1       1.509   0.083   0.727  0.00  0.00    -0.045 A 
ATOM     12  C   UNL     1       0.433  -0.784   0.777  0.00  0.00    +0.004 A 
ATOM     13  C   UNL     1      -0.836  -0.298   1.030  0.00  0.00    +0.000 A 
ENDBRANCH   7  11
ENDBRANCH   4   7
ENDBRANCH   3   4
ENDBRANCH   1   3
BRANCH   1  14
ATOM     14  C   UNL     1       4.700  -2.982   3.324  0.00  0.00    -0.041 C 
BRANCH  14  15
ATOM     15  C   UNL     1       5.247  -3.364   4.675  0.00  0.00    -0.046 A 
ATOM     16  C   UNL     1       5.987  -4.522   4.819  0.00  0.00    +0.003 A 
ATOM     17  C   UNL     1       6.489  -4.872   6.059  0.00  0.00    +0.000 A 
ATOM     18  C   UNL     1       6.252  -4.063   7.155  0.00  0.00    +0.001 A 
ATOM     19  C   UNL     1       5.512  -2.905   7.012  0.00  0.00    +0.020 A 
ATOM     20  C   UNL     1       5.014  -2.551   5.770  0.00  0.00    +0.042 A 
ATOM     21 CL   UNL     1       4.090  -1.093   5.588  0.00  0.00    -0.083 Cl
ENDBRANCH  14  15
ENDBRANCH   1  14
BRANCH   1  22
ATOM     22  C   UNL     1       6.879  -2.437   2.481  0.00  0.00    -0.030 C 
BRANCH  22  23
ATOM     23  C   UNL     1       7.782  -1.294   2.012  0.00  0.00    +0.194 C 
ATOM     24  C   UNL     1       9.238  -1.781   1.824  0.00  0.00    +0.104 C 
ATOM     25  C   UNL     1      10.048  -0.596   2.314  0.00  0.00    +0.092 C 
ATOM     26  N   UNL     1       9.263   0.184   2.979  0.00  0.00    -0.089 NA
ATOM     27  O   UNL     1       7.935  -0.300   3.045  0.00  0.00    -0.392 OA
BRANCH  25  28
ATOM     28  C   UNL     1      11.487  -0.373   2.073  0.00  0.00    +0.018 A 
ATOM     29  C   UNL     1      12.203  -1.240   1.245  0.00  0.00    +0.011 A 
ATOM     30  C   UNL     1      13.547  -1.026   1.025  0.00  0.00    +0.001 A 
ATOM     31  C   UNL     1      14.188   0.045   1.622  0.00  0.00    +0.001 A 
ATOM     32  C   UNL     1      13.487   0.909   2.443  0.00  0.00    +0.020 A 
ATOM     33  C   UNL     1      12.139   0.710   2.668  0.00  0.00    +0.050 A 
ATOM     34 CL   UNL     1      11.258   1.800   3.693  0.00  0.00    -0.083 Cl
ENDBRANCH  25  28
ENDBRANCH  22  23
ENDBRANCH   1  22
TORSDOF 10
