REMARK  Name = ZINC47516592
REMARK  8 active torsions:
REMARK  status: ('A' for Active; 'I' for Inactive)
REMARK    1  A    between atoms: C_1  and  C_2
REMARK    2  A    between atoms: C_2  and  C_4
REMARK    3  A    between atoms: C_2  and  N_12
REMARK    4  A    between atoms: N_12  and  C_13
REMARK    5  A    between atoms: N_16  and  C_17
REMARK    6  A    between atoms: C_22  and  S_23
REMARK    7  A    between atoms: S_23  and  C_24
REMARK    8  A    between atoms: C_24  and  C_25
REMARK                            x       y       z     vdW  Elec       q    Type
REMARK                         _______ _______ _______ _____ _____    ______ ____
ROOT
ATOM      1  N   UNL     1       0.889  -0.454   1.138  0.00  0.00    -0.282 N 
ATOM      2  C   UNL     1       2.218   0.114   1.381  0.00  0.00    +0.134 C 
ATOM      3  C   UNL     1       0.391  -1.386   1.975  0.00  0.00    +0.307 C 
ATOM      4  O   UNL     1      -0.712  -1.857   1.773  0.00  0.00    -0.252 OA
ATOM      5  N   UNL     1       1.116  -1.796   3.034  0.00  0.00    -0.268 N 
ATOM      6  H   UNL     1       2.022  -1.472   3.157  0.00  0.00    +0.156 HD
ENDROOT
BRANCH   5   7
ATOM      7  C   UNL     1       0.560  -2.692   3.959  0.00  0.00    +0.048 A 
ATOM      8  C   UNL     1      -0.325  -3.670   3.534  0.00  0.00    +0.024 A 
ATOM      9  C   UNL     1      -0.872  -4.552   4.448  0.00  0.00    +0.002 A 
ATOM     10  C   UNL     1      -0.540  -4.461   5.787  0.00  0.00    +0.001 A 
ATOM     11  C   UNL     1       0.342  -3.489   6.220  0.00  0.00    +0.016 A 
ATOM     12  C   UNL     1       0.900  -2.603   5.309  0.00  0.00    +0.030 A 
BRANCH  12  13
ATOM     13  S   UNL     1       2.030  -1.367   5.857  0.00  0.00    -0.114 S 
BRANCH  13  14
ATOM     14  C   UNL     1       2.153  -1.647   7.645  0.00  0.00    +0.169 C 
BRANCH  14  15
ATOM     15  C   UNL     1       3.102  -0.643   8.246  0.00  0.00    +0.221 C 
ATOM     16  O   UNL     1       3.642   0.181   7.538  0.00  0.00    -0.275 OA
ATOM     17  N   UNL     1       3.351  -0.659   9.571  0.00  0.00    -0.329 N 
ATOM     18  H   UNL     1       2.919  -1.318  10.137  0.00  0.00    +0.145 HD
ATOM     19  H   UNL     1       3.962  -0.013   9.958  0.00  0.00    +0.145 HD
ENDBRANCH  14  15
ENDBRANCH  13  14
ENDBRANCH  12  13
ENDBRANCH   5   7
BRANCH   1  21
ATOM     20  C   UNL     1      -0.055   1.514   0.034  0.00  0.00    +0.033 C 
ATOM     21  C   UNL     1       0.101  -0.007  -0.013  0.00  0.00    +0.107 C 
BRANCH  21  22
ATOM     22  C   UNL     1       0.805  -0.401  -1.286  0.00  0.00    +0.011 A 
ATOM     23  C   UNL     1       1.487   0.550  -2.022  0.00  0.00    +0.046 A 
ATOM     24  C   UNL     1       2.134   0.189  -3.191  0.00  0.00    +0.124 A 
ATOM     25  C   UNL     1       2.099  -1.126  -3.623  0.00  0.00    +0.041 A 
ATOM     26  C   UNL     1       1.417  -2.077  -2.888  0.00  0.00    +0.041 A 
ATOM     27  C   UNL     1       0.774  -1.716  -1.716  0.00  0.00    +0.128 A 
ATOM     28  F   UNL     1       0.112  -2.647  -0.995  0.00  0.00    -0.205 F 
ATOM     29  F   UNL     1       2.800   1.119  -3.909  0.00  0.00    -0.205 F 
ENDBRANCH  21  22
ENDBRANCH   1  21
TORSDOF 6
