REMARK  Name = ZINC12451899
REMARK  6 active torsions:
REMARK  status: ('A' for Active; 'I' for Inactive)
REMARK    1  A    between atoms: C_3  and  O_30
REMARK    2  A    between atoms: C_4  and  C_16
REMARK    3  A    between atoms: C_6  and  C_7
REMARK    4  A    between atoms: C_16  and  N_52
REMARK    5  A    between atoms: C_17  and  C_18
REMARK    6  A    between atoms: C_17  and  N_52
REMARK                            x       y       z     vdW  Elec       q    Type
REMARK                         _______ _______ _______ _____ _____    ______ ____
ROOT
ATOM      1  C   UNL     1      -2.592   6.914  -7.356  0.00  0.00    +0.012 A 
ATOM      2  C   UNL     1      -1.248   6.808  -7.062  0.00  0.00    +0.046 A 
ATOM      3  C   UNL     1      -0.832   6.687  -5.744  0.00  0.00    +0.118 A 
ATOM      4  C   UNL     1      -1.766   6.663  -4.717  0.00  0.00    -0.022 A 
ATOM      5  C   UNL     1      -3.111   6.769  -5.004  0.00  0.00    +0.013 A 
ATOM      6  C   UNL     1      -3.532   6.896  -6.327  0.00  0.00    -0.017 A 
ENDROOT
BRANCH   6   7
ATOM      7  C   UNL     1      -4.977   7.010  -6.639  0.00  0.00    -0.014 A 
ATOM      8  C   UNL     1      -5.917   6.991  -5.610  0.00  0.00    +0.012 A 
ATOM      9  C   UNL     1      -7.262   7.097  -5.901  0.00  0.00    +0.050 A 
ATOM     10  C   UNL     1      -7.683   7.223  -7.217  0.00  0.00    +0.166 A 
ATOM     11  C   UNL     1      -6.747   7.243  -8.249  0.00  0.00    +0.167 A 
ATOM     12  C   UNL     1      -5.398   7.142  -7.961  0.00  0.00    +0.058 A 
ATOM     13  O   UNL     1      -7.410   7.374  -9.436  0.00  0.00    -0.453 OA
ATOM     14  C   UNL     1      -8.726   7.845  -9.091  0.00  0.00    +0.466 C 
ATOM     15  O   UNL     1      -8.931   7.342  -7.758  0.00  0.00    -0.453 OA
ENDBRANCH   6   7
BRANCH   3  16
ATOM     16  O   UNL     1       0.493   6.587  -5.458  0.00  0.00    -0.507 OA
ATOM     17  H   UNL     1       0.825   5.679  -5.443  0.00  0.00    +0.292 HD
ENDBRANCH   3  16
BRANCH   4  18
ATOM     18  C   UNL     1      -1.310   6.526  -3.288  0.00  0.00    -0.043 C 
BRANCH  18  19
ATOM     19  N   UNL     1      -0.905   5.129  -3.040  0.00  0.00    +0.382 N 
ATOM     20  H   UNL     1      -0.138   4.881  -3.676  0.00  0.00    -0.085 HD
ATOM     21  H   UNL     1      -1.706   4.510  -3.212  0.00  0.00    -0.085 HD
BRANCH  19  22
ATOM     22  C   UNL     1      -0.453   4.966  -1.646  0.00  0.00    -0.078 C 
BRANCH  22  23
ATOM     23  C   UNL     1      -0.041   3.510  -1.420  0.00  0.00    -0.020 C 
ATOM     24  C   UNL     1      -1.285   2.586  -1.413  0.00  0.00    +0.010 C 
ATOM     25  C   UNL     1      -1.273   1.960   0.018  0.00  0.00    +0.018 C 
ATOM     26  C   UNL     1      -0.013   1.076   0.008  0.00  0.00    -0.027 C 
ATOM     27  C   UNL     1       1.048   1.864   0.002  0.00  0.00    -0.027 C 
ATOM     28  C   UNL     1       0.565   3.325   0.014  0.00  0.00    +0.019 C 
ATOM     29  C   UNL     1      -0.732   3.158   0.841  0.00  0.00    -0.017 C 
ATOM     30  C   UNL     1      -1.562   4.278   1.386  0.00  0.00    +0.008 C 
ATOM     31  C   UNL     1      -0.834   3.305   2.328  0.00  0.00    +0.008 C 
ENDBRANCH  22  23
ENDBRANCH  19  22
ENDBRANCH  18  19
ENDBRANCH   4  18
TORSDOF 6
