REMARK  Name = ZINC41022610
REMARK  12 active torsions:
REMARK  status: ('A' for Active; 'I' for Inactive)
REMARK    1  A    between atoms: C_1  and  C_2
REMARK    2  A    between atoms: C_2  and  S_3
REMARK    3  A    between atoms: S_3  and  C_4
REMARK    4  A    between atoms: C_9  and  C_26
REMARK    5  A    between atoms: C_11  and  C_15
REMARK    6  A    between atoms: C_12  and  C_14
REMARK    7  A    between atoms: N_17  and  C_18
REMARK    8  A    between atoms: C_22  and  C_25
REMARK    9  A    between atoms: C_23  and  C_24
REMARK   10  A    between atoms: C_29  and  O_32
REMARK   11  A    between atoms: O_32  and  C_33
REMARK   12  A    between atoms: C_33  and  C_34
REMARK                            x       y       z     vdW  Elec       q    Type
REMARK                         _______ _______ _______ _____ _____    ______ ____
ROOT
ATOM      1  C   UNL     1       0.685  -2.360   1.434  0.00  0.00    +0.210 A 
ATOM      2  N   UNL     1       0.145  -3.044   0.414  0.00  0.00    -0.187 NA
ATOM      3  C   UNL     1       0.313  -4.324   0.611  0.00  0.00    +0.219 A 
ATOM      4  N   UNL     1       0.979  -4.486   1.780  0.00  0.00    -0.220 N 
ATOM      5  N   UNL     1       1.210  -3.210   2.290  0.00  0.00    -0.141 NA
ATOM      6  C   UNL     1       1.354  -5.790   2.322  0.00  0.00    +0.177 C 
ATOM      7  C   UNL     1       0.639  -6.874   1.560  0.00  0.00    +0.060 C 
ATOM      8  C   UNL     1      -0.009  -6.652   0.407  0.00  0.00    +0.018 C 
ATOM      9  N   UNL     1      -0.080  -5.406  -0.165  0.00  0.00    -0.287 N 
ATOM     10  C   UNL     1      -0.681  -7.810  -0.284  0.00  0.00    +0.061 C 
ATOM     11  H   UNL     1      -0.392  -5.286  -1.075  0.00  0.00    +0.155 HD
ENDROOT
BRANCH   6  12
ATOM     12  C   UNL     1       2.843  -5.980   2.190  0.00  0.00    -0.018 A 
ATOM     13  C   UNL     1       3.434  -5.950   0.940  0.00  0.00    +0.009 A 
ATOM     14  C   UNL     1       4.799  -6.124   0.816  0.00  0.00    +0.046 A 
ATOM     15  C   UNL     1       5.576  -6.330   1.946  0.00  0.00    +0.121 A 
ATOM     16  C   UNL     1       4.981  -6.360   3.199  0.00  0.00    +0.046 A 
ATOM     17  C   UNL     1       3.616  -6.179   3.318  0.00  0.00    +0.009 A 
BRANCH  15  18
ATOM     18  O   UNL     1       6.919  -6.502   1.827  0.00  0.00    -0.487 OA
BRANCH  18  19
ATOM     19  C   UNL     1       7.657  -6.709   3.033  0.00  0.00    +0.264 C 
BRANCH  19  20
ATOM     20  C   UNL     1       9.118  -6.880   2.706  0.00  0.00    -0.010 A 
ATOM     21  C   UNL     1       9.626  -8.139   2.446  0.00  0.00    +0.007 A 
ATOM     22  C   UNL     1      10.966  -8.295   2.146  0.00  0.00    +0.000 A 
ATOM     23  C   UNL     1      11.798  -7.192   2.105  0.00  0.00    +0.000 A 
ATOM     24  C   UNL     1      11.290  -5.933   2.364  0.00  0.00    +0.000 A 
ATOM     25  C   UNL     1       9.949  -5.776   2.660  0.00  0.00    +0.007 A 
ENDBRANCH  19  20
ENDBRANCH  18  19
ENDBRANCH  15  18
ENDBRANCH   6  12
BRANCH   7  26
ATOM     26  C   UNL     1       0.653  -8.188   2.084  0.00  0.00    +0.248 C 
ATOM     27  O   UNL     1      -0.053  -8.471   3.035  0.00  0.00    -0.270 OA
ATOM     28  N   UNL     1       1.448  -9.126   1.531  0.00  0.00    -0.281 N 
ATOM     29  H   UNL     1       2.055  -8.885   0.815  0.00  0.00    +0.155 HD
BRANCH  28  30
ATOM     30  C   UNL     1       1.395 -10.445   1.991  0.00  0.00    +0.037 A 
ATOM     31  C   UNL     1       1.159 -10.706   3.334  0.00  0.00    +0.023 A 
ATOM     32  C   UNL     1       1.108 -12.010   3.785  0.00  0.00    +0.002 A 
ATOM     33  C   UNL     1       1.292 -13.057   2.900  0.00  0.00    +0.004 A 
ATOM     34  C   UNL     1       1.528 -12.801   1.561  0.00  0.00    -0.046 A 
ATOM     35  C   UNL     1       1.574 -11.499   1.103  0.00  0.00    -0.026 A 
ATOM     36  C   UNL     1       1.825 -11.221  -0.356  0.00  0.00    +0.046 C 
ATOM     37  C   UNL     1       1.728 -13.945   0.600  0.00  0.00    +0.044 C 
ENDBRANCH  28  30
ENDBRANCH   7  26
BRANCH   1  38
ATOM     38  S   UNL     1       0.695  -0.605   1.596  0.00  0.00    -0.085 S 
BRANCH  38  40
ATOM     39  C   UNL     1      -0.235   1.507   0.128  0.00  0.00    +0.016 C 
ATOM     40  C   UNL     1      -0.172  -0.022   0.114  0.00  0.00    +0.074 C 
ENDBRANCH  38  40
ENDBRANCH   1  38
TORSDOF 8
