REMARK  Name = ZINC37919335
REMARK  7 active torsions:
REMARK  status: ('A' for Active; 'I' for Inactive)
REMARK    1  A    between atoms: C_1  and  C_2
REMARK    2  A    between atoms: C_2  and  C_3
REMARK    3  A    between atoms: C_3  and  C_5
REMARK    4  A    between atoms: C_3  and  N_13
REMARK    5  A    between atoms: C_10  and  O_11
REMARK    6  A    between atoms: N_13  and  C_14
REMARK    7  A    between atoms: C_14  and  C_15
REMARK                            x       y       z     vdW  Elec       q    Type
REMARK                         _______ _______ _______ _____ _____    ______ ____
ROOT
ATOM      1  C   UNL     1       0.848  -0.508   1.173  0.00  0.00    -0.037 C 
ENDROOT
BRANCH   1   2
ATOM      2  C   UNL     1       1.169  -1.977   1.076  0.00  0.00    -0.019 A 
ATOM      3  C   UNL     1       0.401  -2.899   1.762  0.00  0.00    +0.020 A 
ATOM      4  C   UNL     1       0.695  -4.248   1.673  0.00  0.00    +0.018 A 
ATOM      5  C   UNL     1       1.759  -4.676   0.899  0.00  0.00    +0.019 A 
ATOM      6  C   UNL     1       2.529  -3.758   0.212  0.00  0.00    +0.047 A 
ATOM      7  C   UNL     1       2.232  -2.405   0.295  0.00  0.00    +0.119 A 
ATOM      8 BR   UNL     1      -0.357  -5.507   2.613  0.00  0.00    -0.050 Br
BRANCH   7   9
ATOM      9  O   UNL     1       2.985  -1.501  -0.384  0.00  0.00    -0.507 OA
ATOM     10  H   UNL     1       3.744  -1.167   0.115  0.00  0.00    +0.292 HD
ENDBRANCH   7   9
ENDBRANCH   1   2
BRANCH   1  11
ATOM     11  N   UNL     1       0.145  -0.242   2.435  0.00  0.00    +0.388 N 
ATOM     12  H   UNL     1      -0.151   0.722   2.458  0.00  0.00    -0.084 HD
ATOM     13  H   UNL     1      -0.662  -0.844   2.504  0.00  0.00    -0.084 HD
BRANCH  11  14
ATOM     14  C   UNL     1       1.049  -0.504   3.563  0.00  0.00    -0.002 C 
BRANCH  14  15
ATOM     15  C   UNL     1       0.370  -0.114   4.851  0.00  0.00    +0.134 A 
ATOM     16  N   UNL     1      -0.382  -0.916   5.604  0.00  0.00    -0.222 NA
ATOM     17  H   UNL     1      -0.498   1.708   7.223  0.00  0.00    +0.190 HD
ATOM     18  C   UNL     1      -0.817  -0.262   6.651  0.00  0.00    +0.216 A 
ATOM     19  N   UNL     1      -0.342   0.994   6.586  0.00  0.00    -0.265 N 
ATOM     20  N   UNL     1       0.429   1.065   5.414  0.00  0.00    -0.160 NA
ENDBRANCH  14  15
ENDBRANCH  11  14
ENDBRANCH   1  11
BRANCH   1  22
ATOM     21  C   UNL     1      -0.261   1.412   0.021  0.00  0.00    +0.002 C 
ATOM     22  C   UNL     1      -0.044  -0.102  -0.003  0.00  0.00    -0.014 C 
ENDBRANCH   1  22
TORSDOF 6
