REMARK  Name = ZINC65520010
REMARK  4 active torsions:
REMARK  status: ('A' for Active; 'I' for Inactive)
REMARK    1  A    between atoms: C_3  and  C_12
REMARK    2  A    between atoms: C_12  and  N_13
REMARK    3  A    between atoms: N_15  and  C_16
REMARK    4  A    between atoms: C_16  and  C_17
REMARK                            x       y       z     vdW  Elec       q    Type
REMARK                         _______ _______ _______ _____ _____    ______ ____
ROOT
ATOM      1  N   UNL     1       4.225   2.086  -1.388  0.00  0.00    -0.354 N 
ATOM      2  C   UNL     1       5.435   2.685  -1.644  0.00  0.00    +0.169 C 
ATOM      3  N   UNL     1       5.907   2.708  -2.859  0.00  0.00    -0.351 N 
ATOM      4  N   UNL     1       6.148   3.261  -0.619  0.00  0.00    -0.371 N 
ATOM      5  H   UNL     1       3.722   1.679  -2.111  0.00  0.00    +0.163 HD
ATOM      6  H   UNL     1       5.797   3.244   0.285  0.00  0.00    +0.159 HD
ATOM      7  H   UNL     1       7.002   3.684  -0.800  0.00  0.00    +0.159 HD
ATOM      8  H   UNL     1       5.404   2.302  -3.582  0.00  0.00    +0.163 HD
ENDROOT
BRANCH   1   9
ATOM      9  C   UNL     1       3.695   2.060  -0.023  0.00  0.00    +0.154 C 
BRANCH   9  12
ATOM     10  C   UNL     1      -0.017   1.377   0.010  0.00  0.00    +0.020 A 
ATOM     11  C   UNL     1       1.184   2.072   0.002  0.00  0.00    +0.010 A 
ATOM     12  C   UNL     1       2.365   1.350  -0.013  0.00  0.00    +0.016 A 
ATOM     13  C   UNL     1       2.308  -0.038  -0.020  0.00  0.00    +0.160 A 
ATOM     14  N   UNL     1       1.143  -0.665  -0.012  0.00  0.00    -0.236 NA
ATOM     15  C   UNL     1       0.002  -0.004   0.002  0.00  0.00    +0.113 A 
ATOM     16  N   UNL     1       3.494  -0.779  -0.036  0.00  0.00    -0.202 N 
ATOM     17  C   UNL     1       3.664  -2.041   0.406  0.00  0.00    +0.226 A 
ATOM     18  N   UNL     1       4.915  -2.372   0.215  0.00  0.00    -0.222 NA
ATOM     19  C   UNL     1       5.572  -1.355  -0.344  0.00  0.00    +0.245 A 
ATOM     20  N   UNL     1       4.744  -0.360  -0.522  0.00  0.00    -0.152 NA
ENDBRANCH   9  12
ENDBRANCH   1   9
BRANCH   3  21
ATOM     21  C   UNL     1       7.197   3.347  -3.132  0.00  0.00    +0.190 C 
BRANCH  21  22
ATOM     22  C   UNL     1       7.511   3.236  -4.602  0.00  0.00    +0.124 A 
ATOM     23  C   UNL     1       7.172   4.130  -5.548  0.00  0.00    +0.046 A 
ATOM     24  C   UNL     1       7.662   3.632  -6.777  0.00  0.00    +0.041 A 
ATOM     25  C   UNL     1       8.272   2.464  -6.508  0.00  0.00    +0.195 A 
ATOM     26  O   UNL     1       8.182   2.232  -5.188  0.00  0.00    -0.466 OA
ENDBRANCH  21  22
ENDBRANCH   3  21
TORSDOF 4
