REMARK  Name = ZINC15047576
REMARK  11 active torsions:
REMARK  status: ('A' for Active; 'I' for Inactive)
REMARK    1  A    between atoms: C_1  and  C_2
REMARK    2  A    between atoms: C_2  and  O_3
REMARK    3  A    between atoms: O_3  and  C_4
REMARK    4  A    between atoms: C_6  and  C_11
REMARK    5  A    between atoms: C_9  and  O_10
REMARK    6  A    between atoms: N_15  and  C_19
REMARK    7  A    between atoms: C_19  and  C_21
REMARK    8  A    between atoms: C_19  and  C_22
REMARK    9  A    between atoms: N_24  and  C_25
REMARK   10  A    between atoms: C_28  and  S_31
REMARK   11  A    between atoms: S_31  and  N_34
REMARK                            x       y       z     vdW  Elec       q    Type
REMARK                         _______ _______ _______ _____ _____    ______ ____
ROOT
ATOM      1  C   UNL     1       0.210   1.385  -0.371  0.00  0.00    +0.028 C 
ATOM      2  C   UNL     1       1.457   1.770   0.003  0.00  0.00    +0.077 C 
ATOM      3  C   UNL     1       2.665   0.953   0.231  0.00  0.00    +0.259 C 
ATOM      4  O   UNL     1       2.656  -0.256   0.092  0.00  0.00    -0.269 OA
ATOM      5  N   UNL     1       3.760   1.602   0.590  0.00  0.00    -0.244 N 
ATOM      6  C   UNL     1       3.764   2.941   0.751  0.00  0.00    +0.121 C 
ATOM      7  S   UNL     1       5.066   3.952   1.214  0.00  0.00    -0.027 S 
ATOM      8  S   UNL     1       2.084   3.405   0.363  0.00  0.00    -0.061 S 
ENDROOT
BRANCH   1  11
ATOM      9  C   UNL     1      -1.730   4.557   0.116  0.00  0.00    +0.162 A 
ATOM     10  C   UNL     1      -0.698   3.639   0.149  0.00  0.00    +0.057 A 
ATOM     11  C   UNL     1      -0.884   2.364  -0.398  0.00  0.00    -0.020 A 
ATOM     12  C   UNL     1      -2.118   2.023  -0.965  0.00  0.00    +0.012 A 
ATOM     13  C   UNL     1      -3.143   2.943  -0.988  0.00  0.00    +0.050 A 
ATOM     14  C   UNL     1      -2.955   4.210  -0.450  0.00  0.00    +0.158 A 
BRANCH  14  15
ATOM     15  O   UNL     1      -3.970   5.113  -0.476  0.00  0.00    -0.503 OA
ATOM     16  H   UNL     1      -4.543   5.082   0.302  0.00  0.00    +0.292 HD
ENDBRANCH  14  15
BRANCH   9  17
ATOM     17  O   UNL     1      -1.551   5.799   0.641  0.00  0.00    -0.489 OA
BRANCH  17  19
ATOM     18  C   UNL     1      -0.259   7.520   1.741  0.00  0.00    +0.048 C 
ATOM     19  C   UNL     1      -0.270   6.087   1.205  0.00  0.00    +0.226 C 
ENDBRANCH  17  19
ENDBRANCH   9  17
ENDBRANCH   1  11
BRANCH   5  20
ATOM     20  C   UNL     1       4.994   0.849   0.826  0.00  0.00    +0.166 C 
ATOM     21  C   UNL     1       5.451   1.058   2.271  0.00  0.00    +0.038 C 
BRANCH  20  22
ATOM     22  C   UNL     1       6.067   1.335  -0.115  0.00  0.00    +0.238 C 
ATOM     23  O   UNL     1       5.824   2.223  -0.905  0.00  0.00    -0.273 OA
ATOM     24  N   UNL     1       7.296   0.782  -0.079  0.00  0.00    -0.284 N 
ATOM     25  H   UNL     1       7.476   0.040   0.518  0.00  0.00    +0.155 HD
BRANCH  24  26
ATOM     26  C   UNL     1       8.311   1.280  -0.903  0.00  0.00    +0.034 A 
ATOM     27  C   UNL     1       8.008   1.747  -2.176  0.00  0.00    +0.025 A 
ATOM     28  C   UNL     1       9.012   2.243  -2.985  0.00  0.00    +0.030 A 
ATOM     29  C   UNL     1      10.319   2.265  -2.533  0.00  0.00    +0.105 A 
ATOM     30  C   UNL     1      10.624   1.796  -1.268  0.00  0.00    +0.030 A 
ATOM     31  C   UNL     1       9.624   1.304  -0.452  0.00  0.00    +0.025 A 
BRANCH  29  32
ATOM     32  S   UNL     1      11.597   2.892  -3.571  0.00  0.00    +0.056 S 
ATOM     33  O   UNL     1      10.974   3.772  -4.496  0.00  0.00    -0.153 OA
ATOM     34  O   UNL     1      12.649   3.309  -2.712  0.00  0.00    -0.153 OA
BRANCH  32  35
ATOM     35  N   UNL     1      12.182   1.617  -4.451  0.00  0.00    -0.204 NA
ATOM     36  H   UNL     1      11.807   0.730  -4.329  0.00  0.00    +0.144 HD
ATOM     37  H   UNL     1      12.899   1.756  -5.089  0.00  0.00    +0.144 HD
ENDBRANCH  32  35
ENDBRANCH  29  32
ENDBRANCH  24  26
ENDBRANCH  20  22
ENDBRANCH   5  20
TORSDOF 9
