REMARK  Name = ZINC64020439
REMARK  5 active torsions:
REMARK  status: ('A' for Active; 'I' for Inactive)
REMARK    1  A    between atoms: C_1  and  C_2
REMARK    2  A    between atoms: N_10  and  N_11
REMARK    3  A    between atoms: C_12  and  C_14
REMARK    4  A    between atoms: C_15  and  C_28
REMARK    5  A    between atoms: C_18  and  C_20
REMARK                            x       y       z     vdW  Elec       q    Type
REMARK                         _______ _______ _______ _____ _____    ______ ____
ROOT
ATOM      1  N   UNL     1      -2.797  -3.044   2.882  0.00  0.00    -0.230 N 
ATOM      2  C   UNL     1      -3.375  -3.655   3.935  0.00  0.00    +0.261 C 
ATOM      3  O   UNL     1      -2.731  -3.862   4.947  0.00  0.00    -0.269 OA
ATOM      4  H   UNL     1      -3.291  -2.933   2.055  0.00  0.00    +0.173 HD
ENDROOT
BRANCH   1  13
ATOM      5  C   UNL     1       0.338   0.792  -0.416  0.00  0.00    +0.044 C 
ATOM      6  C   UNL     1       0.345  -0.712  -0.134  0.00  0.00    +0.210 C 
ATOM      7  C   UNL     1      -1.079  -1.221  -0.262  0.00  0.00    +0.265 C 
ATOM      8  O   UNL     1      -1.711  -1.091  -1.291  0.00  0.00    -0.271 OA
ATOM      9  N   UNL     1      -1.605  -1.822   0.816  0.00  0.00    -0.145 NA
ATOM     10  C   UNL     1      -0.898  -1.950   1.918  0.00  0.00    +0.218 C 
ATOM     11  N   UNL     1       0.380  -1.504   2.063  0.00  0.00    -0.253 N 
ATOM     12  N   UNL     1       1.006  -0.929   1.164  0.00  0.00    -0.197 NA
ATOM     13  N   UNL     1      -1.483  -2.568   2.983  0.00  0.00    -0.235 N 
ATOM     14  H   UNL     1      -0.989  -2.679   3.811  0.00  0.00    +0.173 HD
ATOM     15  H   UNL     1       0.822  -1.644   2.915  0.00  0.00    +0.191 HD
ENDBRANCH   1  13
BRANCH   2  16
ATOM     16  C   UNL     1      -4.733  -4.057   3.864  0.00  0.00    +0.080 C 
ATOM     17  C   UNL     1      -5.400  -4.773   4.786  0.00  0.00    +0.132 C 
ATOM     18  O   UNL     1      -6.675  -4.999   4.419  0.00  0.00    -0.410 OA
ATOM     19  N   UNL     1      -7.020  -4.043   3.352  0.00  0.00    -0.143 NA
ATOM     20  C   UNL     1      -5.702  -3.751   2.737  0.00  0.00    +0.165 C 
ATOM     21  C   UNL     1      -4.792  -5.264   6.074  0.00  0.00    +0.089 C 
ATOM     22  H   UNL     1      -7.429  -3.204   3.736  0.00  0.00    +0.168 HD
BRANCH  20  23
ATOM     23  C   UNL     1      -5.608  -2.304   2.329  0.00  0.00    +0.031 A 
ATOM     24  C   UNL     1      -6.001  -1.310   3.209  0.00  0.00    +0.130 A 
ATOM     25  C   UNL     1      -5.915   0.020   2.833  0.00  0.00    +0.039 A 
ATOM     26  C   UNL     1      -5.437   0.355   1.580  0.00  0.00    +0.004 A 
ATOM     27  C   UNL     1      -5.045  -0.638   0.702  0.00  0.00    +0.020 A 
ATOM     28  C   UNL     1      -5.125  -1.967   1.078  0.00  0.00    +0.049 A 
ATOM     29 CL   UNL     1      -4.626  -3.212  -0.024  0.00  0.00    -0.083 Cl
ATOM     30  F   UNL     1      -6.468  -1.637   4.434  0.00  0.00    -0.205 F 
ENDBRANCH  20  23
ENDBRANCH   2  16
TORSDOF 3
