REMARK  Name = ZINC09598021
REMARK  8 active torsions:
REMARK  status: ('A' for Active; 'I' for Inactive)
REMARK    1  A    between atoms: C_1  and  C_2
REMARK    2  A    between atoms: C_4  and  N_31
REMARK    3  A    between atoms: C_8  and  N_11
REMARK    4  A    between atoms: C_12  and  C_14
REMARK    5  A    between atoms: C_14  and  C_15
REMARK    6  A    between atoms: C_15  and  C_16
REMARK    7  A    between atoms: N_21  and  C_24
REMARK    8  A    between atoms: C_34  and  C_37
REMARK                            x       y       z     vdW  Elec       q    Type
REMARK                         _______ _______ _______ _____ _____    ______ ____
ROOT
ATOM      1  N   UNL     1      -3.221  -0.214  -6.525  0.00  0.00    -0.285 N 
ATOM      2  C   UNL     1      -2.235   0.525  -5.980  0.00  0.00    +0.218 C 
ATOM      3  O   UNL     1      -1.942   1.598  -6.463  0.00  0.00    -0.275 OA
ATOM      4  H   UNL     1      -3.404  -1.105  -6.186  0.00  0.00    +0.155 HD
ENDROOT
BRANCH   1  12
ATOM      5  C   UNL     1      -5.449  -2.333 -10.627  0.00  0.00    +0.044 C 
ATOM      6  C   UNL     1      -5.718  -0.850 -10.637  0.00  0.00    -0.038 A 
ATOM      7  C   UNL     1      -6.451  -0.279 -11.633  0.00  0.00    +0.045 A 
ATOM      8  C   UNL     1      -6.689   1.102 -11.622  0.00  0.00    +0.099 A 
ATOM      9  C   UNL     1      -5.492   1.371  -9.659  0.00  0.00    +0.048 A 
ATOM     10  C   UNL     1      -5.217  -0.018  -9.615  0.00  0.00    +0.003 A 
ATOM     11  C   UNL     1      -4.455  -0.542  -8.560  0.00  0.00    +0.033 A 
ATOM     12  C   UNL     1      -3.982   0.303  -7.580  0.00  0.00    +0.034 A 
ATOM     13  C   UNL     1      -4.261   1.673  -7.627  0.00  0.00    +0.025 A 
ATOM     14  C   UNL     1      -4.994   2.204  -8.642  0.00  0.00    +0.028 A 
ATOM     15  N   UNL     1      -6.232   1.950 -10.667  0.00  0.00    -0.343 N 
ATOM     16  H   UNL     1      -6.426   2.958 -10.692  0.00  0.00    +0.167 HD
BRANCH   8  17
ATOM     17  N   UNL     1      -7.437   1.670 -12.643  0.00  0.00    -0.317 N 
ATOM     18  C   UNL     1      -8.751   1.023 -12.755  0.00  0.00    +0.107 C 
ATOM     19  C   UNL     1      -9.489   1.571 -13.978  0.00  0.00    +0.022 C 
ATOM     20  C   UNL     1      -9.656   3.086 -13.830  0.00  0.00    -0.011 C 
ATOM     21  C   UNL     1      -8.276   3.731 -13.667  0.00  0.00    +0.022 C 
ATOM     22  C   UNL     1      -7.573   3.119 -12.453  0.00  0.00    +0.107 C 
ATOM     23  C   UNL     1     -10.339   3.650 -15.078  0.00  0.00    +0.007 C 
ENDBRANCH   8  17
ENDBRANCH   1  12
BRANCH   2  24
ATOM     24  C   UNL     1      -1.495   0.018  -4.769  0.00  0.00    +0.105 C 
BRANCH  24  25
ATOM     25  C   UNL     1      -0.434   1.040  -4.354  0.00  0.00    +0.105 C 
BRANCH  25  26
ATOM     26  C   UNL     1       0.306   0.532  -3.143  0.00  0.00    +0.216 C 
ATOM     27  O   UNL     1       0.014  -0.540  -2.659  0.00  0.00    -0.276 OA
ATOM     28  N   UNL     1       1.292   1.272  -2.598  0.00  0.00    -0.298 N 
ATOM     29  C   UNL     1       2.027   0.795  -1.416  0.00  0.00    +0.126 C 
ATOM     30  C   UNL     1       2.026   1.904  -0.358  0.00  0.00    +0.124 C 
ATOM     31  N   UNL     1       2.538   3.146  -0.954  0.00  0.00    -0.327 N 
ATOM     32  C   UNL     1       1.672   3.615  -2.044  0.00  0.00    +0.124 C 
ATOM     33  C   UNL     1       1.663   2.575  -3.169  0.00  0.00    +0.126 C 
BRANCH  31  34
ATOM     34  C   UNL     1       2.702   4.136   0.017  0.00  0.00    +0.031 A 
ATOM     35  C   UNL     1       2.083   5.370  -0.136  0.00  0.00    +0.023 A 
ATOM     36  C   UNL     1       2.242   6.346   0.828  0.00  0.00    +0.003 A 
ATOM     37  C   UNL     1       3.026   6.099   1.941  0.00  0.00    +0.020 A 
ATOM     38  C   UNL     1       3.649   4.873   2.094  0.00  0.00    +0.043 A 
ATOM     39  C   UNL     1       3.489   3.890   1.135  0.00  0.00    +0.043 A 
ATOM     40 CL   UNL     1       4.632   4.568   3.492  0.00  0.00    -0.083 Cl
ENDBRANCH  31  34
ENDBRANCH  25  26
ENDBRANCH  24  25
ENDBRANCH   2  24
TORSDOF 6
