REMARK  Name = ZINC08296390
REMARK  6 active torsions:
REMARK  status: ('A' for Active; 'I' for Inactive)
REMARK    1  A    between atoms: C_1  and  C_2
REMARK    2  A    between atoms: C_2  and  C_3
REMARK    3  A    between atoms: C_2  and  N_4
REMARK    4  A    between atoms: C_18  and  C_23
REMARK    5  A    between atoms: C_28  and  C_29
REMARK    6  A    between atoms: C_29  and  N_67
REMARK                            x       y       z     vdW  Elec       q    Type
REMARK                         _______ _______ _______ _____ _____    ______ ____
ROOT
ATOM      1  N   UNL     1       3.948  -0.019   0.481  0.00  0.00    -0.297 N 
ATOM      2  C   UNL     1       2.834   0.612   0.904  0.00  0.00    +0.302 C 
ATOM      3  O   UNL     1       2.450   0.466   2.048  0.00  0.00    -0.253 OA
ATOM      4  N   UNL     1       2.146   1.404   0.058  0.00  0.00    -0.285 N 
ATOM      5  C   UNL     1       2.652   1.678  -1.292  0.00  0.00    +0.114 C 
ATOM      6  C   UNL     1       1.563   1.424  -2.325  0.00  0.00    +0.027 C 
ATOM      7  C   UNL     1       0.264   2.134  -1.942  0.00  0.00    +0.018 C 
ATOM      8  C   UNL     1      -0.186   1.611  -0.576  0.00  0.00    +0.054 C 
ATOM      9  C   UNL     1       0.871   2.015   0.468  0.00  0.00    +0.119 C 
ATOM     10  C   UNL     1      -0.252   0.102  -0.602  0.00  0.00    +0.027 A 
ATOM     11  C   UNL     1      -1.112  -0.497   0.268  0.00  0.00    +0.022 A 
ATOM     12  C   UNL     1      -1.190  -1.888   0.354  0.00  0.00    +0.015 A 
ATOM     13  C   UNL     1      -0.354  -2.650  -0.448  0.00  0.00    +0.047 A 
ATOM     14  C   UNL     1       0.524  -1.989  -1.334  0.00  0.00    +0.259 A 
ATOM     15  O   UNL     1       1.309  -2.640  -2.005  0.00  0.00    -0.267 OA
ATOM     16  N   UNL     1       0.504  -0.638  -1.446  0.00  0.00    -0.311 N 
ATOM     17  C   UNL     1       1.301  -0.057  -2.528  0.00  0.00    +0.130 C 
ATOM     18  H   UNL     1       4.292   0.149  -0.410  0.00  0.00    +0.150 HD
ENDROOT
BRANCH  13  19
ATOM     19  C   UNL     1      -0.384  -4.130  -0.376  0.00  0.00    -0.011 A 
ATOM     20  C   UNL     1      -1.416  -4.840  -0.989  0.00  0.00    +0.009 A 
ATOM     21  C   UNL     1      -1.435  -6.218  -0.923  0.00  0.00    +0.001 A 
ATOM     22  C   UNL     1      -0.439  -6.895  -0.243  0.00  0.00    +0.000 A 
ATOM     23  C   UNL     1       0.585  -6.196   0.371  0.00  0.00    +0.002 A 
ATOM     24  C   UNL     1       0.618  -4.818   0.308  0.00  0.00    -0.056 A 
BRANCH  24  25
ATOM     25  C   UNL     1       1.734  -4.058   0.977  0.00  0.00    -0.042 C 
BRANCH  25  31
ATOM     26  C   UNL     1       1.528  -5.146   3.130  0.00  0.00    -0.050 C 
ATOM     27  C   UNL     1       2.228  -6.099   4.103  0.00  0.00    +0.141 C 
ATOM     28  O   UNL     1       3.498  -5.552   4.468  0.00  0.00    -0.383 OA
ATOM     29  C   UNL     1       4.367  -5.322   3.356  0.00  0.00    +0.141 C 
ATOM     30  C   UNL     1       3.688  -4.362   2.375  0.00  0.00    -0.050 C 
ATOM     31  N   UNL     1       2.399  -4.948   1.953  0.00  0.00    +0.385 N 
ATOM     32  H   UNL     1       2.574  -5.857   1.510  0.00  0.00    -0.081 HD
ENDBRANCH  25  31
ENDBRANCH  24  25
ENDBRANCH  13  19
BRANCH   1  34
ATOM     33  C   UNL     1       5.474  -1.929   0.531  0.00  0.00    +0.027 C 
ATOM     34  C   UNL     1       4.639  -0.958   1.368  0.00  0.00    +0.068 C 
ATOM     35  C   UNL     1       5.556  -0.183   2.316  0.00  0.00    +0.027 C 
ENDBRANCH   1  34
TORSDOF 4
