REMARK  Name = ZINC63842800
REMARK  6 active torsions:
REMARK  status: ('A' for Active; 'I' for Inactive)
REMARK    1  A    between atoms: C_1  and  C_2
REMARK    2  A    between atoms: C_5  and  C_28
REMARK    3  A    between atoms: C_10  and  C_12
REMARK    4  A    between atoms: C_12  and  C_14
REMARK    5  A    between atoms: C_12  and  N_24
REMARK    6  A    between atoms: C_14  and  C_15
REMARK                            x       y       z     vdW  Elec       q    Type
REMARK                         _______ _______ _______ _____ _____    ______ ____
ROOT
ATOM      1  C   UNL     1       3.103  -2.090   1.470  0.00  0.00    +0.165 C 
ENDROOT
BRANCH   1   9
ATOM      2  C   UNL     1      -0.019   1.526   0.010  0.00  0.00    +0.009 C 
ATOM      3  C   UNL     1       0.002  -0.004   0.002  0.00  0.00    +0.004 C 
ATOM      4  C   UNL     1      -1.433  -0.534   0.015  0.00  0.00    +0.009 C 
ATOM      5  C   UNL     1      -1.414  -2.064  -0.027  0.00  0.00    +0.004 C 
ATOM      6  C   UNL     1      -0.692  -2.596   1.215  0.00  0.00    +0.111 C 
ATOM      7  N   UNL     1       0.639  -1.977   1.288  0.00  0.00    -0.299 N 
ATOM      8  C   UNL     1       0.742  -0.512   1.244  0.00  0.00    +0.111 C 
ATOM      9  C   UNL     1       1.746  -2.740   1.395  0.00  0.00    +0.236 C 
ATOM     10  O   UNL     1       1.648  -3.948   1.431  0.00  0.00    -0.274 OA
ATOM     11  C   UNL     1      -0.680  -2.532  -1.285  0.00  0.00    +0.009 C 
ENDBRANCH   1   9
BRANCH   1  12
ATOM     12  N   UNL     1       4.133  -3.067   1.104  0.00  0.00    -0.288 N 
ATOM     13  C   UNL     1       4.273  -4.199   1.823  0.00  0.00    +0.298 C 
ATOM     14  O   UNL     1       3.545  -4.409   2.774  0.00  0.00    -0.253 OA
ATOM     15  N   UNL     1       5.220  -5.097   1.487  0.00  0.00    -0.313 N 
ATOM     16  H   UNL     1       4.713  -2.899   0.345  0.00  0.00    +0.151 HD
ATOM     17  H   UNL     1       5.800  -4.929   0.728  0.00  0.00    +0.146 HD
ATOM     18  H   UNL     1       5.321  -5.912   2.004  0.00  0.00    +0.146 HD
ENDBRANCH   1  12
BRANCH   1  19
ATOM     19  C   UNL     1       3.354  -1.594   2.895  0.00  0.00    +0.065 C 
BRANCH  19  20
ATOM     20  C   UNL     1       4.657  -0.838   2.942  0.00  0.00    -0.039 C 
ATOM     21  C   UNL     1       4.824   0.500   2.839  0.00  0.00    -0.001 A 
ATOM     22  C   UNL     1       3.880   1.609   2.658  0.00  0.00    +0.010 A 
ATOM     23  C   UNL     1       4.357   2.873   2.588  0.00  0.00    +0.001 A 
ATOM     24  C   UNL     1       5.728   3.149   2.683  0.00  0.00    +0.002 A 
ATOM     25  C   UNL     1       6.656   2.183   2.850  0.00  0.00    +0.026 A 
ATOM     26  C   UNL     1       6.266   0.819   2.937  0.00  0.00    +0.043 A 
ATOM     27  N   UNL     1       6.964  -0.280   3.095  0.00  0.00    -0.380 N 
ATOM     28  C   UNL     1       6.041  -1.420   3.120  0.00  0.00    +0.144 C 
ATOM     29  H   UNL     1       7.928  -0.331   3.184  0.00  0.00    +0.160 HD
ENDBRANCH  19  20
ENDBRANCH   1  19
TORSDOF 4
