REMARK  Name = ZINC48025446
REMARK  7 active torsions:
REMARK  status: ('A' for Active; 'I' for Inactive)
REMARK    1  A    between atoms: C_1  and  C_2
REMARK    2  A    between atoms: C_2  and  C_4
REMARK    3  A    between atoms: C_2  and  N_14
REMARK    4  A    between atoms: C_15  and  C_17
REMARK    5  A    between atoms: C_17  and  N_18
REMARK    6  A    between atoms: C_21  and  C_24
REMARK    7  A    between atoms: C_24  and  C_25
REMARK                            x       y       z     vdW  Elec       q    Type
REMARK                         _______ _______ _______ _____ _____    ______ ____
ROOT
ATOM      1  N   UNL     1       0.688  -0.476  -1.203  0.00  0.00    -0.310 N 
ATOM      2  C   UNL     1       0.006  -0.608  -2.358  0.00  0.00    +0.197 C 
ATOM      3  O   UNL     1      -1.175  -0.336  -2.400  0.00  0.00    -0.278 OA
ATOM      4  H   UNL     1       1.632  -0.695  -1.170  0.00  0.00    +0.149 HD
ENDROOT
BRANCH   1   6
ATOM      5  C   UNL     1      -0.019   1.526   0.010  0.00  0.00    +0.033 C 
ATOM      6  C   UNL     1       0.002  -0.004   0.002  0.00  0.00    +0.100 C 
BRANCH   6   7
ATOM      7  C   UNL     1       0.731  -0.503   1.223  0.00  0.00    -0.027 A 
ATOM      8  C   UNL     1       2.113  -0.515   1.249  0.00  0.00    +0.006 A 
ATOM      9  C   UNL     1       2.773  -0.976   2.369  0.00  0.00    +0.004 A 
ATOM     10  C   UNL     1       2.060  -1.428   3.472  0.00  0.00    -0.044 A 
ATOM     11  C   UNL     1       0.684  -1.412   3.448  0.00  0.00    -0.044 A 
ATOM     12  C   UNL     1       0.021  -0.945   2.320  0.00  0.00    +0.009 A 
ATOM     13  C   UNL     1      -0.153  -1.871   4.613  0.00  0.00    +0.035 C 
ATOM     14  C   UNL     1       0.678  -2.727   5.568  0.00  0.00    +0.005 C 
ATOM     15  C   UNL     1       1.964  -1.964   5.906  0.00  0.00    +0.005 C 
ATOM     16  C   UNL     1       2.845  -1.925   4.659  0.00  0.00    +0.035 C 
ENDBRANCH   6   7
ENDBRANCH   1   6
BRANCH   2  17
ATOM     17  C   UNL     1       0.712  -1.094  -3.598  0.00  0.00    +0.019 C 
BRANCH  17  18
ATOM     18  N   UNL     1      -0.242  -1.150  -4.714  0.00  0.00    +0.385 N 
ATOM     19  C   UNL     1      -0.707   0.206  -5.028  0.00  0.00    -0.078 C 
ATOM     20  C   UNL     1      -1.761   0.145  -6.135  0.00  0.00    -0.015 C 
ATOM     21  C   UNL     1      -1.144  -0.487  -7.386  0.00  0.00    -0.006 C 
ATOM     22  C   UNL     1      -0.596  -1.872  -7.029  0.00  0.00    -0.015 C 
ATOM     23  C   UNL     1       0.415  -1.736  -5.889  0.00  0.00    -0.078 C 
ATOM     24  H   UNL     1      -1.032  -1.722  -4.452  0.00  0.00    -0.081 HD
BRANCH  21  25
ATOM     25  C   UNL     1      -2.214  -0.624  -8.471  0.00  0.00    +0.099 C 
BRANCH  25  26
ATOM     26  C   UNL     1      -1.580  -1.131  -9.741  0.00  0.00    +0.211 C 
ATOM     27  O   UNL     1      -0.389  -1.360  -9.774  0.00  0.00    -0.276 OA
ATOM     28  N   UNL     1      -2.336  -1.329 -10.839  0.00  0.00    -0.329 N 
ATOM     29  H   UNL     1      -3.288  -1.146 -10.812  0.00  0.00    +0.145 HD
ATOM     30  H   UNL     1      -1.927  -1.656 -11.656  0.00  0.00    +0.145 HD
ENDBRANCH  25  26
ENDBRANCH  21  25
ENDBRANCH  17  18
ENDBRANCH   2  17
TORSDOF 6
