REMARK  Name = ZINC66700130
REMARK  7 active torsions:
REMARK  status: ('A' for Active; 'I' for Inactive)
REMARK    1  A    between atoms: C_1  and  C_2
REMARK    2  A    between atoms: C_2  and  C_4
REMARK    3  A    between atoms: C_2  and  N_21
REMARK    4  A    between atoms: C_4  and  N_5
REMARK    5  A    between atoms: N_8  and  C_9
REMARK    6  A    between atoms: C_9  and  C_10
REMARK    7  A    between atoms: C_14  and  C_16
REMARK                            x       y       z     vdW  Elec       q    Type
REMARK                         _______ _______ _______ _____ _____    ______ ____
ROOT
ATOM      1  N   UNL     1       0.724  -2.183   0.844  0.00  0.00    -0.301 N 
ATOM      2  C   UNL     1       1.400  -3.029   1.647  0.00  0.00    +0.300 C 
ATOM      3  O   UNL     1       2.017  -2.599   2.602  0.00  0.00    -0.253 OA
ATOM      4  N   UNL     1       1.391  -4.352   1.391  0.00  0.00    -0.292 N 
ATOM      5  H   UNL     1       0.231  -2.526   0.083  0.00  0.00    +0.150 HD
ATOM      6  H   UNL     1       0.898  -4.696   0.629  0.00  0.00    +0.151 HD
ENDROOT
BRANCH   1   7
ATOM      7  C   UNL     1       0.734  -0.745   1.123  0.00  0.00    +0.090 C 
BRANCH   7   9
ATOM      8  C   UNL     1       0.090   1.505   0.246  0.00  0.00    -0.012 C 
ATOM      9  C   UNL     1       0.013  -0.003  -0.005  0.00  0.00    -0.054 C 
BRANCH   9  10
ATOM     10  N   UNL     1       0.655  -0.319  -1.288  0.00  0.00    +0.385 N 
ATOM     11  C   UNL     1       2.017   0.236  -1.307  0.00  0.00    -0.073 C 
ATOM     12  C   UNL     1       2.768  -0.355  -2.500  0.00  0.00    +0.017 C 
ATOM     13  C   UNL     1       1.945  -0.193  -3.752  0.00  0.00    -0.048 A 
ATOM     14  C   UNL     1       2.568  -0.341  -4.981  0.00  0.00    +0.004 A 
ATOM     15  C   UNL     1       1.846  -0.203  -6.150  0.00  0.00    +0.000 A 
ATOM     16  C   UNL     1       0.495   0.085  -6.093  0.00  0.00    +0.000 A 
ATOM     17  C   UNL     1      -0.126   0.234  -4.870  0.00  0.00    +0.002 A 
ATOM     18  C   UNL     1       0.598   0.097  -3.695  0.00  0.00    -0.061 A 
ATOM     19  C   UNL     1      -0.118   0.276  -2.382  0.00  0.00    -0.042 C 
ATOM     20  H   UNL     1       0.695  -1.320  -1.408  0.00  0.00    -0.081 HD
ENDBRANCH   9  10
ENDBRANCH   7   9
ENDBRANCH   1   7
BRANCH   4  21
ATOM     21  C   UNL     1       2.125  -5.272   2.263  0.00  0.00    +0.181 C 
BRANCH  21  22
ATOM     22  C   UNL     1       1.955  -6.683   1.762  0.00  0.00    +0.143 A 
ATOM     23  N   UNL     1       2.806  -7.340   0.953  0.00  0.00    -0.261 N 
ATOM     24  H   UNL     1       3.637  -6.999   0.586  0.00  0.00    +0.190 HD
ATOM     25  N   UNL     1       2.257  -8.615   0.746  0.00  0.00    -0.152 NA
ATOM     26  C   UNL     1       1.131  -8.658   1.425  0.00  0.00    +0.188 A 
ATOM     27  N   UNL     1       0.959  -7.480   2.044  0.00  0.00    -0.209 NA
BRANCH  26  28
ATOM     28  C   UNL     1       0.211  -9.813   1.499  0.00  0.00    +0.058 A 
ATOM     29  C   UNL     1       0.322 -11.043   0.910  0.00  0.00    +0.019 A 
ATOM     30  C   UNL     1      -0.672 -11.973   1.124  0.00  0.00    +0.008 A 
ATOM     31  C   UNL     1      -1.728 -11.643   1.911  0.00  0.00    +0.046 A 
ATOM     32  S   UNL     1      -1.331  -9.969   2.387  0.00  0.00    -0.093 S 
ENDBRANCH  26  28
ENDBRANCH  21  22
ENDBRANCH   4  21
TORSDOF 6
