REMARK  Name = ZINC40599495
REMARK  7 active torsions:
REMARK  status: ('A' for Active; 'I' for Inactive)
REMARK    1  A    between atoms: C_1  and  C_2
REMARK    2  A    between atoms: C_7  and  N_8
REMARK    3  A    between atoms: C_9  and  C_11
REMARK    4  A    between atoms: C_11  and  N_12
REMARK    5  A    between atoms: C_16  and  C_19
REMARK    6  A    between atoms: C_19  and  N_20
REMARK    7  A    between atoms: N_20  and  C_21
REMARK                            x       y       z     vdW  Elec       q    Type
REMARK                         _______ _______ _______ _____ _____    ______ ____
ROOT
ATOM      1  C   UNL     1      -0.169   0.053   4.882  0.00  0.00    +0.019 C 
ENDROOT
BRANCH   1   2
ATOM      2  N   UNL     1      -0.242  -0.907   5.992  0.00  0.00    +0.386 N 
ATOM      3  C   UNL     1      -1.478  -1.692   5.877  0.00  0.00    -0.078 C 
ATOM      4  C   UNL     1      -1.520  -2.748   6.983  0.00  0.00    -0.018 C 
ATOM      5  C   UNL     1      -1.481  -2.052   8.347  0.00  0.00    -0.002 C 
ATOM      6  C   UNL     1      -0.226  -1.178   8.427  0.00  0.00    -0.045 C 
ATOM      7  C   UNL     1      -0.231  -0.180   7.267  0.00  0.00    -0.077 C 
ATOM      8  H   UNL     1       0.552  -1.527   5.952  0.00  0.00    -0.081 HD
BRANCH   6   9
ATOM      9  C   UNL     1      -0.215  -0.419   9.755  0.00  0.00    -0.081 C 
BRANCH   9  10
ATOM     10  N   UNL     1      -0.095  -1.375  10.864  0.00  0.00    +0.377 N 
ATOM     11  C   UNL     1      -0.085  -0.646  12.140  0.00  0.00    -0.100 C 
ATOM     12  H   UNL     1      -0.877  -2.011  10.847  0.00  0.00    -0.086 HD
ATOM     13  H   UNL     1       0.764  -1.895  10.768  0.00  0.00    -0.086 HD
ENDBRANCH   9  10
ENDBRANCH   6   9
ENDBRANCH   1   2
BRANCH   1  15
ATOM     14  N   UNL     1       0.025  -0.014   2.417  0.00  0.00    -0.287 N 
ATOM     15  C   UNL     1      -0.057  -0.694   3.578  0.00  0.00    +0.201 C 
ATOM     16  O   UNL     1      -0.040  -1.907   3.573  0.00  0.00    -0.278 OA
ATOM     17  H   UNL     1       0.077   0.954   2.425  0.00  0.00    +0.155 HD
BRANCH  14  24
ATOM     18  C   UNL     1      -1.265   1.183   0.181  0.00  0.00    +0.046 C 
ATOM     19  C   UNL     1      -0.584  -0.158   0.084  0.00  0.00    -0.028 A 
ATOM     20  C   UNL     1      -0.569  -0.841  -1.116  0.00  0.00    +0.019 A 
ATOM     21  C   UNL     1       0.056  -2.071  -1.206  0.00  0.00    +0.014 A 
ATOM     22  C   UNL     1       0.668  -2.622  -0.094  0.00  0.00    +0.016 A 
ATOM     23  C   UNL     1       0.656  -1.944   1.109  0.00  0.00    +0.024 A 
ATOM     24  C   UNL     1       0.034  -0.706   1.201  0.00  0.00    +0.036 A 
ATOM     25  I   UNL     1       0.076  -3.103  -3.029  0.00  0.00    -0.044 I 
ENDBRANCH  14  24
ENDBRANCH   1  15
TORSDOF 5
