REMARK  Name = ZINC63280073
REMARK  10 active torsions:
REMARK  status: ('A' for Active; 'I' for Inactive)
REMARK    1  A    between atoms: C_1  and  O_2
REMARK    2  A    between atoms: O_2  and  C_3
REMARK    3  A    between atoms: C_3  and  C_4
REMARK    4  A    between atoms: C_4  and  N_5
REMARK    5  A    between atoms: C_6  and  C_8
REMARK    6  A    between atoms: C_13  and  N_14
REMARK    7  A    between atoms: C_15  and  C_17
REMARK    8  A    between atoms: N_19  and  C_20
REMARK    9  A    between atoms: C_20  and  C_21
REMARK   10  A    between atoms: C_21  and  C_22
REMARK                            x       y       z     vdW  Elec       q    Type
REMARK                         _______ _______ _______ _____ _____    ______ ____
ROOT
ATOM      1  N   UNL     1       1.964  -6.666  -1.121  0.00  0.00    -0.277 N 
ATOM      2  C   UNL     1       2.262  -7.959  -1.357  0.00  0.00    +0.303 C 
ATOM      3  O   UNL     1       3.058  -8.249  -2.226  0.00  0.00    -0.265 OA
ATOM      4  H   UNL     1       1.387  -6.429  -0.377  0.00  0.00    +0.155 HD
ENDROOT
BRANCH   1  10
ATOM      5  C   UNL     1       2.827  -4.421  -1.407  0.00  0.00    +0.058 A 
ATOM      6  C   UNL     1       3.353  -3.433  -2.242  0.00  0.00    +0.015 A 
ATOM      7  C   UNL     1       3.523  -3.688  -3.586  0.00  0.00    +0.001 A 
ATOM      8  C   UNL     1       3.176  -4.921  -4.114  0.00  0.00    +0.002 A 
ATOM      9  C   UNL     1       2.656  -5.907  -3.301  0.00  0.00    +0.024 A 
ATOM     10  C   UNL     1       2.482  -5.671  -1.943  0.00  0.00    +0.046 A 
BRANCH   5  12
ATOM     11  N   UNL     1       3.067  -2.991   0.563  0.00  0.00    -0.309 N 
ATOM     12  C   UNL     1       2.642  -4.155   0.033  0.00  0.00    +0.246 C 
ATOM     13  O   UNL     1       2.106  -4.986   0.741  0.00  0.00    -0.270 OA
ATOM     14  H   UNL     1       3.495  -2.329  -0.002  0.00  0.00    +0.149 HD
BRANCH  11  15
ATOM     15  C   UNL     1       2.884  -2.727   1.992  0.00  0.00    +0.132 C 
BRANCH  15  16
ATOM     16  C   UNL     1       3.450  -1.347   2.333  0.00  0.00    +0.178 C 
BRANCH  16  18
ATOM     17  C   UNL     1       3.137   0.992   1.913  0.00  0.00    +0.194 C 
ATOM     18  O   UNL     1       2.689  -0.341   1.661  0.00  0.00    -0.381 OA
ENDBRANCH  16  18
ENDBRANCH  15  16
ENDBRANCH  11  15
ENDBRANCH   5  12
ENDBRANCH   1  10
BRANCH   2  19
ATOM     19  C   UNL     1       1.613  -9.035  -0.549  0.00  0.00    +0.299 C 
ATOM     20  O   UNL     1       0.817  -8.745   0.320  0.00  0.00    -0.265 OA
ATOM     21  N   UNL     1       1.911 -10.328  -0.786  0.00  0.00    -0.307 N 
ATOM     22  H   UNL     1       2.547 -10.559  -1.480  0.00  0.00    +0.149 HD
BRANCH  21  23
ATOM     23  C   UNL     1       1.275 -11.383   0.007  0.00  0.00    +0.109 C 
BRANCH  23  24
ATOM     24  C   UNL     1       1.784 -12.748  -0.460  0.00  0.00    +0.052 C 
BRANCH  24  25
ATOM     25  C   UNL     1       1.130 -13.834   0.355  0.00  0.00    -0.040 C 
ATOM     26  C   UNL     1       0.025 -14.542   0.028  0.00  0.00    +0.000 A 
ATOM     27  C   UNL     1      -0.863 -14.515  -1.140  0.00  0.00    +0.030 A 
ATOM     28  C   UNL     1      -1.915 -15.366  -1.184  0.00  0.00    +0.042 A 
ATOM     29  C   UNL     1      -2.176 -16.270  -0.144  0.00  0.00    +0.022 A 
ATOM     30  C   UNL     1      -1.405 -16.353   0.960  0.00  0.00    +0.027 A 
ATOM     31  C   UNL     1      -0.272 -15.506   1.112  0.00  0.00    +0.043 A 
ATOM     32  N   UNL     1       0.614 -15.397   2.071  0.00  0.00    -0.380 N 
ATOM     33  C   UNL     1       1.579 -14.355   1.702  0.00  0.00    +0.144 C 
ATOM     34 CL   UNL     1      -2.969 -15.337  -2.564  0.00  0.00    -0.084 Cl
ATOM     35  H   UNL     1       0.631 -15.921   2.888  0.00  0.00    +0.160 HD
ENDBRANCH  24  25
ENDBRANCH  23  24
ENDBRANCH  21  23
ENDBRANCH   2  19
TORSDOF 9
