REMARK  Name = ZINC35719471
REMARK  8 active torsions:
REMARK  status: ('A' for Active; 'I' for Inactive)
REMARK    1  A    between atoms: C_1  and  N_2
REMARK    2  A    between atoms: N_2  and  C_3
REMARK    3  A    between atoms: N_2  and  S_9
REMARK    4  A    between atoms: C_3  and  C_4
REMARK    5  A    between atoms: S_9  and  C_12
REMARK    6  A    between atoms: C_12  and  C_13
REMARK    7  A    between atoms: C_16  and  C_19
REMARK    8  A    between atoms: C_19  and  N_21
REMARK                            x       y       z     vdW  Elec       q    Type
REMARK                         _______ _______ _______ _____ _____    ______ ____
ROOT
ATOM      1  C   UNL     1       1.752  -1.031  -1.858  0.00  0.00    +0.220 C 
ENDROOT
BRANCH   1   2
ATOM      2  C   UNL     1       1.870  -1.774  -3.164  0.00  0.00    -0.025 A 
ATOM      3  C   UNL     1       1.938  -3.156  -3.167  0.00  0.00    +0.006 A 
ATOM      4  C   UNL     1       2.046  -3.842  -4.359  0.00  0.00    +0.010 A 
ATOM      5  C   UNL     1       2.086  -3.138  -5.565  0.00  0.00    +0.003 A 
ATOM      6  C   UNL     1       2.017  -1.743  -5.554  0.00  0.00    +0.010 A 
ATOM      7  C   UNL     1       1.904  -1.071  -4.356  0.00  0.00    +0.006 A 
BRANCH   5   8
ATOM      8  C   UNL     1       2.202  -3.865  -6.844  0.00  0.00    +0.077 C 
ATOM      9  S   UNL     1       1.436  -5.384  -7.038  0.00  0.00    -0.035 S 
BRANCH   8  10
ATOM     10  N   UNL     1       2.910  -3.334  -7.860  0.00  0.00    -0.352 N 
ATOM     11  H   UNL     1       3.344  -2.473  -7.750  0.00  0.00    +0.143 HD
ATOM     12  H   UNL     1       2.986  -3.811  -8.700  0.00  0.00    +0.143 HD
ENDBRANCH   8  10
ENDBRANCH   5   8
ENDBRANCH   1   2
BRANCH   1  13
ATOM     13  S   UNL     1      -0.000  -0.824  -1.437  0.00  0.00    +0.036 S 
ATOM     14  O   UNL     1      -0.583  -2.084  -1.135  0.00  0.00    -0.158 OA
ATOM     15  O   UNL     1      -0.624   0.060  -2.357  0.00  0.00    -0.158 OA
BRANCH  13  17
ATOM     16  C   UNL     1      -0.018   1.461   0.010  0.00  0.00    +0.131 C 
ATOM     17  N   UNL     1       0.002  -0.004   0.002  0.00  0.00    -0.180 NA
BRANCH  17  18
ATOM     18  C   UNL     1       0.024  -0.743   1.267  0.00  0.00    +0.144 C 
BRANCH  18  19
ATOM     19  C   UNL     1      -1.384  -0.909   1.776  0.00  0.00    -0.025 A 
ATOM     20  C   UNL     1      -1.946   0.042   2.607  0.00  0.00    +0.012 A 
ATOM     21  C   UNL     1      -3.216  -0.138   3.048  0.00  0.00    +0.045 A 
ATOM     22  S   UNL     1      -3.656  -1.689   2.282  0.00  0.00    -0.105 S 
ATOM     23  C   UNL     1      -2.121  -1.990   1.422  0.00  0.00    +0.050 A 
ENDBRANCH  18  19
ENDBRANCH  17  18
ENDBRANCH  13  17
ENDBRANCH   1  13
TORSDOF 7
