REMARK  Name = ZINC20684170
REMARK  9 active torsions:
REMARK  status: ('A' for Active; 'I' for Inactive)
REMARK    1  A    between atoms: C_1  and  N_2
REMARK    2  A    between atoms: N_2  and  C_3
REMARK    3  A    between atoms: N_2  and  C_11
REMARK    4  A    between atoms: C_3  and  C_4
REMARK    5  A    between atoms: C_11  and  C_12
REMARK    6  A    between atoms: N_14  and  C_15
REMARK    7  A    between atoms: C_15  and  C_16
REMARK    8  A    between atoms: C_19  and  S_22
REMARK    9  A    between atoms: S_22  and  N_25
REMARK                            x       y       z     vdW  Elec       q    Type
REMARK                         _______ _______ _______ _____ _____    ______ ____
ROOT
ATOM      1  C   UNL     1       2.163  -0.149   1.104  0.00  0.00    +0.197 C 
ATOM      2  O   UNL     1       2.574   0.494   0.162  0.00  0.00    -0.278 OA
ATOM      3  N   UNL     1       3.009  -0.524   2.084  0.00  0.00    -0.313 N 
ATOM      4  H   UNL     1       2.636  -1.107   2.939  0.00  0.00    +0.149 HD
ENDROOT
BRANCH   1   5
ATOM      5  C   UNL     1       0.706  -0.527   1.180  0.00  0.00    +0.019 C 
BRANCH   5   7
ATOM      6  C   UNL     1      -0.018   1.465   0.010  0.00  0.00    -0.095 C 
ATOM      7  N   UNL     1       0.002  -0.004   0.002  0.00  0.00    +0.386 N 
ATOM      8  H   UNL     1       0.552  -0.330  -0.893  0.00  0.00    -0.081 HD
BRANCH   7   9
ATOM      9  C   UNL     1      -1.360  -0.549  -0.083  0.00  0.00    -0.042 C 
BRANCH   9  10
ATOM     10  C   UNL     1      -1.962  -0.191  -1.417  0.00  0.00    -0.050 A 
ATOM     11  C   UNL     1      -2.845   0.868  -1.515  0.00  0.00    +0.003 A 
ATOM     12  C   UNL     1      -3.394   1.199  -2.740  0.00  0.00    +0.000 A 
ATOM     13  C   UNL     1      -3.068   0.465  -3.865  0.00  0.00    +0.001 A 
ATOM     14  C   UNL     1      -2.189  -0.597  -3.767  0.00  0.00    +0.015 A 
ATOM     15  C   UNL     1      -1.635  -0.925  -2.542  0.00  0.00    +0.019 A 
ATOM     16 BR   UNL     1      -0.433  -2.379  -2.407  0.00  0.00    -0.050 Br
ENDBRANCH   9  10
ENDBRANCH   7   9
ENDBRANCH   5   7
ENDBRANCH   1   5
BRANCH   3  17
ATOM     17  C   UNL     1       4.425  -0.156   2.010  0.00  0.00    +0.139 C 
BRANCH  17  18
ATOM     18  C   UNL     1       5.147  -0.693   3.219  0.00  0.00    -0.030 A 
ATOM     19  C   UNL     1       5.250   0.078   4.362  0.00  0.00    +0.007 A 
ATOM     20  C   UNL     1       5.909  -0.416   5.472  0.00  0.00    +0.029 A 
ATOM     21  C   UNL     1       6.473  -1.678   5.436  0.00  0.00    +0.105 A 
ATOM     22  C   UNL     1       6.374  -2.447   4.292  0.00  0.00    +0.029 A 
ATOM     23  C   UNL     1       5.712  -1.954   3.183  0.00  0.00    +0.007 A 
BRANCH  21  24
ATOM     24  S   UNL     1       7.316  -2.306   6.850  0.00  0.00    +0.056 S 
ATOM     25  O   UNL     1       6.797  -1.611   7.975  0.00  0.00    -0.153 OA
ATOM     26  O   UNL     1       7.280  -3.723   6.748  0.00  0.00    -0.153 OA
BRANCH  24  27
ATOM     27  N   UNL     1       8.905  -1.861   6.710  0.00  0.00    -0.204 NA
ATOM     28  H   UNL     1       9.468  -2.236   7.577  0.00  0.00    +0.144 HD
ATOM     29  H   UNL     1       8.976  -0.764   6.673  0.00  0.00    +0.144 HD
ENDBRANCH  24  27
ENDBRANCH  21  24
ENDBRANCH  17  18
ENDBRANCH   3  17
TORSDOF 8
