REMARK  Name = ZINC22792453
REMARK  9 active torsions:
REMARK  status: ('A' for Active; 'I' for Inactive)
REMARK    1  A    between atoms: C_1  and  C_2
REMARK    2  A    between atoms: C_5  and  C_9
REMARK    3  A    between atoms: C_7  and  C_8
REMARK    4  A    between atoms: C_9  and  C_32
REMARK    5  A    between atoms: N_12  and  C_16
REMARK    6  A    between atoms: C_16  and  N_17
REMARK    7  A    between atoms: N_20  and  C_23
REMARK    8  A    between atoms: C_23  and  C_24
REMARK    9  A    between atoms: C_25  and  C_26
REMARK                            x       y       z     vdW  Elec       q    Type
REMARK                         _______ _______ _______ _____ _____    ______ ____
ROOT
ATOM      1  C   UNL     1       3.431   3.042   7.671  0.00  0.00    +0.164 C 
ATOM      2  C   UNL     1       3.691   1.549   7.636  0.00  0.00    +0.257 C 
ATOM      3  O   UNL     1       3.359   0.729   8.466  0.00  0.00    -0.272 OA
ATOM      4  N   UNL     1       4.367   1.323   6.493  0.00  0.00    -0.210 N 
ATOM      5  C   UNL     1       4.572   2.455   5.809  0.00  0.00    +0.311 C 
ATOM      6  O   UNL     1       5.163   2.505   4.748  0.00  0.00    -0.252 OA
ATOM      7  N   UNL     1       4.048   3.530   6.425  0.00  0.00    -0.278 N 
ATOM      8  H   UNL     1       4.011   4.601   6.175  0.00  0.00    +0.152 HD
ENDROOT
BRANCH   1  13
ATOM      9  C   UNL     1      -2.247   4.118   7.697  0.00  0.00    +0.044 C 
ATOM     10  C   UNL     1      -0.766   3.837   7.690  0.00  0.00    -0.048 A 
ATOM     11  C   UNL     1      -0.243   2.862   8.519  0.00  0.00    +0.004 A 
ATOM     12  C   UNL     1       1.115   2.606   8.513  0.00  0.00    +0.007 A 
ATOM     13  C   UNL     1       1.950   3.323   7.677  0.00  0.00    -0.010 A 
ATOM     14  C   UNL     1       1.428   4.301   6.852  0.00  0.00    +0.010 A 
ATOM     15  C   UNL     1       0.069   4.555   6.855  0.00  0.00    -0.047 A 
ATOM     16  C   UNL     1      -0.500   5.618   5.951  0.00  0.00    +0.044 C 
ENDBRANCH   1  13
BRANCH   1  17
ATOM     17  C   UNL     1       4.093   3.669   8.871  0.00  0.00    -0.011 A 
ATOM     18  C   UNL     1       3.816   3.194  10.139  0.00  0.00    +0.006 A 
ATOM     19  C   UNL     1       4.427   3.765  11.240  0.00  0.00    +0.000 A 
ATOM     20  C   UNL     1       5.307   4.818  11.073  0.00  0.00    +0.000 A 
ATOM     21  C   UNL     1       5.580   5.296   9.805  0.00  0.00    +0.000 A 
ATOM     22  C   UNL     1       4.973   4.722   8.704  0.00  0.00    +0.006 A 
ENDBRANCH   1  17
BRANCH   4  23
ATOM     23  C   UNL     1       4.825   0.003   6.055  0.00  0.00    +0.205 C 
BRANCH  23  24
ATOM     24  N   UNL     1       3.781  -0.633   5.240  0.00  0.00    -0.290 NA
ATOM     25  C   UNL     1       4.361  -1.622   4.320  0.00  0.00    +0.067 C 
ATOM     26  C   UNL     1       3.254  -2.202   3.437  0.00  0.00    -0.063 C 
ATOM     27  N   UNL     1       2.224  -2.817   4.286  0.00  0.00    +0.384 N 
ATOM     28  C   UNL     1       1.645  -1.827   5.205  0.00  0.00    -0.063 C 
ATOM     29  C   UNL     1       2.751  -1.247   6.089  0.00  0.00    +0.067 C 
ATOM     30  H   UNL     1       2.704  -3.601   4.889  0.00  0.00    -0.081 HD
BRANCH  27  31
ATOM     31  C   UNL     1       1.180  -3.452   3.470  0.00  0.00    -0.051 C 
BRANCH  31  32
ATOM     32  C   UNL     1       0.281  -4.275   4.357  0.00  0.00    -0.045 C 
ATOM     33  C   UNL     1      -1.028  -4.069   4.348  0.00  0.00    +0.002 C 
BRANCH  33  34
ATOM     34  C   UNL     1      -1.910  -4.880   5.214  0.00  0.00    -0.025 A 
ATOM     35  C   UNL     1      -1.368  -5.867   6.037  0.00  0.00    +0.008 A 
ATOM     36  C   UNL     1      -2.196  -6.617   6.847  0.00  0.00    +0.001 A 
ATOM     37  C   UNL     1      -3.562  -6.399   6.835  0.00  0.00    +0.000 A 
ATOM     38  C   UNL     1      -4.106  -5.425   6.017  0.00  0.00    +0.001 A 
ATOM     39  C   UNL     1      -3.289  -4.665   5.207  0.00  0.00    +0.008 A 
ENDBRANCH  33  34
ENDBRANCH  31  32
ENDBRANCH  27  31
ENDBRANCH  23  24
ENDBRANCH   4  23
TORSDOF 7
