REMARK  Name = ZINC14962313
REMARK  7 active torsions:
REMARK  status: ('A' for Active; 'I' for Inactive)
REMARK    1  A    between atoms: C_4  and  C_7
REMARK    2  A    between atoms: C_7  and  C_8
REMARK    3  A    between atoms: C_8  and  N_9
REMARK    4  A    between atoms: C_13  and  C_16
REMARK    5  A    between atoms: C_13  and  O_24
REMARK    6  A    between atoms: C_16  and  N_56
REMARK    7  A    between atoms: C_17  and  N_56
REMARK                            x       y       z     vdW  Elec       q    Type
REMARK                         _______ _______ _______ _____ _____    ______ ____
ROOT
ATOM      1  N   UNL     1      -2.742   0.580   2.360  0.00  0.00    -0.299 N 
ATOM      2  C   UNL     1      -2.098   0.448   3.660  0.00  0.00    +0.108 C 
ATOM      3  C   UNL     1      -0.859   1.341   3.737  0.00  0.00    +0.022 C 
ATOM      4  C   UNL     1       0.015   1.075   2.506  0.00  0.00    +0.044 C 
ATOM      5  C   UNL     1      -0.729   1.579   1.267  0.00  0.00    +0.127 C 
ATOM      6  C   UNL     1      -2.139   1.062   1.274  0.00  0.00    +0.245 C 
ATOM      7  O   UNL     1      -2.764   1.085   0.235  0.00  0.00    -0.273 OA
ENDROOT
BRANCH   5   8
ATOM      8  O   UNL     1      -0.747   3.008   1.273  0.00  0.00    -0.381 OA
ATOM      9  H   UNL     1      -1.201   3.399   0.514  0.00  0.00    +0.211 HD
ENDBRANCH   5   8
BRANCH   1  10
ATOM     10  C   UNL     1      -4.139   0.155   2.239  0.00  0.00    +0.112 C 
BRANCH  10  11
ATOM     11  C   UNL     1      -5.060   1.337   2.547  0.00  0.00    +0.054 C 
BRANCH  11  15
ATOM     12  C   UNL     1      -9.133   0.099   2.195  0.00  0.00    +0.000 A 
ATOM     13  C   UNL     1      -8.480  -0.008   3.409  0.00  0.00    +0.000 A 
ATOM     14  C   UNL     1      -7.162   0.393   3.523  0.00  0.00    +0.004 A 
ATOM     15  C   UNL     1      -6.497   0.900   2.423  0.00  0.00    -0.046 A 
ATOM     16  C   UNL     1      -7.151   1.012   1.210  0.00  0.00    +0.004 A 
ATOM     17  C   UNL     1      -8.467   0.608   1.095  0.00  0.00    +0.000 A 
ENDBRANCH  11  15
ENDBRANCH  10  11
ENDBRANCH   1  10
BRANCH   5  18
ATOM     18  C   UNL     1      -0.013   1.086   0.008  0.00  0.00    -0.037 C 
BRANCH  18  19
ATOM     19  N   UNL     1      -0.732   1.579  -1.182  0.00  0.00    +0.383 N 
ATOM     20  H   UNL     1      -0.746   2.605  -1.168  0.00  0.00    -0.085 HD
ATOM     21  H   UNL     1      -1.695   1.223  -1.167  0.00  0.00    -0.085 HD
BRANCH  19  22
ATOM     22  C   UNL     1      -0.062   1.117  -2.413  0.00  0.00    -0.072 C 
ATOM     23  C   UNL     1       1.096   2.081  -2.744  0.00  0.00    -0.016 C 
ATOM     24  C   UNL     1       2.062   1.371  -3.654  0.00  0.00    -0.002 C 
ATOM     25  C   UNL     1       1.783   1.654  -5.143  0.00  0.00    -0.000 C 
ATOM     26  C   UNL     1       0.280   1.639  -5.482  0.00  0.00    -0.000 C 
ATOM     27  C   UNL     1      -0.453   0.516  -4.799  0.00  0.00    -0.002 C 
ATOM     28  C   UNL     1      -1.049   1.051  -3.481  0.00  0.00    -0.016 C 
ENDBRANCH  19  22
ENDBRANCH  18  19
ENDBRANCH   5  18
TORSDOF 7
