REMARK  Name = ZINC42434209
REMARK  6 active torsions:
REMARK  status: ('A' for Active; 'I' for Inactive)
REMARK    1  A    between atoms: C_6  and  C_7
REMARK    2  A    between atoms: C_7  and  N_8
REMARK    3  A    between atoms: N_8  and  S_9
REMARK    4  A    between atoms: S_9  and  C_12
REMARK    5  A    between atoms: C_15  and  C_17
REMARK    6  A    between atoms: C_17  and  N_18
REMARK                            x       y       z     vdW  Elec       q    Type
REMARK                         _______ _______ _______ _____ _____    ______ ____
ROOT
ATOM      1  S   UNL     1      -2.898  -2.144  -1.682  0.00  0.00    +0.065 S 
ATOM      2  O   UNL     1      -3.112  -2.127  -3.087  0.00  0.00    -0.153 OA
ATOM      3  O   UNL     1      -2.525  -3.324  -0.983  0.00  0.00    -0.153 OA
ENDROOT
BRANCH   1   4
ATOM      4  C   UNL     1      -4.387  -1.567  -0.938  0.00  0.00    +0.143 A 
ATOM      5  C   UNL     1      -5.360  -0.786  -1.469  0.00  0.00    +0.036 A 
ATOM      6  C   UNL     1      -6.453  -0.455  -0.691  0.00  0.00    +0.011 A 
ATOM      7  C   UNL     1      -6.521  -0.922   0.580  0.00  0.00    -0.026 A 
ATOM      8  S   UNL     1      -5.011  -1.866   0.708  0.00  0.00    -0.075 S 
BRANCH   7   9
ATOM      9  C   UNL     1      -7.595  -0.705   1.615  0.00  0.00    -0.043 C 
BRANCH   9  10
ATOM     10  N   UNL     1      -8.606  -1.765   1.501  0.00  0.00    +0.381 N 
ATOM     11  H   UNL     1      -9.325  -1.619   2.194  0.00  0.00    -0.090 HD
ATOM     12  H   UNL     1      -9.017  -1.740   0.580  0.00  0.00    -0.090 HD
ATOM     13  H   UNL     1      -8.171  -2.663   1.651  0.00  0.00    -0.090 HD
ENDBRANCH   9  10
ENDBRANCH   7   9
ENDBRANCH   1   4
BRANCH   1  14
ATOM     14  N   UNL     1      -1.726  -1.017  -1.368  0.00  0.00    -0.185 NA
ATOM     15  H   UNL     1      -1.325  -0.518  -2.097  0.00  0.00    +0.148 HD
BRANCH  14  16
ATOM     16  C   UNL     1      -1.293  -0.775   0.010  0.00  0.00    +0.141 C 
BRANCH  16  22
ATOM     17  C   UNL     1      -0.017   1.378   0.010  0.00  0.00    +0.006 A 
ATOM     18  C   UNL     1       1.171   2.086   0.002  0.00  0.00    +0.015 A 
ATOM     19  C   UNL     1       2.378   1.411  -0.013  0.00  0.00    +0.018 A 
ATOM     20  C   UNL     1       2.396   0.027  -0.021  0.00  0.00    +0.015 A 
ATOM     21  C   UNL     1       1.208  -0.679  -0.013  0.00  0.00    +0.006 A 
ATOM     22  C   UNL     1       0.002  -0.004   0.002  0.00  0.00    -0.032 A 
ATOM     23 BR   UNL     1       4.003   2.378  -0.024  0.00  0.00    -0.050 Br
ENDBRANCH  16  22
ENDBRANCH  14  16
ENDBRANCH   1  14
TORSDOF 6
