REMARK  Name = ZINC62825374
REMARK  7 active torsions:
REMARK  status: ('A' for Active; 'I' for Inactive)
REMARK    1  A    between atoms: C_1  and  N_2
REMARK    2  A    between atoms: N_2  and  C_3
REMARK    3  A    between atoms: C_3  and  C_4
REMARK    4  A    between atoms: C_4  and  C_5
REMARK    5  A    between atoms: C_5  and  C_6
REMARK    6  A    between atoms: N_8  and  C_9
REMARK    7  A    between atoms: C_10  and  C_17
REMARK                            x       y       z     vdW  Elec       q    Type
REMARK                         _______ _______ _______ _____ _____    ______ ____
ROOT
ATOM      1  C   UNL     1       2.074  -3.946  -2.388  0.00  0.00    +0.217 C 
ATOM      2  O   UNL     1       2.135  -4.505  -1.314  0.00  0.00    -0.275 OA
ATOM      3  N   UNL     1       2.011  -4.671  -3.522  0.00  0.00    -0.284 N 
ATOM      4  H   UNL     1       1.882  -4.227  -4.375  0.00  0.00    +0.155 HD
ENDROOT
BRANCH   3   5
ATOM      5  C   UNL     1       2.132  -6.057  -3.470  0.00  0.00    +0.062 A 
ATOM      6  C   UNL     1       3.088  -6.712  -4.263  0.00  0.00    +0.086 A 
ATOM      7  C   UNL     1       3.199  -8.105  -4.201  0.00  0.00    +0.032 A 
ATOM      8  C   UNL     1       2.373  -8.823  -3.364  0.00  0.00    +0.020 A 
ATOM      9  C   UNL     1       1.430  -8.173  -2.582  0.00  0.00    +0.032 A 
ATOM     10  C   UNL     1       1.312  -6.798  -2.629  0.00  0.00    +0.041 A 
ATOM     11 BR   UNL     1       0.027  -5.923  -1.552  0.00  0.00    -0.048 Br
ATOM     12 BR   UNL     1       2.524 -10.707  -3.282  0.00  0.00    -0.050 Br
BRANCH   6  13
ATOM     13  C   UNL     1       3.966  -5.939  -5.155  0.00  0.00    +0.388 C 
ATOM     14  O   UNL     1       4.725  -6.518  -5.920  0.00  0.00    -0.241 OA
ATOM     15  O   UNL     1       3.938  -4.716  -5.132  0.00  0.00    -0.241 OA
ENDBRANCH   6  13
ENDBRANCH   3   5
BRANCH   1  16
ATOM     16  C   UNL     1       2.068  -2.440  -2.455  0.00  0.00    +0.094 C 
BRANCH  16  17
ATOM     17  C   UNL     1       2.147  -1.866  -1.039  0.00  0.00    -0.010 C 
BRANCH  17  18
ATOM     18  C   UNL     1       2.141  -0.338  -1.107  0.00  0.00    -0.083 C 
BRANCH  18  20
ATOM     19  C   UNL     1       2.211   1.680   0.188  0.00  0.00    -0.101 C 
ATOM     20  N   UNL     1       2.216   0.213   0.253  0.00  0.00    +0.377 N 
ATOM     21  H   UNL     1       3.067  -0.101   0.697  0.00  0.00    -0.086 HD
ATOM     22  H   UNL     1       1.421  -0.103   0.789  0.00  0.00    -0.086 HD
ENDBRANCH  18  20
ENDBRANCH  17  18
ENDBRANCH  16  17
ENDBRANCH   1  16
TORSDOF 6
