REMARK  Name = ZINC12531575
REMARK  11 active torsions:
REMARK  status: ('A' for Active; 'I' for Inactive)
REMARK    1  A    between atoms: C_1  and  C_2
REMARK    2  A    between atoms: C_2  and  C_3
REMARK    3  A    between atoms: C_2  and  N_65
REMARK    4  A    between atoms: C_4  and  N_65
REMARK    5  A    between atoms: C_7  and  C_26
REMARK    6  A    between atoms: C_7  and  C_27
REMARK    7  A    between atoms: C_10  and  C_17
REMARK    8  A    between atoms: C_13  and  C_15
REMARK    9  A    between atoms: C_13  and  O_16
REMARK   10  A    between atoms: C_17  and  C_18
REMARK   11  A    between atoms: C_18  and  C_19
REMARK                            x       y       z     vdW  Elec       q    Type
REMARK                         _______ _______ _______ _____ _____    ______ ____
ROOT
ATOM      1  C   UNL     1       2.216   4.017  -2.536  0.00  0.00    -0.064 C 
ATOM      2  C   UNL     1       1.337   5.191  -2.063  0.00  0.00    -0.009 C 
ATOM      3  C   UNL     1       0.058   4.563  -1.478  0.00  0.00    -0.033 C 
ATOM      4  C   UNL     1       0.232   3.026  -1.598  0.00  0.00    +0.002 C 
ATOM      5  C   UNL     1       1.206   2.880  -2.780  0.00  0.00    -0.038 C 
ATOM      6  C   UNL     1       1.866   1.524  -2.854  0.00  0.00    +0.008 C 
ATOM      7  C   UNL     1       2.504   1.138  -1.520  0.00  0.00    +0.035 C 
ATOM      8  C   UNL     1       1.406   1.127  -0.449  0.00  0.00    +0.064 C 
ATOM      9  C   UNL     1       0.857   2.543  -0.302  0.00  0.00    +0.039 C 
ATOM     10  C   UNL     1       1.993   0.657   0.883  0.00  0.00    +0.041 C 
ATOM     11  C   UNL     1      -1.164   5.017  -2.280  0.00  0.00    +0.011 C 
ATOM     12  C   UNL     1      -0.101   4.962  -0.009  0.00  0.00    +0.011 C 
ENDROOT
BRANCH   1  13
ATOM     13  N   UNL     1       2.900   4.374  -3.794  0.00  0.00    +0.383 N 
ATOM     14  H   UNL     1       3.031   3.527  -4.360  0.00  0.00    -0.085 HD
ATOM     15  H   UNL     1       2.324   5.047  -4.313  0.00  0.00    -0.085 HD
BRANCH  13  17
ATOM     16  C   UNL     1       5.135   4.769  -4.713  0.00  0.00    -0.014 C 
ATOM     17  C   UNL     1       4.215   4.977  -3.508  0.00  0.00    -0.078 C 
ATOM     18  C   UNL     1       4.045   6.475  -3.249  0.00  0.00    -0.014 C 
ENDBRANCH  13  17
ENDBRANCH   1  13
BRANCH   8  19
ATOM     19  O   UNL     1       0.356   0.244  -0.849  0.00  0.00    -0.389 OA
ATOM     20  H   UNL     1       0.638  -0.672  -0.976  0.00  0.00    +0.210 HD
ENDBRANCH   8  19
BRANCH   5  21
ATOM     21  C   UNL     1       0.455   3.147  -4.086  0.00  0.00    +0.015 C 
BRANCH  21  22
ATOM     22  C   UNL     1      -0.714   2.168  -4.211  0.00  0.00    +0.096 C 
BRANCH  22  23
ATOM     23  C   UNL     1      -1.371   2.339  -5.556  0.00  0.00    +0.216 C 
ATOM     24  O   UNL     1      -0.946   3.163  -6.338  0.00  0.00    -0.276 OA
ATOM     25  N   UNL     1      -2.432   1.577  -5.890  0.00  0.00    -0.301 N 
ATOM     26  C   UNL     1      -3.043   0.541  -5.044  0.00  0.00    +0.108 C 
ATOM     27  C   UNL     1      -4.205  -0.080  -5.847  0.00  0.00    +0.020 C 
ATOM     28  C   UNL     1      -3.821   0.243  -7.316  0.00  0.00    +0.020 C 
ATOM     29  C   UNL     1      -3.167   1.639  -7.166  0.00  0.00    +0.108 C 
ENDBRANCH  22  23
ENDBRANCH  21  22
ENDBRANCH   5  21
TORSDOF 6
