REMARK  Name = ZINC12520566
REMARK  7 active torsions:
REMARK  status: ('A' for Active; 'I' for Inactive)
REMARK    1  A    between atoms: C_1  and  C_2
REMARK    2  A    between atoms: C_2  and  O_3
REMARK    3  A    between atoms: O_3  and  C_4
REMARK    4  A    between atoms: C_6  and  C_20
REMARK    5  A    between atoms: C_9  and  O_10
REMARK    6  A    between atoms: O_10  and  C_11
REMARK    7  A    between atoms: C_11  and  C_12
REMARK                            x       y       z     vdW  Elec       q    Type
REMARK                         _______ _______ _______ _____ _____    ______ ____
ROOT
ATOM      1  C   UNL     1      -1.498  -1.849   0.006  0.00  0.00    +0.162 A 
ATOM      2  C   UNL     1      -0.389  -2.680  -0.003  0.00  0.00    +0.056 A 
ATOM      3  C   UNL     1      -0.553  -4.052  -0.008  0.00  0.00    -0.003 A 
ATOM      4  C   UNL     1      -1.823  -4.600  -0.005  0.00  0.00    +0.011 A 
ATOM      5  C   UNL     1      -2.934  -3.777   0.004  0.00  0.00    +0.050 A 
ATOM      6  C   UNL     1      -2.776  -2.400   0.016  0.00  0.00    +0.163 A 
ENDROOT
BRANCH   3   7
ATOM      7  C   UNL     1       0.654  -4.954  -0.018  0.00  0.00    +0.209 C 
ATOM      8  N   UNL     1       0.415  -6.118   0.855  0.00  0.00    -0.294 N 
ATOM      9  C   UNL     1      -0.333  -7.169   0.344  0.00  0.00    +0.159 C 
ATOM     10  N   UNL     1       0.075  -7.679  -0.889  0.00  0.00    -0.259 N 
ATOM     11  C   UNL     1       0.602  -6.741  -1.772  0.00  0.00    +0.205 A 
ATOM     12  N   UNL     1       0.891  -5.452  -1.378  0.00  0.00    -0.288 N 
ATOM     13  C   UNL     1       1.401  -4.801  -2.464  0.00  0.00    +0.072 A 
ATOM     14  C   UNL     1       1.865  -3.505  -2.658  0.00  0.00    +0.028 A 
ATOM     15  C   UNL     1       2.321  -3.181  -3.925  0.00  0.00    +0.002 A 
ATOM     16  C   UNL     1       2.320  -4.098  -4.963  0.00  0.00    +0.002 A 
ATOM     17  C   UNL     1       1.864  -5.393  -4.796  0.00  0.00    +0.030 A 
ATOM     18  C   UNL     1       1.399  -5.743  -3.523  0.00  0.00    +0.091 A 
ATOM     19  N   UNL     1       0.899  -6.899  -3.033  0.00  0.00    -0.214 NA
ATOM     20  N   UNL     1      -1.361  -7.654   0.982  0.00  0.00    -0.375 N 
ATOM     21  H   UNL     1       0.769  -6.148   1.757  0.00  0.00    +0.151 HD
ATOM     22  H   UNL     1      -1.621  -7.279   1.838  0.00  0.00    +0.158 HD
ATOM     23  H   UNL     1      -0.004  -8.619  -1.114  0.00  0.00    +0.158 HD
ATOM     24  H   UNL     1      -1.865  -8.389   0.601  0.00  0.00    +0.158 HD
ENDBRANCH   3   7
BRANCH   1  25
ATOM     25  O   UNL     1      -1.339  -0.499   0.012  0.00  0.00    -0.489 OA
BRANCH  25  27
ATOM     26  C   UNL     1      -0.019   1.526   0.010  0.00  0.00    +0.048 C 
ATOM     27  C   UNL     1       0.002  -0.004   0.002  0.00  0.00    +0.226 C 
ENDBRANCH  25  27
ENDBRANCH   1  25
BRANCH   6  28
ATOM     28  O   UNL     1      -3.868  -1.589   0.030  0.00  0.00    -0.479 OA
BRANCH  28  29
ATOM     29  C   UNL     1      -5.148  -2.225   0.039  0.00  0.00    +0.324 C 
BRANCH  29  30
ATOM     30  C   UNL     1      -6.229  -1.175   0.055  0.00  0.00    +0.253 C 
ATOM     31  O   UNL     1      -5.933   0.001   0.059  0.00  0.00    -0.272 OA
ATOM     32  N   UNL     1      -7.526  -1.544   0.066  0.00  0.00    -0.299 N 
ATOM     33  C   UNL     1      -7.900  -2.965   0.068  0.00  0.00    +0.108 C 
ATOM     34  C   UNL     1      -8.848  -3.223   1.243  0.00  0.00    +0.019 C 
ATOM     35  C   UNL     1     -10.035  -2.260   1.157  0.00  0.00    +0.003 C 
ATOM     36  C   UNL     1      -9.532  -0.818   1.250  0.00  0.00    +0.019 C 
ATOM     37  C   UNL     1      -8.591  -0.532   0.081  0.00  0.00    +0.108 C 
ENDBRANCH  29  30
ENDBRANCH  28  29
ENDBRANCH   6  28
TORSDOF 6
