REMARK  Name = ZINC36668047
REMARK  5 active torsions:
REMARK  status: ('A' for Active; 'I' for Inactive)
REMARK    1  A    between atoms: C_4  and  C_7
REMARK    2  A    between atoms: C_9  and  C_25
REMARK    3  A    between atoms: C_10  and  N_12
REMARK    4  A    between atoms: C_13  and  C_15
REMARK    5  A    between atoms: C_15  and  C_17
REMARK                            x       y       z     vdW  Elec       q    Type
REMARK                         _______ _______ _______ _____ _____    ______ ____
ROOT
ATOM      1  C   UNL     1       3.697  -0.702  -0.233  0.00  0.00    +0.022 A 
ATOM      2  C   UNL     1       3.919  -2.013   0.063  0.00  0.00    +0.031 A 
ATOM      3  C   UNL     1       5.254  -2.402   0.182  0.00  0.00    +0.066 A 
ATOM      4  C   UNL     1       6.228  -1.427  -0.009  0.00  0.00    +0.085 A 
ATOM      5  S   UNL     1       5.346  -0.038  -0.346  0.00  0.00    -0.073 S 
ENDROOT
BRANCH   1   9
ATOM      6  C   UNL     1      -0.009   1.303  -0.771  0.00  0.00    +0.000 A 
ATOM      7  C   UNL     1       1.178   2.002  -0.902  0.00  0.00    +0.001 A 
ATOM      8  C   UNL     1       2.385   1.357  -0.728  0.00  0.00    +0.009 A 
ATOM      9  C   UNL     1       2.407  -0.004  -0.420  0.00  0.00    -0.011 A 
ATOM     10  C   UNL     1       1.206  -0.704  -0.289  0.00  0.00    +0.009 A 
ATOM     11  C   UNL     1       0.006  -0.047  -0.466  0.00  0.00    +0.001 A 
ENDBRANCH   1   9
BRANCH   3  12
ATOM     12  C   UNL     1       5.616  -3.789   0.499  0.00  0.00    +0.244 C 
ATOM     13  O   UNL     1       6.788  -4.104   0.599  0.00  0.00    -0.270 OA
ATOM     14  N   UNL     1       4.652  -4.713   0.679  0.00  0.00    -0.325 N 
ATOM     15  H   UNL     1       3.719  -4.462   0.600  0.00  0.00    +0.145 HD
ATOM     16  H   UNL     1       4.892  -5.629   0.888  0.00  0.00    +0.145 HD
ENDBRANCH   3  12
BRANCH   4  17
ATOM     17  N   UNL     1       7.601  -1.570   0.058  0.00  0.00    -0.273 N 
ATOM     18  C   UNL     1       8.400  -0.506  -0.157  0.00  0.00    +0.289 C 
ATOM     19  O   UNL     1       7.914   0.577  -0.410  0.00  0.00    -0.266 OA
ATOM     20  H   UNL     1       7.989  -2.436   0.260  0.00  0.00    +0.156 HD
BRANCH  18  21
ATOM     21  C   UNL     1       9.881  -0.660  -0.085  0.00  0.00    +0.248 C 
ATOM     22  O   UNL     1      10.371  -1.761   0.061  0.00  0.00    -0.282 OA
BRANCH  21  23
ATOM     23  C   UNL     1      10.751   0.524  -0.191  0.00  0.00    +0.030 A 
ATOM     24  C   UNL     1      10.194   1.809  -0.170  0.00  0.00    +0.015 A 
ATOM     25  C   UNL     1      11.012   2.913  -0.269  0.00  0.00    +0.042 A 
ATOM     26  C   UNL     1      12.385   2.755  -0.391  0.00  0.00    +0.158 A 
ATOM     27  C   UNL     1      12.945   1.483  -0.413  0.00  0.00    +0.159 A 
ATOM     28  C   UNL     1      12.137   0.370  -0.308  0.00  0.00    +0.053 A 
ATOM     29  F   UNL     1      14.282   1.337  -0.532  0.00  0.00    -0.202 F 
ATOM     30  F   UNL     1      13.181   3.842  -0.489  0.00  0.00    -0.202 F 
ENDBRANCH  21  23
ENDBRANCH  18  21
ENDBRANCH   4  17
TORSDOF 5
