REMARK  Name = ZINC53236603
REMARK  11 active torsions:
REMARK  status: ('A' for Active; 'I' for Inactive)
REMARK    1  A    between atoms: C_1  and  C_2
REMARK    2  A    between atoms: C_2  and  C_4
REMARK    3  A    between atoms: C_2  and  N_11
REMARK    4  A    between atoms: N_11  and  C_12
REMARK    5  A    between atoms: N_11  and  C_13
REMARK    6  A    between atoms: C_13  and  C_14
REMARK    7  A    between atoms: N_16  and  C_17
REMARK    8  A    between atoms: C_17  and  C_18
REMARK    9  A    between atoms: C_21  and  O_24
REMARK   10  A    between atoms: O_24  and  C_25
REMARK   11  A    between atoms: C_25  and  C_26
REMARK                            x       y       z     vdW  Elec       q    Type
REMARK                         _______ _______ _______ _____ _____    ______ ____
ROOT
ATOM      1  C   UNL     1      -3.532  -0.445  -1.106  0.00  0.00    +0.197 C 
ATOM      2  O   UNL     1      -3.932  -1.085  -0.157  0.00  0.00    -0.278 OA
ATOM      3  N   UNL     1      -4.382  -0.107  -2.096  0.00  0.00    -0.313 N 
ATOM      4  H   UNL     1      -4.062   0.405  -2.855  0.00  0.00    +0.149 HD
ENDROOT
BRANCH   1   5
ATOM      5  C   UNL     1      -2.087  -0.026  -1.178  0.00  0.00    +0.019 C 
BRANCH   5   6
ATOM      6  N   UNL     1      -1.376  -0.512   0.012  0.00  0.00    +0.388 N 
ATOM      7  C   UNL     1      -1.356  -1.981   0.004  0.00  0.00    -0.095 C 
ATOM      8  H   UNL     1      -1.848  -0.187   0.843  0.00  0.00    -0.081 HD
BRANCH   6  10
ATOM      9  C   UNL     1      -0.019   1.526   0.010  0.00  0.00    -0.008 C 
ATOM     10  C   UNL     1       0.002  -0.004   0.002  0.00  0.00    -0.039 C 
BRANCH  10  11
ATOM     11  C   UNL     1       0.731  -0.503   1.223  0.00  0.00    -0.043 A 
ATOM     12  C   UNL     1       0.018  -0.951   2.319  0.00  0.00    +0.003 A 
ATOM     13  C   UNL     1       0.686  -1.409   3.439  0.00  0.00    +0.000 A 
ATOM     14  C   UNL     1       2.068  -1.419   3.463  0.00  0.00    +0.001 A 
ATOM     15  C   UNL     1       2.783  -0.972   2.368  0.00  0.00    +0.020 A 
ATOM     16  C   UNL     1       2.114  -0.519   1.245  0.00  0.00    +0.043 A 
ATOM     17 CL   UNL     1       3.011   0.037  -0.134  0.00  0.00    -0.083 Cl
ENDBRANCH  10  11
ENDBRANCH   6  10
ENDBRANCH   5   6
ENDBRANCH   1   5
BRANCH   3  18
ATOM     18  C   UNL     1      -5.787  -0.514  -2.026  0.00  0.00    +0.139 C 
BRANCH  18  19
ATOM     19  C   UNL     1      -6.516  -0.015  -3.247  0.00  0.00    -0.030 A 
ATOM     20  C   UNL     1      -7.111   1.233  -3.234  0.00  0.00    +0.009 A 
ATOM     21  C   UNL     1      -7.780   1.693  -4.351  0.00  0.00    +0.046 A 
ATOM     22  C   UNL     1      -7.855   0.901  -5.488  0.00  0.00    +0.121 A 
ATOM     23  C   UNL     1      -7.256  -0.350  -5.500  0.00  0.00    +0.046 A 
ATOM     24  C   UNL     1      -6.584  -0.803  -4.381  0.00  0.00    +0.009 A 
BRANCH  22  25
ATOM     25  O   UNL     1      -8.513   1.351  -6.589  0.00  0.00    -0.483 OA
BRANCH  25  26
ATOM     26  C   UNL     1      -8.549   0.483  -7.723  0.00  0.00    +0.324 C 
BRANCH  26  27
ATOM     27  C   UNL     1      -9.316   1.145  -8.839  0.00  0.00    +0.248 C 
ATOM     28  O   UNL     1      -9.785   2.252  -8.678  0.00  0.00    -0.272 OA
ATOM     29  N   UNL     1      -9.480   0.508 -10.015  0.00  0.00    -0.327 N 
ATOM     30  H   UNL     1      -9.104  -0.378 -10.143  0.00  0.00    +0.145 HD
ATOM     31  H   UNL     1      -9.973   0.934 -10.733  0.00  0.00    +0.145 HD
ENDBRANCH  26  27
ENDBRANCH  25  26
ENDBRANCH  22  25
ENDBRANCH  18  19
ENDBRANCH   3  18
TORSDOF 9
