REMARK  Name = ZINC39322033
REMARK  11 active torsions:
REMARK  status: ('A' for Active; 'I' for Inactive)
REMARK    1  A    between atoms: C_1  and  C_2
REMARK    2  A    between atoms: C_5  and  N_8
REMARK    3  A    between atoms: C_11  and  C_16
REMARK    4  A    between atoms: C_12  and  C_15
REMARK    5  A    between atoms: C_16  and  C_18
REMARK    6  A    between atoms: C_16  and  C_25
REMARK    7  A    between atoms: C_22  and  O_24
REMARK    8  A    between atoms: C_26  and  C_39
REMARK    9  A    between atoms: N_28  and  C_32
REMARK   10  A    between atoms: C_29  and  O_31
REMARK   11  A    between atoms: C_35  and  C_38
REMARK                            x       y       z     vdW  Elec       q    Type
REMARK                         _______ _______ _______ _____ _____    ______ ____
ROOT
ATOM      1  C   UNL     1       0.103  -7.541   1.475  0.00  0.00    +0.088 C 
ENDROOT
BRANCH   1   5
ATOM      2  N   UNL     1       0.847  -4.428  -0.359  0.00  0.00    -0.219 N 
ATOM      3  C   UNL     1       1.190  -5.365   0.548  0.00  0.00    +0.276 A 
ATOM      4  O   UNL     1       2.215  -5.388   1.206  0.00  0.00    -0.266 OA
ATOM      5  C   UNL     1       0.145  -6.316   0.597  0.00  0.00    +0.051 A 
ATOM      6  C   UNL     1      -0.808  -5.937  -0.278  0.00  0.00    +0.039 A 
ATOM      7  N   UNL     1      -0.408  -4.776  -0.877  0.00  0.00    -0.294 N 
ATOM      8  H   UNL     1      -0.904  -4.281  -1.547  0.00  0.00    +0.187 HD
ATOM      9  C   UNL     1      -2.099  -6.666  -0.546  0.00  0.00    +0.065 C 
BRANCH   2  14
ATOM     10  C   UNL     1       3.915   0.122  -1.796  0.00  0.00    +0.044 C 
ATOM     11  C   UNL     1       3.100  -1.087  -1.414  0.00  0.00    -0.050 A 
ATOM     12  C   UNL     1       1.872  -1.308  -2.011  0.00  0.00    +0.005 A 
ATOM     13  C   UNL     1       1.123  -2.414  -1.664  0.00  0.00    +0.028 A 
ATOM     14  C   UNL     1       1.603  -3.306  -0.713  0.00  0.00    +0.067 A 
ATOM     15  C   UNL     1       2.837  -3.082  -0.116  0.00  0.00    +0.028 A 
ATOM     16  C   UNL     1       3.584  -1.976  -0.471  0.00  0.00    +0.005 A 
ENDBRANCH   2  14
ENDBRANCH   1   5
BRANCH   1  17
ATOM     17  C   UNL     1      -1.113  -7.480   2.364  0.00  0.00    +0.008 C 
ATOM     18  C   UNL     1      -2.040  -8.407   2.478  0.00  0.00    +0.023 C 
ATOM     19  N   UNL     1      -3.023  -8.045   3.378  0.00  0.00    -0.266 N 
ATOM     20  N   UNL     1      -2.747  -6.780   3.917  0.00  0.00    -0.221 N 
ATOM     21  C   UNL     1      -1.486  -6.346   3.292  0.00  0.00    +0.250 C 
ATOM     22  C   UNL     1      -2.031  -9.708   1.716  0.00  0.00    +0.062 C 
ATOM     23  H   UNL     1      -3.794  -8.587   3.605  0.00  0.00    +0.170 HD
BRANCH  20  24
ATOM     24  C   UNL     1      -3.507  -6.080   4.857  0.00  0.00    +0.051 A 
ATOM     25  C   UNL     1      -3.097  -4.824   5.288  0.00  0.00    +0.025 A 
ATOM     26  C   UNL     1      -3.851  -4.134   6.216  0.00  0.00    +0.005 A 
ATOM     27  C   UNL     1      -5.013  -4.692   6.717  0.00  0.00    -0.050 A 
ATOM     28  C   UNL     1      -5.425  -5.941   6.290  0.00  0.00    +0.005 A 
ATOM     29  C   UNL     1      -4.678  -6.634   5.357  0.00  0.00    +0.025 A 
ATOM     30  C   UNL     1      -5.834  -3.936   7.730  0.00  0.00    +0.044 C 
ENDBRANCH  20  24
BRANCH  21  31
ATOM     31  O   UNL     1      -1.689  -5.141   2.551  0.00  0.00    -0.369 OA
ATOM     32  H   UNL     1      -1.931  -4.380   3.096  0.00  0.00    +0.212 HD
ENDBRANCH  21  31
ENDBRANCH   1  17
BRANCH   1  33
ATOM     33  C   UNL     1       1.345  -7.591   2.326  0.00  0.00    -0.032 A 
ATOM     34  C   UNL     1       1.563  -6.623   3.289  0.00  0.00    +0.005 A 
ATOM     35  C   UNL     1       2.702  -6.666   4.071  0.00  0.00    +0.004 A 
ATOM     36  C   UNL     1       3.626  -7.678   3.892  0.00  0.00    +0.045 A 
ATOM     37  C   UNL     1       3.410  -8.650   2.927  0.00  0.00    +0.117 A 
ATOM     38  C   UNL     1       2.263  -8.608   2.147  0.00  0.00    +0.050 A 
BRANCH  37  39
ATOM     39  O   UNL     1       4.317  -9.646   2.749  0.00  0.00    -0.507 OA
ATOM     40  H   UNL     1       4.153 -10.430   3.292  0.00  0.00    +0.292 HD
ENDBRANCH  37  39
ENDBRANCH   1  33
TORSDOF 7
