REMARK  Name = ZINC36629456
REMARK  8 active torsions:
REMARK  status: ('A' for Active; 'I' for Inactive)
REMARK    1  A    between atoms: C_1  and  C_2
REMARK    2  A    between atoms: C_2  and  C_3
REMARK    3  A    between atoms: C_3  and  N_4
REMARK    4  A    between atoms: C_10  and  N_15
REMARK    5  A    between atoms: C_11  and  C_12
REMARK    6  A    between atoms: C_16  and  C_18
REMARK    7  A    between atoms: C_18  and  C_19
REMARK    8  A    between atoms: C_22  and  N_25
REMARK                            x       y       z     vdW  Elec       q    Type
REMARK                         _______ _______ _______ _____ _____    ______ ____
ROOT
ATOM      1  N   UNL     1      -1.413  -2.002   0.005  0.00  0.00    +0.383 N 
ATOM      2  C   UNL     1      -2.787  -2.509  -0.110  0.00  0.00    -0.074 C 
ATOM      3  C   UNL     1      -2.773  -4.007  -0.433  0.00  0.00    +0.018 C 
ATOM      4  C   UNL     1      -1.878  -4.697   0.588  0.00  0.00    -0.027 A 
ATOM      5  C   UNL     1      -1.009  -3.973   1.329  0.00  0.00    -0.021 A 
ATOM      6  S   UNL     1      -0.201  -5.161   2.357  0.00  0.00    -0.079 S 
ATOM      7  C   UNL     1      -0.971  -6.561   1.836  0.00  0.00    +0.084 A 
ATOM      8  C   UNL     1      -1.857  -6.119   0.865  0.00  0.00    +0.068 A 
ATOM      9  C   UNL     1      -0.807  -2.492   1.257  0.00  0.00    -0.035 C 
ATOM     10  H   UNL     1      -0.870  -2.327  -0.781  0.00  0.00    -0.081 HD
ENDROOT
BRANCH   8  11
ATOM     11  C   UNL     1      -2.735  -7.051   0.150  0.00  0.00    +0.244 C 
ATOM     12  O   UNL     1      -2.357  -7.571  -0.884  0.00  0.00    -0.270 OA
ATOM     13  N   UNL     1      -3.959  -7.332   0.638  0.00  0.00    -0.325 N 
ATOM     14  H   UNL     1      -4.260  -6.918   1.462  0.00  0.00    +0.145 HD
ATOM     15  H   UNL     1      -4.540  -7.949   0.165  0.00  0.00    +0.145 HD
ENDBRANCH   8  11
BRANCH   7  16
ATOM     16  N   UNL     1      -0.766  -7.860   2.276  0.00  0.00    -0.279 N 
ATOM     17  C   UNL     1       0.145  -8.110   3.238  0.00  0.00    +0.222 C 
ATOM     18  O   UNL     1       0.785  -7.199   3.718  0.00  0.00    -0.275 OA
ATOM     19  H   UNL     1      -1.278  -8.588   1.892  0.00  0.00    +0.155 HD
BRANCH  17  20
ATOM     20  C   UNL     1       0.367  -9.522   3.716  0.00  0.00    +0.131 C 
BRANCH  20  21
ATOM     21  C   UNL     1       1.429  -9.529   4.785  0.00  0.00    -0.038 A 
ATOM     22  C   UNL     1       2.759  -9.677   4.438  0.00  0.00    +0.006 A 
ATOM     23  C   UNL     1       3.733  -9.683   5.419  0.00  0.00    +0.033 A 
ATOM     24  C   UNL     1       3.377  -9.541   6.747  0.00  0.00    +0.126 A 
ATOM     25  C   UNL     1       2.047  -9.392   7.094  0.00  0.00    +0.033 A 
ATOM     26  C   UNL     1       1.074  -9.381   6.113  0.00  0.00    +0.006 A 
BRANCH  24  27
ATOM     27  N   UNL     1       4.420  -9.549   7.798  0.00  0.00    +0.056 N 
ATOM     28  O   UNL     1       5.583  -9.680   7.494  0.00  0.00    -0.126 OA
ATOM     29  O   UNL     1       4.109  -9.424   8.959  0.00  0.00    -0.126 OA
ENDBRANCH  24  27
ENDBRANCH  20  21
ENDBRANCH  17  20
ENDBRANCH   7  16
BRANCH   1  30
ATOM     30  C   UNL     1      -1.433  -0.534   0.013  0.00  0.00    -0.079 C 
BRANCH  30  32
ATOM     31  C   UNL     1      -0.019   1.526   0.010  0.00  0.00    +0.002 C 
ATOM     32  C   UNL     1       0.002  -0.004   0.002  0.00  0.00    -0.022 C 
ENDBRANCH  30  32
ENDBRANCH   1  30
TORSDOF 7
