REMARK  Name = ZINC63473051
REMARK  7 active torsions:
REMARK  status: ('A' for Active; 'I' for Inactive)
REMARK    1  A    between atoms: C_1  and  C_2
REMARK    2  A    between atoms: C_5  and  N_8
REMARK    3  A    between atoms: C_13  and  C_34
REMARK    4  A    between atoms: C_16  and  C_21
REMARK    5  A    between atoms: C_16  and  C_31
REMARK    6  A    between atoms: C_21  and  C_22
REMARK    7  A    between atoms: C_39  and  O_40
REMARK                            x       y       z     vdW  Elec       q    Type
REMARK                         _______ _______ _______ _____ _____    ______ ____
ROOT
ATOM      1  N   UNL     1       0.144  -4.262   0.032  0.00  0.00    -0.210 N 
ATOM      2  C   UNL     1       0.258  -5.026  -1.103  0.00  0.00    +0.229 C 
ATOM      3  O   UNL     1       0.565  -4.657  -2.216  0.00  0.00    -0.275 OA
ATOM      4  C   UNL     1      -0.068  -6.366  -0.675  0.00  0.00    +0.077 C 
ATOM      5  C   UNL     1       0.095  -7.760  -1.111  0.00  0.00    -0.023 C 
ATOM      6  N   UNL     1      -0.125  -8.567   0.135  0.00  0.00    +0.396 N 
ATOM      7  C   UNL     1      -0.284  -7.604   1.273  0.00  0.00    +0.052 C 
ATOM      8  C   UNL     1       0.537  -6.391   0.785  0.00  0.00    +0.086 C 
ATOM      9  C   UNL     1       0.068  -5.014   1.170  0.00  0.00    +0.229 C 
ATOM     10  O   UNL     1      -0.303  -4.649   2.264  0.00  0.00    -0.275 OA
ATOM     11  H   UNL     1      -0.960  -9.124   0.038  0.00  0.00    -0.083 HD
ATOM     12  H   UNL     1       0.671  -9.165   0.300  0.00  0.00    -0.083 HD
ENDROOT
BRANCH   1  17
ATOM     13  C   UNL     1       0.020   1.412   0.003  0.00  0.00    +0.044 C 
ATOM     14  C   UNL     1       0.053  -0.095   0.011  0.00  0.00    -0.050 A 
ATOM     15  C   UNL     1       0.166  -0.788  -1.180  0.00  0.00    +0.005 A 
ATOM     16  C   UNL     1       0.196  -2.169  -1.176  0.00  0.00    +0.024 A 
ATOM     17  C   UNL     1       0.114  -2.861   0.025  0.00  0.00    +0.044 A 
ATOM     18  C   UNL     1       0.001  -2.161   1.219  0.00  0.00    +0.024 A 
ATOM     19  C   UNL     1      -0.024  -0.780   1.209  0.00  0.00    +0.005 A 
ENDBRANCH   1  17
BRANCH   5  20
ATOM     20  C   UNL     1       1.484  -7.986  -1.650  0.00  0.00    -0.019 A 
ATOM     21  C   UNL     1       2.489  -8.425  -0.809  0.00  0.00    +0.005 A 
ATOM     22  C   UNL     1       3.764  -8.631  -1.302  0.00  0.00    +0.000 A 
ATOM     23  C   UNL     1       4.037  -8.399  -2.638  0.00  0.00    +0.004 A 
ATOM     24  C   UNL     1       3.036  -7.960  -3.482  0.00  0.00    +0.045 A 
ATOM     25  C   UNL     1       1.754  -7.757  -2.991  0.00  0.00    +0.118 A 
BRANCH  25  26
ATOM     26  O   UNL     1       0.767  -7.331  -3.821  0.00  0.00    -0.507 OA
ATOM     27  H   UNL     1       0.688  -6.369  -3.877  0.00  0.00    +0.292 HD
ENDBRANCH  25  26
ENDBRANCH   5  20
BRANCH   7  28
ATOM     28  C   UNL     1       0.311  -8.168   2.537  0.00  0.00    +0.347 C 
ATOM     29  O   UNL     1       0.806  -9.283   2.533  0.00  0.00    -0.248 OA
ATOM     30  O   UNL     1       0.298  -7.511   3.563  0.00  0.00    -0.248 OA
ENDBRANCH   7  28
BRANCH   7  31
ATOM     31  C   UNL     1      -1.757  -7.246   1.478  0.00  0.00    +0.033 C 
BRANCH  31  32
ATOM     32  C   UNL     1      -2.520  -8.477   1.893  0.00  0.00    -0.042 C 
ATOM     33  C   UNL     1      -2.795  -8.877   3.156  0.00  0.00    -0.001 A 
ATOM     34  C   UNL     1      -2.475  -8.307   4.471  0.00  0.00    +0.010 A 
ATOM     35  C   UNL     1      -2.895  -8.951   5.584  0.00  0.00    +0.001 A 
ATOM     36  C   UNL     1      -3.624 -10.146   5.513  0.00  0.00    +0.002 A 
ATOM     37  C   UNL     1      -3.955 -10.730   4.342  0.00  0.00    +0.026 A 
ATOM     38  C   UNL     1      -3.566 -10.139   3.109  0.00  0.00    +0.043 A 
ATOM     39  N   UNL     1      -3.762 -10.506   1.865  0.00  0.00    -0.380 N 
ATOM     40  C   UNL     1      -3.140  -9.513   0.982  0.00  0.00    +0.144 C 
ATOM     41  H   UNL     1      -4.240 -11.299   1.577  0.00  0.00    +0.160 HD
ENDBRANCH  31  32
ENDBRANCH   7  31
TORSDOF 6
