REMARK  Name = ZINC45583546
REMARK  6 active torsions:
REMARK  status: ('A' for Active; 'I' for Inactive)
REMARK    1  A    between atoms: C_4  and  N_6
REMARK    2  A    between atoms: C_7  and  S_11
REMARK    3  A    between atoms: S_11  and  C_12
REMARK    4  A    between atoms: C_12  and  C_13
REMARK    5  A    between atoms: C_13  and  C_15
REMARK    6  A    between atoms: C_13  and  N_18
REMARK                            x       y       z     vdW  Elec       q    Type
REMARK                         _______ _______ _______ _____ _____    ______ ____
ROOT
ATOM      1  S   UNL     1       2.912  -3.179  -1.140  0.00  0.00    -0.086 S 
ENDROOT
BRANCH   1   3
ATOM      2  N   UNL     1       1.692  -1.613   0.817  0.00  0.00    -0.217 N 
ATOM      3  C   UNL     1       2.263  -2.784   0.450  0.00  0.00    +0.210 A 
ATOM      4  N   UNL     1       2.243  -3.572   1.503  0.00  0.00    -0.102 NA
ATOM      5  N   UNL     1       1.698  -2.974   2.501  0.00  0.00    -0.022 NA
ATOM      6  N   UNL     1       1.343  -1.781   2.168  0.00  0.00    -0.043 NA
BRANCH   2  10
ATOM      7  C   UNL     1      -0.019   1.534   0.011  0.00  0.00    +0.002 C 
ATOM      8  C   UNL     1       1.453   1.995  -0.001  0.00  0.00    +0.002 C 
ATOM      9  C   UNL     1       2.232   0.792   0.586  0.00  0.00    +0.027 C 
ATOM     10  C   UNL     1       1.486  -0.425  -0.014  0.00  0.00    +0.112 C 
ATOM     11  C   UNL     1       0.002  -0.004   0.002  0.00  0.00    +0.027 C 
ENDBRANCH   2  10
ENDBRANCH   1   3
BRANCH   1  12
ATOM     12  C   UNL     1       3.519  -4.879  -0.957  0.00  0.00    +0.070 C 
BRANCH  12  13
ATOM     13  C   UNL     1       4.117  -5.353  -2.283  0.00  0.00    +0.023 C 
BRANCH  13  14
ATOM     14  C   UNL     1       4.509  -6.804  -2.167  0.00  0.00    +0.197 C 
ATOM     15  O   UNL     1       5.667  -7.105  -1.969  0.00  0.00    -0.278 OA
ATOM     16  N   UNL     1       3.573  -7.766  -2.284  0.00  0.00    -0.331 N 
ATOM     17  H   UNL     1       2.647  -7.525  -2.442  0.00  0.00    +0.145 HD
ATOM     18  H   UNL     1       3.825  -8.700  -2.209  0.00  0.00    +0.145 HD
ENDBRANCH  13  14
BRANCH  13  19
ATOM     19  N   UNL     1       5.304  -4.549  -2.600  0.00  0.00    +0.386 N 
ATOM     20  H   UNL     1       5.988  -4.655  -1.866  0.00  0.00    -0.089 HD
ATOM     21  H   UNL     1       5.699  -4.862  -3.475  0.00  0.00    -0.089 HD
ATOM     22  H   UNL     1       5.042  -3.578  -2.678  0.00  0.00    -0.089 HD
ENDBRANCH  13  19
ENDBRANCH  12  13
ENDBRANCH   1  12
TORSDOF 6
