REMARK  Name = ZINC67196477
REMARK  9 active torsions:
REMARK  status: ('A' for Active; 'I' for Inactive)
REMARK    1  A    between atoms: C_1  and  C_2
REMARK    2  A    between atoms: C_6  and  C_8
REMARK    3  A    between atoms: N_10  and  C_11
REMARK    4  A    between atoms: C_11  and  C_12
REMARK    5  A    between atoms: N_14  and  N_15
REMARK    6  A    between atoms: N_15  and  C_16
REMARK    7  A    between atoms: C_16  and  N_18
REMARK    8  A    between atoms: N_18  and  C_19
REMARK    9  A    between atoms: C_23  and  C_25
REMARK                            x       y       z     vdW  Elec       q    Type
REMARK                         _______ _______ _______ _____ _____    ______ ____
ROOT
ATOM      1  C   UNL     1       0.146  -6.484   3.358  0.00  0.00    +0.246 C 
ATOM      2  O   UNL     1       0.497  -6.857   2.259  0.00  0.00    -0.273 OA
ATOM      3  N   UNL     1       0.143  -7.347   4.393  0.00  0.00    -0.234 N 
ATOM      4  H   UNL     1      -0.138  -7.049   5.272  0.00  0.00    +0.173 HD
ENDROOT
BRANCH   3   5
ATOM      5  N   UNL     1       0.547  -8.675   4.199  0.00  0.00    -0.246 N 
ATOM      6  H   UNL     1       0.828  -8.973   3.320  0.00  0.00    +0.172 HD
BRANCH   5   7
ATOM      7  C   UNL     1       0.544  -9.538   5.234  0.00  0.00    +0.151 C 
ATOM      8  S   UNL     1       1.037 -11.160   4.997  0.00  0.00    -0.017 S 
BRANCH   7   9
ATOM      9  N   UNL     1       0.153  -9.124   6.456  0.00  0.00    -0.296 N 
ATOM     10  H   UNL     1      -0.066  -8.191   6.605  0.00  0.00    +0.154 HD
BRANCH   9  11
ATOM     11  C   UNL     1       0.065 -10.040   7.510  0.00  0.00    +0.034 A 
ATOM     12  C   UNL     1       1.093 -10.949   7.729  0.00  0.00    +0.023 A 
ATOM     13  C   UNL     1       1.010 -11.856   8.768  0.00  0.00    +0.003 A 
ATOM     14  C   UNL     1      -0.094 -11.864   9.597  0.00  0.00    +0.017 A 
ATOM     15  C   UNL     1      -1.131 -10.954   9.386  0.00  0.00    +0.026 A 
ATOM     16  C   UNL     1      -1.046 -10.036   8.339  0.00  0.00    +0.040 A 
BRANCH  15  17
ATOM     17  C   UNL     1      -2.278 -10.961  10.243  0.00  0.00    -0.070 C 
ATOM     18  C   UNL     1      -3.218 -10.966  10.947  0.00  0.00    +0.009 C 
ENDBRANCH  15  17
ENDBRANCH   9  11
ENDBRANCH   7   9
ENDBRANCH   5   7
ENDBRANCH   3   5
BRANCH   1  19
ATOM     19  C   UNL     1      -0.288  -5.056   3.566  0.00  0.00    +0.202 C 
BRANCH  19  22
ATOM     20  C   UNL     1      -0.536  -3.025   2.244  0.00  0.00    +0.244 C 
ATOM     21  O   UNL     1      -0.919  -2.454   3.247  0.00  0.00    -0.270 OA
ATOM     22  N   UNL     1      -0.196  -4.328   2.299  0.00  0.00    -0.303 N 
ATOM     23  H   UNL     1       0.110  -4.783   1.499  0.00  0.00    +0.150 HD
BRANCH  20  29
ATOM     24  C   UNL     1      -1.086   1.197  -0.359  0.00  0.00    +0.044 C 
ATOM     25  C   UNL     1      -0.707  -0.260  -0.293  0.00  0.00    -0.050 A 
ATOM     26  C   UNL     1      -0.270  -0.913  -1.432  0.00  0.00    +0.003 A 
ATOM     27  C   UNL     1       0.080  -2.250  -1.379  0.00  0.00    +0.001 A 
ATOM     28  C   UNL     1      -0.004  -2.942  -0.188  0.00  0.00    +0.013 A 
ATOM     29  C   UNL     1      -0.443  -2.290   0.965  0.00  0.00    +0.037 A 
ATOM     30  C   UNL     1      -0.790  -0.939   0.905  0.00  0.00    +0.016 A 
ENDBRANCH  20  29
ENDBRANCH  19  22
ENDBRANCH   1  19
TORSDOF 8
