REMARK  Name = ZINC23125406
REMARK  9 active torsions:
REMARK  status: ('A' for Active; 'I' for Inactive)
REMARK    1  A    between atoms: C_1  and  C_2
REMARK    2  A    between atoms: C_7  and  C_8
REMARK    3  A    between atoms: C_10  and  C_13
REMARK    4  A    between atoms: C_14  and  N_32
REMARK    5  A    between atoms: N_15  and  C_20
REMARK    6  A    between atoms: N_18  and  C_19
REMARK    7  A    between atoms: C_20  and  C_21
REMARK    8  A    between atoms: N_23  and  C_24
REMARK    9  A    between atoms: C_24  and  C_25
REMARK                            x       y       z     vdW  Elec       q    Type
REMARK                         _______ _______ _______ _____ _____    ______ ____
ROOT
ATOM      1  C   UNL     1       1.306   1.776  -0.001  0.00  0.00    +0.120 A 
ATOM      2  C   UNL     1      -0.016   1.345   0.009  0.00  0.00    +0.129 A 
ATOM      3  N   UNL     1       0.002  -0.004   0.002  0.00  0.00    -0.240 N 
ATOM      4  N   UNL     1       1.334  -0.432  -0.013  0.00  0.00    -0.153 NA
ATOM      5  C   UNL     1       2.120   0.614  -0.015  0.00  0.00    +0.155 A 
ATOM      6  N   UNL     1       3.516   0.591  -0.028  0.00  0.00    -0.330 N 
ATOM      7  C   UNL     1       4.227  -0.690  -0.042  0.00  0.00    +0.127 C 
ATOM      8  H   UNL     1       4.082   1.534  -0.029  0.00  0.00    +0.147 HD
ENDROOT
BRANCH   1  11
ATOM      9  C   UNL     1       2.967   4.929  -0.001  0.00  0.00    +0.203 A 
ATOM     10  N   UNL     1       3.030   3.582  -0.008  0.00  0.00    -0.187 NA
ATOM     11  C   UNL     1       1.772   3.170   0.001  0.00  0.00    +0.265 A 
ATOM     12  O   UNL     1       1.003   4.271   0.008  0.00  0.00    -0.332 OA
ATOM     13  N   UNL     1       1.702   5.262   0.012  0.00  0.00    -0.056 NA
BRANCH   9  20
ATOM     14  C   UNL     1       2.502   7.784   0.016  0.00  0.00    +0.044 C 
ATOM     15  C   UNL     1       3.907   7.239   0.001  0.00  0.00    -0.040 A 
ATOM     16  C   UNL     1       4.984   8.103  -0.005  0.00  0.00    +0.004 A 
ATOM     17  C   UNL     1       6.274   7.604  -0.019  0.00  0.00    +0.000 A 
ATOM     18  C   UNL     1       6.492   6.238  -0.028  0.00  0.00    +0.001 A 
ATOM     19  C   UNL     1       5.423   5.365  -0.017  0.00  0.00    +0.012 A 
ATOM     20  C   UNL     1       4.121   5.863  -0.008  0.00  0.00    +0.025 A 
ENDBRANCH   9  20
ENDBRANCH   1  11
BRANCH   2  21
ATOM     21  N   UNL     1      -1.141   2.150   0.019  0.00  0.00    -0.343 N 
ATOM     22  H   UNL     1      -2.142   1.695   0.027  0.00  0.00    +0.144 HD
ATOM     23  H   UNL     1      -1.034   3.244   0.020  0.00  0.00    +0.144 HD
ENDBRANCH   2  21
BRANCH   3  24
ATOM     24  C   UNL     1      -1.176  -0.875   0.009  0.00  0.00    +0.241 C 
BRANCH  24  25
ATOM     25  C   UNL     1      -1.594  -1.166  -1.409  0.00  0.00    +0.235 C 
ATOM     26  O   UNL     1      -0.969  -0.693  -2.335  0.00  0.00    -0.274 OA
ATOM     27  N   UNL     1      -2.662  -1.953  -1.649  0.00  0.00    -0.310 N 
ATOM     28  H   UNL     1      -3.228  -2.382  -0.810  0.00  0.00    +0.149 HD
BRANCH  27  29
ATOM     29  C   UNL     1      -3.068  -2.236  -3.028  0.00  0.00    +0.141 C 
BRANCH  29  30
ATOM     30  C   UNL     1      -4.280  -3.132  -3.021  0.00  0.00    -0.012 A 
ATOM     31  C   UNL     1      -4.137  -4.489  -3.243  0.00  0.00    +0.006 A 
ATOM     32  C   UNL     1      -5.248  -5.311  -3.232  0.00  0.00    +0.000 A 
ATOM     33  C   UNL     1      -6.503  -4.776  -3.009  0.00  0.00    +0.001 A 
ATOM     34  C   UNL     1      -6.647  -3.419  -2.792  0.00  0.00    +0.020 A 
ATOM     35  C   UNL     1      -5.535  -2.596  -2.797  0.00  0.00    +0.046 A 
ATOM     36 CL   UNL     1      -5.715  -0.891  -2.525  0.00  0.00    -0.083 Cl
ENDBRANCH  29  30
ENDBRANCH  27  29
ENDBRANCH  24  25
ENDBRANCH   3  24
TORSDOF 7
