REMARK  Name = ZINC51170359
REMARK  7 active torsions:
REMARK  status: ('A' for Active; 'I' for Inactive)
REMARK    1  A    between atoms: C_1  and  C_2
REMARK    2  A    between atoms: C_2  and  C_3
REMARK    3  A    between atoms: C_2  and  C_4
REMARK    4  A    between atoms: C_6  and  N_17
REMARK    5  A    between atoms: C_11  and  O_14
REMARK    6  A    between atoms: O_14  and  C_15
REMARK    7  A    between atoms: N_17  and  N_18
REMARK                            x       y       z     vdW  Elec       q    Type
REMARK                         _______ _______ _______ _____ _____    ______ ____
ROOT
ATOM      1  C   UNL     1      -1.421  -0.503  -0.023  0.00  0.00    +0.021 A 
ATOM      2  C   UNL     1      -2.393   0.196   0.681  0.00  0.00    +0.046 A 
ATOM      3  C   UNL     1      -3.688  -0.295   0.735  0.00  0.00    +0.053 A 
ATOM      4  C   UNL     1      -3.964  -1.508   0.060  0.00  0.00    +0.038 A 
ATOM      5  C   UNL     1      -5.250  -2.071   0.067  0.00  0.00    +0.029 A 
ATOM      6  C   UNL     1      -5.479  -3.240  -0.595  0.00  0.00    +0.019 A 
ATOM      7  C   UNL     1      -4.454  -3.886  -1.280  0.00  0.00    +0.049 A 
ATOM      8  C   UNL     1      -3.191  -3.367  -1.308  0.00  0.00    +0.144 A 
ATOM      9  C   UNL     1      -2.918  -2.159  -0.634  0.00  0.00    +0.092 A 
ATOM     10  N   UNL     1      -1.692  -1.624  -0.649  0.00  0.00    -0.355 N 
ATOM     11 BR   UNL     1      -6.657  -1.211   0.992  0.00  0.00    -0.050 Br
ATOM     12  H   UNL     1      -0.984  -2.078  -1.132  0.00  0.00    +0.166 HD
ENDROOT
BRANCH   1  14
ATOM     13  C   UNL     1      -0.068   1.573  -0.105  0.00  0.00    +0.013 C 
ATOM     14  C   UNL     1      -0.018   0.044  -0.074  0.00  0.00    +0.029 C 
ATOM     15  C   UNL     1       0.754  -0.415   1.165  0.00  0.00    +0.013 C 
ENDBRANCH   1  14
BRANCH   8  16
ATOM     16  O   UNL     1      -2.202  -4.012  -1.981  0.00  0.00    -0.493 OA
ATOM     17  C   UNL     1      -2.554  -5.231  -2.639  0.00  0.00    +0.277 C 
ENDBRANCH   8  16
BRANCH   3  18
ATOM     18  N   UNL     1      -4.681   0.379   1.430  0.00  0.00    -0.282 N 
ATOM     19  H   UNL     1      -5.601   0.080   1.373  0.00  0.00    +0.166 HD
BRANCH  18  20
ATOM     20  N   UNL     1      -4.362   1.466   2.194  0.00  0.00    -0.256 NA
ATOM     21  H   UNL     1      -3.886   2.166   1.645  0.00  0.00    +0.140 HD
ATOM     22  H   UNL     1      -5.183   1.850   2.636  0.00  0.00    +0.140 HD
ENDBRANCH  18  20
ENDBRANCH   3  18
TORSDOF 4
