REMARK  Name = ZINC39631496
REMARK  11 active torsions:
REMARK  status: ('A' for Active; 'I' for Inactive)
REMARK    1  A    between atoms: C_1  and  C_2
REMARK    2  A    between atoms: C_2  and  C_4
REMARK    3  A    between atoms: C_2  and  N_11
REMARK    4  A    between atoms: C_4  and  C_5
REMARK    5  A    between atoms: C_5  and  C_6
REMARK    6  A    between atoms: C_6  and  C_7
REMARK    7  A    between atoms: C_7  and  C_8
REMARK    8  A    between atoms: C_7  and  C_9
REMARK    9  A    between atoms: C_7  and  O_10
REMARK   10  A    between atoms: C_12  and  C_14
REMARK   11  A    between atoms: C_25  and  C_27
REMARK                            x       y       z     vdW  Elec       q    Type
REMARK                         _______ _______ _______ _____ _____    ______ ____
ROOT
ATOM      1  C   UNL     1      -4.048  -1.425  -0.875  0.00  0.00    +0.100 C 
ATOM      2  C   UNL     1      -4.680  -0.289  -0.038  0.00  0.00    +0.121 C 
ATOM      3  N   UNL     1      -5.233   0.651  -1.040  0.00  0.00    -0.296 N 
ATOM      4  C   UNL     1      -5.800  -0.224  -2.094  0.00  0.00    +0.115 C 
ATOM      5  C   UNL     1      -4.789  -1.380  -2.222  0.00  0.00    -0.004 C 
ATOM      6  C   UNL     1      -5.521  -2.697  -2.466  0.00  0.00    -0.010 C 
ATOM      7  C   UNL     1      -6.201  -2.651  -3.837  0.00  0.00    -0.082 C 
ATOM      8  N   UNL     1      -5.191  -2.428  -4.879  0.00  0.00    +0.379 N 
ATOM      9  C   UNL     1      -4.557  -1.118  -4.691  0.00  0.00    -0.082 C 
ATOM     10  C   UNL     1      -3.807  -1.099  -3.355  0.00  0.00    -0.010 C 
ATOM     11  C   UNL     1      -5.223   1.999  -1.002  0.00  0.00    +0.247 C 
ATOM     12  O   UNL     1      -4.609   2.578  -0.127  0.00  0.00    -0.270 OA
ATOM     13  H   UNL     1      -4.489  -3.151  -4.825  0.00  0.00    -0.086 HD
ATOM     14  H   UNL     1      -5.633  -2.459  -5.786  0.00  0.00    -0.086 HD
ENDROOT
BRANCH  11  15
ATOM     15  C   UNL     1      -5.960   2.772  -2.023  0.00  0.00    +0.037 A 
ATOM     16  C   UNL     1      -6.994   2.173  -2.745  0.00  0.00    +0.014 A 
ATOM     17  C   UNL     1      -7.678   2.900  -3.697  0.00  0.00    +0.016 A 
ATOM     18  C   UNL     1      -7.340   4.222  -3.937  0.00  0.00    +0.018 A 
ATOM     19  C   UNL     1      -6.316   4.821  -3.224  0.00  0.00    +0.016 A 
ATOM     20  C   UNL     1      -5.628   4.106  -2.266  0.00  0.00    +0.014 A 
ATOM     21 BR   UNL     1      -8.282   5.211  -5.245  0.00  0.00    -0.050 Br
ENDBRANCH  11  15
BRANCH   1  23
ATOM     22  N   UNL     1      -1.742  -2.203  -1.312  0.00  0.00    -0.312 N 
ATOM     23  C   UNL     1      -2.576  -1.172  -1.076  0.00  0.00    +0.218 C 
ATOM     24  O   UNL     1      -2.143  -0.040  -1.027  0.00  0.00    -0.275 OA
ATOM     25  H   UNL     1      -2.088  -3.108  -1.351  0.00  0.00    +0.149 HD
BRANCH  22  27
ATOM     26  C   UNL     1       0.387  -1.894  -0.148  0.00  0.00    +0.028 C 
ATOM     27  C   UNL     1      -0.311  -1.957  -1.508  0.00  0.00    +0.070 C 
BRANCH  27  28
ATOM     28  C   UNL     1       0.293  -3.092  -2.338  0.00  0.00    +0.022 C 
BRANCH  28  29
ATOM     29  C   UNL     1      -0.317  -3.077  -3.741  0.00  0.00    +0.005 C 
BRANCH  29  30
ATOM     30  C   UNL     1       0.287  -4.212  -4.572  0.00  0.00    +0.034 C 
BRANCH  30  31
ATOM     31  C   UNL     1      -0.323  -4.196  -5.975  0.00  0.00    +0.061 C 
ATOM     32  C   UNL     1       0.186  -5.404  -6.765  0.00  0.00    +0.041 C 
ATOM     33  C   UNL     1      -1.847  -4.262  -5.870  0.00  0.00    +0.041 C 
BRANCH  31  34
ATOM     34  O   UNL     1       0.057  -2.994  -6.646  0.00  0.00    -0.389 OA
ATOM     35  H   UNL     1       1.013  -2.885  -6.749  0.00  0.00    +0.210 HD
ENDBRANCH  31  34
ENDBRANCH  30  31
ENDBRANCH  29  30
ENDBRANCH  28  29
ENDBRANCH  27  28
ENDBRANCH  22  27
ENDBRANCH   1  23
TORSDOF 8
