REMARK  Name = ZINC41729941
REMARK  10 active torsions:
REMARK  status: ('A' for Active; 'I' for Inactive)
REMARK    1  A    between atoms: C_1  and  C_2
REMARK    2  A    between atoms: C_5  and  C_7
REMARK    3  A    between atoms: C_10  and  N_13
REMARK    4  A    between atoms: C_14  and  C_16
REMARK    5  A    between atoms: N_18  and  C_19
REMARK    6  A    between atoms: C_19  and  C_20
REMARK    7  A    between atoms: C_20  and  C_21
REMARK    8  A    between atoms: C_21  and  N_22
REMARK    9  A    between atoms: C_24  and  C_31
REMARK   10  A    between atoms: C_27  and  C_30
REMARK                            x       y       z     vdW  Elec       q    Type
REMARK                         _______ _______ _______ _____ _____    ______ ____
ROOT
ATOM      1  N   UNL     1       4.061  -6.602  -0.058  0.00  0.00    -0.278 N 
ATOM      2  C   UNL     1       5.396  -6.453  -0.160  0.00  0.00    +0.303 C 
ATOM      3  O   UNL     1       5.886  -5.342  -0.151  0.00  0.00    -0.265 OA
ATOM      4  H   UNL     1       3.676  -7.489   0.013  0.00  0.00    +0.155 HD
ENDROOT
BRANCH   1   8
ATOM      5  C   UNL     1       1.585  -3.250  -0.045  0.00  0.00    +0.019 A 
ATOM      6  C   UNL     1       2.761  -3.248  -0.798  0.00  0.00    +0.013 A 
ATOM      7  C   UNL     1       3.578  -4.357  -0.799  0.00  0.00    +0.024 A 
ATOM      8  C   UNL     1       3.231  -5.479  -0.053  0.00  0.00    +0.034 A 
ATOM      9  C   UNL     1       2.061  -5.484   0.698  0.00  0.00    +0.024 A 
ATOM     10  C   UNL     1       1.243  -4.375   0.708  0.00  0.00    +0.013 A 
BRANCH   5  15
ATOM     11  C   UNL     1      -2.212  -0.120   0.925  0.00  0.00    +0.107 C 
ATOM     12  C   UNL     1      -0.934  -0.696   0.372  0.00  0.00    +0.172 A 
ATOM     13  N   UNL     1      -0.119  -0.087  -0.442  0.00  0.00    -0.333 N 
ATOM     14  C   UNL     1       0.909  -0.902  -0.720  0.00  0.00    +0.132 A 
ATOM     15  C   UNL     1       0.707  -2.061  -0.041  0.00  0.00    +0.153 A 
ATOM     16  O   UNL     1      -0.450  -1.916   0.643  0.00  0.00    -0.442 OA
ATOM     17  H   UNL     1      -0.237   0.811  -0.791  0.00  0.00    +0.168 HD
ENDBRANCH   5  15
ENDBRANCH   1   8
BRANCH   2  18
ATOM     18  C   UNL     1       6.274  -7.654  -0.283  0.00  0.00    +0.299 C 
ATOM     19  O   UNL     1       5.785  -8.765  -0.292  0.00  0.00    -0.265 OA
ATOM     20  N   UNL     1       7.610  -7.505  -0.385  0.00  0.00    -0.308 N 
ATOM     21  H   UNL     1       8.001  -6.618  -0.378  0.00  0.00    +0.149 HD
BRANCH  20  22
ATOM     22  C   UNL     1       8.471  -8.684  -0.506  0.00  0.00    +0.103 C 
BRANCH  22  23
ATOM     23  C   UNL     1       9.932  -8.240  -0.605  0.00  0.00    +0.000 C 
BRANCH  23  24
ATOM     24  C   UNL     1      10.832  -9.471  -0.732  0.00  0.00    -0.077 C 
BRANCH  24  25
ATOM     25  N   UNL     1      12.234  -9.045  -0.827  0.00  0.00    +0.380 N 
ATOM     26  C   UNL     1      12.632  -8.391   0.425  0.00  0.00    -0.076 C 
ATOM     27  C   UNL     1      14.066  -7.873   0.302  0.00  0.00    -0.031 C 
ATOM     28  C   UNL     1      15.005  -9.049   0.018  0.00  0.00    +0.003 C 
ATOM     29  C   UNL     1      14.537  -9.770  -1.249  0.00  0.00    -0.031 C 
ATOM     30  C   UNL     1      13.085 -10.217  -1.069  0.00  0.00    -0.076 C 
ATOM     31  C   UNL     1      15.422 -10.992  -1.499  0.00  0.00    +0.005 C 
ATOM     32  C   UNL     1      14.149  -6.865  -0.846  0.00  0.00    +0.005 C 
ATOM     33  H   UNL     1      12.336  -8.394  -1.591  0.00  0.00    -0.082 HD
ENDBRANCH  24  25
ENDBRANCH  23  24
ENDBRANCH  22  23
ENDBRANCH  20  22
ENDBRANCH   2  18
TORSDOF 7
