REMARK  Name = ZINC65305995
REMARK  8 active torsions:
REMARK  status: ('A' for Active; 'I' for Inactive)
REMARK    1  A    between atoms: C_1  and  C_2
REMARK    2  A    between atoms: C_2  and  C_3
REMARK    3  A    between atoms: C_3  and  C_5
REMARK    4  A    between atoms: C_3  and  C_6
REMARK    5  A    between atoms: C_6  and  C_8
REMARK    6  A    between atoms: C_6  and  N_20
REMARK    7  A    between atoms: N_10  and  C_11
REMARK    8  A    between atoms: C_21  and  C_23
REMARK                            x       y       z     vdW  Elec       q    Type
REMARK                         _______ _______ _______ _____ _____    ______ ____
ROOT
ATOM      1  C   UNL     1      -0.175  -0.219  -2.609  0.00  0.00    +0.162 C 
ENDROOT
BRANCH   1   2
ATOM      2  C   UNL     1      -0.209   1.268  -2.851  0.00  0.00    +0.236 C 
ATOM      3  O   UNL     1       0.282   1.729  -3.860  0.00  0.00    -0.274 OA
ATOM      4  N   UNL     1      -0.784   2.085  -1.947  0.00  0.00    -0.277 N 
ATOM      5  H   UNL     1      -1.106   1.727  -1.105  0.00  0.00    +0.152 HD
BRANCH   4   6
ATOM      6  C   UNL     1      -0.923   3.515  -2.235  0.00  0.00    +0.269 C 
ATOM      7  N   UNL     1       0.361   4.197  -2.029  0.00  0.00    -0.348 N 
ATOM      8  C   UNL     1       0.183   5.089  -1.097  0.00  0.00    +0.061 A 
ATOM      9  C   UNL     1       1.081   6.066  -0.466  0.00  0.00    +0.027 A 
ATOM     10  C   UNL     1       0.605   6.881   0.497  0.00  0.00    +0.002 A 
ATOM     11  C   UNL     1      -0.731   6.839   0.934  0.00  0.00    +0.002 A 
ATOM     12  C   UNL     1      -1.636   5.981   0.422  0.00  0.00    +0.027 A 
ATOM     13  C   UNL     1      -1.231   5.045  -0.635  0.00  0.00    +0.061 A 
ATOM     14  N   UNL     1      -1.873   4.128  -1.299  0.00  0.00    -0.348 N 
ATOM     15  H   UNL     1       1.189   4.017  -2.500  0.00  0.00    +0.163 HD
ATOM     16  H   UNL     1      -2.808   3.893  -1.194  0.00  0.00    +0.163 HD
ENDBRANCH   4   6
ENDBRANCH   1   2
BRANCH   1  17
ATOM     17  N   UNL     1       0.043  -0.916  -3.879  0.00  0.00    -0.300 N 
ATOM     18  C   UNL     1      -0.375  -2.188  -4.031  0.00  0.00    +0.245 C 
ATOM     19  O   UNL     1      -0.933  -2.758  -3.114  0.00  0.00    -0.270 OA
ATOM     20  H   UNL     1       0.489  -0.461  -4.611  0.00  0.00    +0.150 HD
BRANCH  18  21
ATOM     21  C   UNL     1      -0.154  -2.890  -5.312  0.00  0.00    +0.040 A 
ATOM     22  C   UNL     1       0.492  -2.240  -6.365  0.00  0.00    +0.016 A 
ATOM     23  C   UNL     1       0.696  -2.899  -7.559  0.00  0.00    +0.042 A 
ATOM     24  C   UNL     1       0.260  -4.206  -7.715  0.00  0.00    +0.158 A 
ATOM     25  C   UNL     1      -0.383  -4.858  -6.672  0.00  0.00    +0.159 A 
ATOM     26  C   UNL     1      -0.587  -4.209  -5.471  0.00  0.00    +0.054 A 
ATOM     27  F   UNL     1      -0.806  -6.131  -6.831  0.00  0.00    -0.202 F 
ATOM     28  F   UNL     1       0.463  -4.847  -8.887  0.00  0.00    -0.202 F 
ENDBRANCH  18  21
ENDBRANCH   1  17
BRANCH   1  29
ATOM     29  C   UNL     1       0.962  -0.553  -1.642  0.00  0.00    +0.015 C 
ATOM     30  C   UNL     1       2.305  -0.259  -2.313  0.00  0.00    +0.010 C 
BRANCH  29  32
ATOM     31  C   UNL     1      -0.385  -2.300  -0.467  0.00  0.00    +0.004 C 
ATOM     32  C   UNL     1       0.893  -2.035  -1.266  0.00  0.00    +0.002 C 
ENDBRANCH  29  32
ENDBRANCH   1  29
TORSDOF 6
