REMARK  Name = ZINC16193287
REMARK  10 active torsions:
REMARK  status: ('A' for Active; 'I' for Inactive)
REMARK    1  A    between atoms: C_1  and  C_2
REMARK    2  A    between atoms: C_2  and  O_3
REMARK    3  A    between atoms: O_3  and  C_4
REMARK    4  A    between atoms: C_7  and  N_10
REMARK    5  A    between atoms: C_11  and  C_13
REMARK    6  A    between atoms: C_17  and  N_18
REMARK    7  A    between atoms: C_19  and  C_21
REMARK    8  A    between atoms: C_21  and  N_59
REMARK    9  A    between atoms: C_22  and  C_23
REMARK   10  A    between atoms: C_22  and  N_59
REMARK                            x       y       z     vdW  Elec       q    Type
REMARK                         _______ _______ _______ _____ _____    ______ ____
ROOT
ATOM      1  C   UNL     1      -0.179   1.447   0.024  0.00  0.00    +0.069 A 
ATOM      2  C   UNL     1       1.053   2.214   0.206  0.00  0.00    -0.023 A 
ATOM      3  C   UNL     1       0.898   3.550   0.207  0.00  0.00    -0.004 A 
ATOM      4  S   UNL     1      -0.844   3.804  -0.025  0.00  0.00    -0.077 S 
ATOM      5  C   UNL     1      -1.359   2.155  -0.131  0.00  0.00    +0.084 A 
ATOM      6  C   UNL     1       2.207   4.269   0.394  0.00  0.00    +0.043 C 
ATOM      7  C   UNL     1       3.283   3.206   0.083  0.00  0.00    +0.010 C 
ATOM      8  C   UNL     1       2.535   1.897   0.407  0.00  0.00    +0.037 C 
ENDROOT
BRANCH   1  10
ATOM      9  N   UNL     1       0.000  -0.672  -1.169  0.00  0.00    -0.281 N 
ATOM     10  C   UNL     1      -0.165  -0.019  -0.001  0.00  0.00    +0.251 C 
ATOM     11  O   UNL     1      -0.301  -0.646   1.033  0.00  0.00    -0.270 OA
ATOM     12  H   UNL     1       0.032  -0.175  -2.002  0.00  0.00    +0.155 HD
BRANCH   9  16
ATOM     13  C   UNL     1       0.371  -4.824  -1.202  0.00  0.00    +0.121 A 
ATOM     14  C   UNL     1      -0.254  -4.176  -2.257  0.00  0.00    +0.047 A 
ATOM     15  C   UNL     1      -0.377  -2.800  -2.247  0.00  0.00    +0.027 A 
ATOM     16  C   UNL     1       0.125  -2.067  -1.180  0.00  0.00    +0.034 A 
ATOM     17  C   UNL     1       0.755  -2.716  -0.127  0.00  0.00    +0.027 A 
ATOM     18  C   UNL     1       0.873  -4.092  -0.136  0.00  0.00    +0.047 A 
BRANCH  13  19
ATOM     19  O   UNL     1       0.492  -6.179  -1.212  0.00  0.00    -0.492 OA
BRANCH  19  21
ATOM     20  C   UNL     1       1.188  -8.298  -0.282  0.00  0.00    +0.048 C 
ATOM     21  C   UNL     1       1.147  -6.780  -0.094  0.00  0.00    +0.225 C 
ENDBRANCH  19  21
ENDBRANCH  13  19
ENDBRANCH   9  16
ENDBRANCH   1  10
BRANCH   5  22
ATOM     22  N   UNL     1      -2.641   1.663  -0.321  0.00  0.00    -0.281 N 
ATOM     23  C   UNL     1      -3.677   2.515  -0.452  0.00  0.00    +0.201 C 
ATOM     24  O   UNL     1      -3.488   3.712  -0.403  0.00  0.00    -0.278 OA
ATOM     25  H   UNL     1      -2.792   0.706  -0.360  0.00  0.00    +0.155 HD
BRANCH  23  26
ATOM     26  C   UNL     1      -5.071   1.980  -0.659  0.00  0.00    +0.015 C 
BRANCH  26  27
ATOM     27  N   UNL     1      -6.011   3.111  -0.772  0.00  0.00    +0.386 N 
ATOM     28  H   UNL     1      -5.740   3.698  -1.569  0.00  0.00    -0.085 HD
ATOM     29  H   UNL     1      -5.976   3.668   0.090  0.00  0.00    -0.085 HD
BRANCH  27  30
ATOM     30  C   UNL     1      -7.385   2.616  -0.975  0.00  0.00    -0.050 C 
BRANCH  30  31
ATOM     31  C   UNL     1      -8.336   3.809  -1.088  0.00  0.00    +0.101 C 
ATOM     32  C   UNL     1      -9.800   3.324  -1.177  0.00  0.00    +0.032 C 
ATOM     33  C   UNL     1     -10.462   4.305  -2.170  0.00  0.00    +0.030 C 
ATOM     34  C   UNL     1      -9.319   5.268  -2.563  0.00  0.00    +0.160 C 
ATOM     35  O   UNL     1      -8.107   4.519  -2.325  0.00  0.00    -0.378 OA
ENDBRANCH  30  31
ENDBRANCH  27  30
ENDBRANCH  26  27
ENDBRANCH  23  26
ENDBRANCH   5  22
TORSDOF 9
