REMARK  Name = ZINC04222362
REMARK  15 active torsions:
REMARK  status: ('A' for Active; 'I' for Inactive)
REMARK    1  A    between atoms: C_1  and  C_2
REMARK    2  A    between atoms: C_5  and  O_36
REMARK    3  A    between atoms: C_7  and  C_33
REMARK    4  A    between atoms: C_7  and  C_34
REMARK    5  A    between atoms: C_17  and  C_19
REMARK    6  A    between atoms: C_19  and  C_20
REMARK    7  A    between atoms: C_19  and  C_21
REMARK    8  A    between atoms: C_19  and  C_22
REMARK    9  A    between atoms: C_23  and  C_25
REMARK   10  A    between atoms: C_25  and  C_26
REMARK   11  A    between atoms: N_28  and  C_29
REMARK   12  A    between atoms: C_29  and  C_30
REMARK   13  A    between atoms: C_30  and  O_31
REMARK   14  A    between atoms: O_31  and  C_32
REMARK   15  A    between atoms: C_34  and  O_35
REMARK                            x       y       z     vdW  Elec       q    Type
REMARK                         _______ _______ _______ _____ _____    ______ ____
ROOT
ATOM      1  C   UNL     1      -0.422  -1.979  -1.694  0.00  0.00    +0.012 C 
ATOM      2  C   UNL     1      -0.680  -1.895  -0.189  0.00  0.00    -0.019 C 
ATOM      3  C   UNL     1      -1.974  -2.640   0.153  0.00  0.00    +0.010 C 
ATOM      4  C   UNL     1      -1.842  -4.122  -0.190  0.00  0.00    +0.032 C 
ATOM      5  C   UNL     1      -0.697  -4.719   0.634  0.00  0.00    +0.123 C 
ATOM      6  C   UNL     1       0.608  -4.011   0.272  0.00  0.00    +0.021 C 
ATOM      7  C   UNL     1       0.498  -2.512   0.568  0.00  0.00    +0.011 C 
ATOM      8  C   UNL     1       1.805  -1.855   0.083  0.00  0.00    +0.049 C 
ATOM      9  C   UNL     1       1.615  -0.381   0.026  0.00  0.00    +0.015 A 
ATOM     10  C   UNL     1       0.445   0.307   0.072  0.00  0.00    +0.058 A 
ATOM     11  N   UNL     1       0.545   1.633   0.001  0.00  0.00    -0.229 NA
ATOM     12  C   UNL     1       1.706   2.245  -0.106  0.00  0.00    +0.165 A 
ATOM     13  S   UNL     1       2.821   0.911  -0.116  0.00  0.00    -0.057 S 
ATOM     14  N   UNL     1       1.971   3.607  -0.190  0.00  0.00    -0.264 N 
ATOM     15  C   UNL     1       3.243   4.040  -0.296  0.00  0.00    +0.224 C 
ATOM     16  O   UNL     1       4.156   3.241  -0.317  0.00  0.00    -0.275 OA
ATOM     17  C   UNL     1      -0.874  -0.438   0.203  0.00  0.00    +0.054 C 
ATOM     18  C   UNL     1       1.764  -4.604   1.081  0.00  0.00    +0.016 C 
ATOM     19  H   UNL     1       1.241   4.245  -0.173  0.00  0.00    +0.157 HD
ENDROOT
BRANCH  15  20
ATOM     20  C   UNL     1       3.531   5.516  -0.387  0.00  0.00    +0.039 C 
ATOM     21  C   UNL     1       5.041   5.735  -0.497  0.00  0.00    +0.020 C 
ATOM     22  C   UNL     1       2.840   6.095  -1.623  0.00  0.00    +0.020 C 
ATOM     23  C   UNL     1       3.005   6.217   0.867  0.00  0.00    +0.020 C 
ENDBRANCH  15  20
BRANCH   5  24
ATOM     24  O   UNL     1      -0.579  -6.115   0.350  0.00  0.00    -0.391 OA
ATOM     25  H   UNL     1      -1.374  -6.626   0.555  0.00  0.00    +0.210 HD
ENDBRANCH   5  24
BRANCH  17  26
ATOM     26  C   UNL     1      -1.917   0.207  -0.712  0.00  0.00    +0.106 C 
BRANCH  26  27
ATOM     27  C   UNL     1      -2.259   1.580  -0.195  0.00  0.00    +0.214 C 
ATOM     28  O   UNL     1      -1.723   2.001   0.808  0.00  0.00    -0.276 OA
ATOM     29  N   UNL     1      -3.162   2.340  -0.846  0.00  0.00    -0.313 N 
ATOM     30  H   UNL     1      -3.592   2.002  -1.647  0.00  0.00    +0.149 HD
BRANCH  29  31
ATOM     31  C   UNL     1      -3.495   3.675  -0.343  0.00  0.00    +0.132 C 
BRANCH  31  32
ATOM     32  C   UNL     1      -4.538   4.319  -1.258  0.00  0.00    +0.178 C 
BRANCH  32  33
ATOM     33  O   UNL     1      -5.756   3.575  -1.191  0.00  0.00    -0.381 OA
ATOM     34  C   UNL     1      -6.802   4.096  -2.014  0.00  0.00    +0.194 C 
ENDBRANCH  32  33
ENDBRANCH  31  32
ENDBRANCH  29  31
ENDBRANCH  26  27
ENDBRANCH  17  26
BRANCH   6  35
ATOM     35  C   UNL     1       0.882  -4.213  -1.219  0.00  0.00    +0.165 C 
BRANCH  35  36
ATOM     36  O   UNL     1       1.147  -5.595  -1.472  0.00  0.00    -0.394 OA
ATOM     37  H   UNL     1       1.330  -5.797  -2.399  0.00  0.00    +0.209 HD
ENDBRANCH  35  36
ENDBRANCH   6  35
TORSDOF 9
