REMARK  Name = ZINC36570992
REMARK  14 active torsions:
REMARK  status: ('A' for Active; 'I' for Inactive)
REMARK    1  A    between atoms: C_1  and  C_2
REMARK    2  A    between atoms: C_2  and  C_3
REMARK    3  A    between atoms: C_3  and  N_4
REMARK    4  A    between atoms: N_4  and  C_5
REMARK    5  A    between atoms: C_5  and  C_7
REMARK    6  A    between atoms: C_5  and  C_14
REMARK    7  A    between atoms: C_12  and  C_13
REMARK    8  A    between atoms: N_16  and  C_17
REMARK    9  A    between atoms: C_17  and  S_18
REMARK   10  A    between atoms: S_18  and  C_21
REMARK   11  A    between atoms: C_24  and  C_27
REMARK   12  A    between atoms: C_28  and  C_30
REMARK   13  A    between atoms: C_31  and  O_37
REMARK   14  A    between atoms: C_35  and  O_36
REMARK                            x       y       z     vdW  Elec       q    Type
REMARK                         _______ _______ _______ _____ _____    ______ ____
ROOT
ATOM      1  C   UNL     1       0.254  -2.854  -1.820  0.00  0.00    +0.193 C 
ENDROOT
BRANCH   1   2
ATOM      2  C   UNL     1      -0.910  -2.020  -1.351  0.00  0.00    -0.015 A 
ATOM      3  C   UNL     1      -1.421  -1.025  -2.164  0.00  0.00    +0.006 A 
ATOM      4  C   UNL     1      -2.488  -0.260  -1.734  0.00  0.00    +0.000 A 
ATOM      5  C   UNL     1      -3.046  -0.490  -0.490  0.00  0.00    +0.000 A 
ATOM      6  C   UNL     1      -2.536  -1.484   0.323  0.00  0.00    +0.004 A 
ATOM      7  C   UNL     1      -1.471  -2.252  -0.109  0.00  0.00    -0.045 A 
ATOM      8  C   UNL     1      -0.918  -3.341   0.775  0.00  0.00    +0.044 C 
ENDBRANCH   1   2
BRANCH   1   9
ATOM      9  C   UNL     1       0.393  -2.726  -3.315  0.00  0.00    +0.239 C 
ATOM     10  O   UNL     1       1.267  -2.031  -3.786  0.00  0.00    -0.273 OA
ATOM     11  N   UNL     1      -0.456  -3.386  -4.129  0.00  0.00    -0.294 N 
ATOM     12  H   UNL     1      -1.200  -3.882  -3.754  0.00  0.00    +0.150 HD
BRANCH  11  13
ATOM     13  C   UNL     1      -0.253  -3.353  -5.580  0.00  0.00    +0.278 C 
BRANCH  13  14
ATOM     14  S   UNL     1       0.690  -4.816  -6.092  0.00  0.00    +0.013 S 
ATOM     15  O   UNL     1       0.840  -4.831  -7.505  0.00  0.00    -0.168 OA
ATOM     16  O   UNL     1       1.814  -4.995  -5.242  0.00  0.00    -0.168 OA
BRANCH  14  17
ATOM     17  C   UNL     1      -0.365  -6.181  -5.737  0.00  0.00    +0.090 A 
ATOM     18  C   UNL     1      -0.311  -6.793  -4.499  0.00  0.00    +0.027 A 
ATOM     19  C   UNL     1      -1.139  -7.865  -4.221  0.00  0.00    +0.005 A 
ATOM     20  C   UNL     1      -2.021  -8.324  -5.181  0.00  0.00    -0.050 A 
ATOM     21  C   UNL     1      -2.076  -7.712  -6.419  0.00  0.00    +0.005 A 
ATOM     22  C   UNL     1      -1.251  -6.637  -6.695  0.00  0.00    +0.027 A 
ATOM     23  C   UNL     1      -2.922  -9.493  -4.878  0.00  0.00    +0.044 C 
ENDBRANCH  14  17
ENDBRANCH  13  14
ENDBRANCH  11  13
ENDBRANCH   1   9
BRANCH   1  24
ATOM     24  N   UNL     1       1.482  -2.385  -1.174  0.00  0.00    -0.282 N 
ATOM     25  C   UNL     1       2.254  -3.249  -0.486  0.00  0.00    +0.255 C 
ATOM     26  O   UNL     1       1.931  -4.419  -0.402  0.00  0.00    -0.270 OA
BRANCH  25  27
ATOM     27  C   UNL     1       3.489  -2.778   0.163  0.00  0.00    +0.119 A 
ATOM     28  C   UNL     1       3.458  -2.312   1.486  0.00  0.00    +0.133 A 
ATOM     29  C   UNL     1       4.626  -1.872   2.087  0.00  0.00    +0.046 A 
ATOM     30  C   UNL     1       5.819  -1.890   1.388  0.00  0.00    +0.007 A 
ATOM     31  C   UNL     1       5.860  -2.347   0.084  0.00  0.00    +0.046 A 
ATOM     32  C   UNL     1       4.706  -2.798  -0.535  0.00  0.00    +0.133 A 
BRANCH  32  33
ATOM     33  O   UNL     1       4.750  -3.251  -1.812  0.00  0.00    -0.506 OA
ATOM     34  H   UNL     1       4.607  -2.565  -2.479  0.00  0.00    +0.292 HD
ENDBRANCH  32  33
BRANCH  28  35
ATOM     35  O   UNL     1       2.289  -2.293   2.173  0.00  0.00    -0.506 OA
ATOM     36  H   UNL     1       2.108  -3.106   2.665  0.00  0.00    +0.292 HD
ENDBRANCH  28  35
ENDBRANCH  25  27
BRANCH  24  37
ATOM     37  C   UNL     1       1.872  -0.976  -1.276  0.00  0.00    +0.109 C 
BRANCH  37  39
ATOM     38  C   UNL     1       1.785   1.246  -0.136  0.00  0.00    +0.005 C 
ATOM     39  C   UNL     1       1.271  -0.195  -0.105  0.00  0.00    +0.016 C 
ENDBRANCH  37  39
ENDBRANCH  24  37
ENDBRANCH   1  24
TORSDOF 11
