REMARK  Name = ZINC08532745
REMARK  10 active torsions:
REMARK  status: ('A' for Active; 'I' for Inactive)
REMARK    1  A    between atoms: C_1  and  C_2
REMARK    2  A    between atoms: C_2  and  C_3
REMARK    3  A    between atoms: C_2  and  N_56
REMARK    4  A    between atoms: C_4  and  C_5
REMARK    5  A    between atoms: C_4  and  N_56
REMARK    6  A    between atoms: C_8  and  C_9
REMARK    7  A    between atoms: C_8  and  N_56
REMARK    8  A    between atoms: N_11  and  C_12
REMARK    9  A    between atoms: C_13  and  C_21
REMARK   10  A    between atoms: C_21  and  C_23
REMARK                            x       y       z     vdW  Elec       q    Type
REMARK                         _______ _______ _______ _____ _____    ______ ____
ROOT
ATOM      1  C   UNL     1      -1.633   5.321  -1.860  0.00  0.00    +0.083 A 
ATOM      2  C   UNL     1      -1.502   3.953  -2.078  0.00  0.00    +0.054 A 
ATOM      3  C   UNL     1      -1.263   3.111  -0.918  0.00  0.00    -0.024 A 
ATOM      4  C   UNL     1      -1.195   3.762   0.263  0.00  0.00    -0.005 A 
ATOM      5  S   UNL     1      -1.441   5.467  -0.144  0.00  0.00    -0.077 S 
ATOM      6  C   UNL     1      -0.961   3.160   1.614  0.00  0.00    +0.043 C 
ATOM      7  C   UNL     1      -1.185   1.644   1.512  0.00  0.00    +0.005 C 
ATOM      8  C   UNL     1      -0.423   1.114   0.294  0.00  0.00    +0.005 C 
ATOM      9  C   UNL     1      -1.097   1.597  -0.991  0.00  0.00    +0.037 C 
ENDROOT
BRANCH   1  12
ATOM     10  C   UNL     1      -1.853   7.614  -2.404  0.00  0.00    +0.201 C 
ATOM     11  O   UNL     1      -1.646   7.899  -1.244  0.00  0.00    -0.278 OA
ATOM     12  N   UNL     1      -1.862   6.322  -2.789  0.00  0.00    -0.281 N 
ATOM     13  H   UNL     1      -2.028   6.094  -3.717  0.00  0.00    +0.155 HD
BRANCH  10  14
ATOM     14  C   UNL     1      -2.102   8.703  -3.415  0.00  0.00    +0.020 C 
BRANCH  14  15
ATOM     15  N   UNL     1      -2.159  10.001  -2.708  0.00  0.00    +0.393 N 
ATOM     16  H   UNL     1      -2.691   9.883  -1.838  0.00  0.00    -0.080 HD
BRANCH  15  18
ATOM     17  C   UNL     1      -2.260  10.992  -4.970  0.00  0.00    -0.013 C 
ATOM     18  C   UNL     1      -2.836  11.007  -3.553  0.00  0.00    -0.074 C 
ATOM     19  C   UNL     1      -4.330  10.678  -3.607  0.00  0.00    -0.013 C 
ENDBRANCH  15  18
BRANCH  15  20
ATOM     20  C   UNL     1      -0.792  10.456  -2.379  0.00  0.00    +0.019 C 
BRANCH  20  21
ATOM     21  C   UNL     1      -0.885  11.657  -1.474  0.00  0.00    +0.194 C 
ATOM     22  O   UNL     1      -1.971  12.094  -1.155  0.00  0.00    -0.278 OA
ATOM     23  N   UNL     1       0.238  12.247  -1.018  0.00  0.00    -0.331 N 
ATOM     24  H   UNL     1       1.107  11.898  -1.273  0.00  0.00    +0.145 HD
ATOM     25  H   UNL     1       0.178  13.020  -0.436  0.00  0.00    +0.145 HD
ENDBRANCH  20  21
ENDBRANCH  15  20
ENDBRANCH  14  15
ENDBRANCH  10  14
ENDBRANCH   1  12
BRANCH   2  26
ATOM     26  C   UNL     1      -1.602   3.385  -3.423  0.00  0.00    +0.196 C 
ATOM     27  O   UNL     1      -0.621   3.348  -4.143  0.00  0.00    -0.287 OA
BRANCH  26  28
ATOM     28  C   UNL     1      -2.895   2.854  -3.909  0.00  0.00    +0.022 A 
ATOM     29  C   UNL     1      -4.044   2.987  -3.128  0.00  0.00    +0.012 A 
ATOM     30  C   UNL     1      -5.247   2.494  -3.588  0.00  0.00    +0.001 A 
ATOM     31  C   UNL     1      -5.315   1.861  -4.816  0.00  0.00    +0.000 A 
ATOM     32  C   UNL     1      -4.178   1.721  -5.593  0.00  0.00    +0.001 A 
ATOM     33  C   UNL     1      -2.969   2.214  -5.146  0.00  0.00    +0.012 A 
ENDBRANCH  26  28
ENDBRANCH   2  26
TORSDOF 8
