REMARK  Name = ZINC37099800
REMARK  7 active torsions:
REMARK  status: ('A' for Active; 'I' for Inactive)
REMARK    1  A    between atoms: C_1  and  C_2
REMARK    2  A    between atoms: C_2  and  C_4
REMARK    3  A    between atoms: C_2  and  N_12
REMARK    4  A    between atoms: C_6  and  O_11
REMARK    5  A    between atoms: C_9  and  O_10
REMARK    6  A    between atoms: N_12  and  C_13
REMARK    7  A    between atoms: C_19  and  C_21
REMARK                            x       y       z     vdW  Elec       q    Type
REMARK                         _______ _______ _______ _____ _____    ______ ____
ROOT
ATOM      1  N   UNL     1       0.726  -0.442   1.166  0.00  0.00    +0.386 N 
ATOM      2  H   UNL     1       0.274   0.038   1.930  0.00  0.00    -0.085 HD
ATOM      3  H   UNL     1       0.653  -1.438   1.304  0.00  0.00    -0.085 HD
ENDROOT
BRANCH   1   4
ATOM      4  C   UNL     1       2.143  -0.057   1.117  0.00  0.00    -0.059 C 
ATOM      5  C   UNL     1       2.848  -0.844   0.010  0.00  0.00    -0.015 C 
ATOM      6  C   UNL     1       2.736  -2.342   0.300  0.00  0.00    -0.002 C 
ATOM      7  C   UNL     1       3.395  -2.652   1.645  0.00  0.00    +0.000 C 
ATOM      8  C   UNL     1       2.691  -1.865   2.752  0.00  0.00    +0.010 C 
ATOM      9  C   UNL     1       2.803  -0.367   2.462  0.00  0.00    +0.079 C 
BRANCH   9  10
ATOM     10  C   UNL     1       2.098   0.420   3.569  0.00  0.00    +0.391 C 
ATOM     11  F   UNL     1       0.788  -0.048   3.713  0.00  0.00    -0.171 F 
ATOM     12  F   UNL     1       2.789   0.251   4.774  0.00  0.00    -0.171 F 
ATOM     13  F   UNL     1       2.074   1.778   3.233  0.00  0.00    -0.171 F 
ENDBRANCH   9  10
ENDBRANCH   1   4
BRANCH   1  15
ATOM     14  C   UNL     1       0.076   1.450  -0.247  0.00  0.00    -0.009 C 
ATOM     15  C   UNL     1       0.075  -0.073  -0.098  0.00  0.00    -0.040 C 
BRANCH  15  16
ATOM     16  C   UNL     1      -1.345  -0.577  -0.097  0.00  0.00    -0.017 A 
ATOM     17  C   UNL     1      -2.004  -0.784   1.100  0.00  0.00    +0.051 A 
ATOM     18  C   UNL     1      -3.311  -1.247   1.101  0.00  0.00    +0.117 A 
ATOM     19  C   UNL     1      -3.957  -1.502  -0.100  0.00  0.00    +0.049 A 
ATOM     20  C   UNL     1      -3.299  -1.295  -1.296  0.00  0.00    +0.049 A 
ATOM     21  C   UNL     1      -1.993  -0.827  -1.297  0.00  0.00    +0.119 A 
BRANCH  21  22
ATOM     22  O   UNL     1      -1.347  -0.618  -2.475  0.00  0.00    -0.507 OA
ATOM     23  H   UNL     1      -0.865  -1.390  -2.802  0.00  0.00    +0.292 HD
ENDBRANCH  21  22
BRANCH  18  24
ATOM     24  O   UNL     1      -3.959  -1.451   2.279  0.00  0.00    -0.507 OA
ATOM     25  H   UNL     1      -4.441  -0.678   2.602  0.00  0.00    +0.292 HD
ENDBRANCH  18  24
ENDBRANCH  15  16
ENDBRANCH   1  15
TORSDOF 6
