REMARK  Name = ZINC45558739
REMARK  10 active torsions:
REMARK  status: ('A' for Active; 'I' for Inactive)
REMARK    1  A    between atoms: C_1  and  C_2
REMARK    2  A    between atoms: C_2  and  C_3
REMARK    3  A    between atoms: C_2  and  C_15
REMARK    4  A    between atoms: C_2  and  N_18
REMARK    5  A    between atoms: C_3  and  C_4
REMARK    6  A    between atoms: C_4  and  C_5
REMARK    7  A    between atoms: C_5  and  C_6
REMARK    8  A    between atoms: C_6  and  S_7
REMARK    9  A    between atoms: S_7  and  C_8
REMARK   10  A    between atoms: N_18  and  C_19
REMARK                            x       y       z     vdW  Elec       q    Type
REMARK                         _______ _______ _______ _____ _____    ______ ____
ROOT
ATOM      1  C   UNL     1       0.742  -0.511   1.242  0.00  0.00    -0.004 C 
ENDROOT
BRANCH   1   3
ATOM      2  C   UNL     1      -0.019   1.526   0.010  0.00  0.00    -0.001 C 
ATOM      3  C   UNL     1       0.002  -0.004   0.002  0.00  0.00    +0.006 C 
BRANCH   3   4
ATOM      4  C   UNL     1       0.707  -0.490  -1.238  0.00  0.00    +0.199 C 
ATOM      5  O   UNL     1       1.889  -0.763  -1.196  0.00  0.00    -0.278 OA
ATOM      6  N   UNL     1       0.026  -0.622  -2.393  0.00  0.00    -0.330 N 
ATOM      7  H   UNL     1      -0.919  -0.404  -2.426  0.00  0.00    +0.145 HD
ATOM      8  H   UNL     1       0.480  -0.934  -3.191  0.00  0.00    +0.145 HD
ENDBRANCH   3   4
BRANCH   3   9
ATOM      9  N   UNL     1      -1.376  -0.512   0.012  0.00  0.00    +0.386 N 
ATOM     10  C   UNL     1      -1.356  -1.981   0.004  0.00  0.00    -0.099 C 
ATOM     11  H   UNL     1      -1.848  -0.187   0.843  0.00  0.00    -0.085 HD
ATOM     12  H   UNL     1      -1.864  -0.178  -0.805  0.00  0.00    -0.085 HD
ENDBRANCH   3   9
ENDBRANCH   1   3
BRANCH   1  13
ATOM     13  C   UNL     1      -0.042  -0.124   2.497  0.00  0.00    -0.000 C 
BRANCH  13  14
ATOM     14  C   UNL     1       0.698  -0.630   3.737  0.00  0.00    +0.011 C 
BRANCH  14  15
ATOM     15  C   UNL     1      -0.085  -0.243   4.992  0.00  0.00    +0.074 C 
BRANCH  15  16
ATOM     16  S   UNL     1       0.792  -0.844   6.462  0.00  0.00    -0.124 S 
BRANCH  16  17
ATOM     17  C   UNL     1      -0.223  -0.326   7.806  0.00  0.00    +0.026 A 
ATOM     18  C   UNL     1      -1.399   0.372   7.562  0.00  0.00    +0.016 A 
ATOM     19  C   UNL     1      -2.192   0.776   8.617  0.00  0.00    +0.001 A 
ATOM     20  C   UNL     1      -1.818   0.487   9.917  0.00  0.00    +0.001 A 
ATOM     21  C   UNL     1      -0.648  -0.207  10.165  0.00  0.00    +0.021 A 
ATOM     22  C   UNL     1       0.148  -0.620   9.113  0.00  0.00    +0.054 A 
ATOM     23 CL   UNL     1       1.613  -1.499   9.425  0.00  0.00    -0.082 Cl
ENDBRANCH  16  17
ENDBRANCH  15  16
ENDBRANCH  14  15
ENDBRANCH  13  14
ENDBRANCH   1  13
TORSDOF 8
