REMARK  Name = ZINC37563241
REMARK  2 active torsions:
REMARK  status: ('A' for Active; 'I' for Inactive)
REMARK    1  A    between atoms: C_2  and  C_9
REMARK    2  A    between atoms: C_5  and  N_6
REMARK                            x       y       z     vdW  Elec       q    Type
REMARK                         _______ _______ _______ _____ _____    ______ ____
ROOT
ATOM      1  C   UNL     1       1.404   3.454   0.007  0.00  0.00    +0.250 C 
ATOM      2  O   UNL     1       0.408   4.152   0.020  0.00  0.00    -0.270 OA
ATOM      3  N   UNL     1       2.626   4.023  -0.002  0.00  0.00    -0.261 N 
ATOM      4  C   UNL     1       2.748   5.406   0.004  0.00  0.00    +0.165 A 
ATOM      5  N   UNL     1       1.793   6.311   0.023  0.00  0.00    -0.229 NA
ATOM      6  C   UNL     1       2.061   7.611   0.026  0.00  0.00    +0.050 A 
ATOM      7  C   UNL     1       3.384   7.925   0.006  0.00  0.00    -0.003 A 
ATOM      8  S   UNL     1       4.157   6.334  -0.005  0.00  0.00    -0.059 S 
ATOM      9  C   UNL     1       3.980   9.290  -0.001  0.00  0.00    -0.037 C 
ATOM     10  N   UNL     1       2.920  10.255  -0.356  0.00  0.00    +0.382 N 
ATOM     11  C   UNL     1       1.738  10.017   0.484  0.00  0.00    -0.076 C 
ATOM     12  C   UNL     1       1.028   8.729   0.054  0.00  0.00    +0.037 C 
ATOM     13  H   UNL     1       3.420   3.466  -0.012  0.00  0.00    +0.157 HD
ATOM     14  H   UNL     1       3.256  11.194  -0.205  0.00  0.00    -0.085 HD
ATOM     15  H   UNL     1       2.671  10.138  -1.327  0.00  0.00    -0.085 HD
ENDROOT
BRANCH   1  17
ATOM     16  C   UNL     1      -0.016   1.344   0.009  0.00  0.00    +0.053 A 
ATOM     17  C   UNL     1       1.275   1.988   0.001  0.00  0.00    +0.046 A 
ATOM     18  C   UNL     1       2.380   1.167  -0.014  0.00  0.00    +0.060 A 
ATOM     19  S   UNL     1       1.741  -0.384  -0.017  0.00  0.00    -0.072 S 
ATOM     20  C   UNL     1       0.002  -0.004   0.002  0.00  0.00    +0.164 A 
BRANCH  20  21
ATOM     21  N   UNL     1      -1.145  -0.940   0.008  0.00  0.00    +0.063 N 
ATOM     22  O   UNL     1      -2.275  -0.511   0.022  0.00  0.00    -0.126 OA
ATOM     23  O   UNL     1      -0.951  -2.134   0.000  0.00  0.00    -0.126 OA
ENDBRANCH  20  21
ENDBRANCH   1  17
TORSDOF 2
