REMARK  Name = ZINC43021972
REMARK  10 active torsions:
REMARK  status: ('A' for Active; 'I' for Inactive)
REMARK    1  A    between atoms: C_1  and  C_2
REMARK    2  A    between atoms: C_2  and  C_3
REMARK    3  A    between atoms: C_3  and  N_4
REMARK    4  A    between atoms: N_4  and  C_5
REMARK    5  A    between atoms: N_4  and  C_10
REMARK    6  A    between atoms: C_5  and  C_6
REMARK    7  A    between atoms: C_10  and  C_12
REMARK    8  A    between atoms: C_10  and  C_19
REMARK    9  A    between atoms: C_19  and  C_21
REMARK   10  A    between atoms: C_19  and  N_22
REMARK                            x       y       z     vdW  Elec       q    Type
REMARK                         _______ _______ _______ _____ _____    ______ ____
ROOT
ATOM      1  C   UNL     1       1.321  -2.550  -2.360  0.00  0.00    +0.072 C 
ENDROOT
BRANCH   1   2
ATOM      2  C   UNL     1       1.371  -4.043  -2.555  0.00  0.00    -0.031 A 
ATOM      3  C   UNL     1       1.198  -4.887  -1.473  0.00  0.00    +0.005 A 
ATOM      4  C   UNL     1       1.243  -6.257  -1.651  0.00  0.00    +0.001 A 
ATOM      5  C   UNL     1       1.461  -6.784  -2.910  0.00  0.00    +0.015 A 
ATOM      6  C   UNL     1       1.633  -5.940  -3.993  0.00  0.00    +0.018 A 
ATOM      7  C   UNL     1       1.583  -4.569  -3.815  0.00  0.00    +0.020 A 
ATOM      8 BR   UNL     1       1.932  -6.660  -5.715  0.00  0.00    -0.050 Br
ENDBRANCH   1   2
BRANCH   1   9
ATOM      9  C   UNL     1       2.725  -2.030  -2.045  0.00  0.00    -0.056 C 
ATOM     10  C   UNL     1       3.658  -2.337  -3.218  0.00  0.00    -0.012 C 
BRANCH   9  11
ATOM     11  N   UNL     1       2.673  -0.578  -1.827  0.00  0.00    +0.381 N 
ATOM     12  H   UNL     1       2.134  -0.382  -0.998  0.00  0.00    -0.090 HD
ATOM     13  H   UNL     1       3.610  -0.221  -1.712  0.00  0.00    -0.090 HD
ATOM     14  H   UNL     1       2.239  -0.134  -2.623  0.00  0.00    -0.090 HD
ENDBRANCH   9  11
ENDBRANCH   1   9
BRANCH   1  15
ATOM     15  N   UNL     1       0.419  -2.230  -1.246  0.00  0.00    -0.289 NA
BRANCH  15  16
ATOM     16  C   UNL     1       1.121  -2.320   0.042  0.00  0.00    +0.085 C 
BRANCH  16  18
ATOM     17  C   UNL     1       0.830  -2.569   2.511  0.00  0.00    +0.005 C 
ATOM     18  C   UNL     1       0.099  -2.476   1.170  0.00  0.00    +0.012 C 
ENDBRANCH  16  18
ENDBRANCH  15  16
BRANCH  15  19
ATOM     19  C   UNL     1      -0.188  -0.905  -1.423  0.00  0.00    +0.198 C 
BRANCH  19  20
ATOM     20  C   UNL     1      -1.235  -0.969  -2.538  0.00  0.00    +0.402 C 
ATOM     21  F   UNL     1      -2.159  -1.979  -2.252  0.00  0.00    -0.169 F 
ATOM     22  F   UNL     1      -1.898   0.260  -2.626  0.00  0.00    -0.169 F 
ATOM     23  F   UNL     1      -0.603  -1.246  -3.755  0.00  0.00    -0.169 F 
ENDBRANCH  19  20
ENDBRANCH  15  19
ENDBRANCH   1  15
TORSDOF 8
