REMARK  Name = ZINC17967918
REMARK  9 active torsions:
REMARK  status: ('A' for Active; 'I' for Inactive)
REMARK    1  A    between atoms: C_4  and  C_7
REMARK    2  A    between atoms: C_8  and  C_22
REMARK    3  A    between atoms: C_9  and  O_21
REMARK    4  A    between atoms: N_10  and  C_12
REMARK    5  A    between atoms: C_15  and  N_18
REMARK    6  A    between atoms: N_23  and  C_24
REMARK    7  A    between atoms: C_24  and  C_25
REMARK    8  A    between atoms: C_25  and  N_26
REMARK    9  A    between atoms: C_32  and  C_34
REMARK                            x       y       z     vdW  Elec       q    Type
REMARK                         _______ _______ _______ _____ _____    ______ ____
ROOT
ATOM      1  C   UNL     1       3.698  -0.688  -0.038  0.00  0.00    +0.105 A 
ATOM      2  C   UNL     1       3.994  -1.963   0.624  0.00  0.00    +0.080 A 
ATOM      3  C   UNL     1       5.321  -2.252   0.337  0.00  0.00    +0.225 A 
ATOM      4  N   UNL     1       5.801  -1.250  -0.431  0.00  0.00    -0.199 N 
ATOM      5  N   UNL     1       4.794  -0.307  -0.654  0.00  0.00    -0.163 NA
ENDROOT
BRANCH   1   9
ATOM      6  C   UNL     1      -0.017   1.379   0.010  0.00  0.00    +0.000 A 
ATOM      7  C   UNL     1       1.169   2.092   0.002  0.00  0.00    +0.001 A 
ATOM      8  C   UNL     1       2.377   1.427  -0.013  0.00  0.00    +0.010 A 
ATOM      9  C   UNL     1       2.402   0.033  -0.021  0.00  0.00    +0.003 A 
ATOM     10  C   UNL     1       1.205  -0.680  -0.013  0.00  0.00    +0.010 A 
ATOM     11  C   UNL     1       0.002  -0.004   0.002  0.00  0.00    +0.001 A 
ENDBRANCH   1   9
BRANCH   4  12
ATOM     12  C   UNL     1       7.107  -1.171  -0.931  0.00  0.00    +0.069 A 
ATOM     13  C   UNL     1       8.171  -1.651  -0.179  0.00  0.00    +0.030 A 
ATOM     14  C   UNL     1       9.457  -1.571  -0.675  0.00  0.00    +0.035 A 
ATOM     15  C   UNL     1       9.686  -1.014  -1.919  0.00  0.00    +0.126 A 
ATOM     16  C   UNL     1       8.629  -0.535  -2.671  0.00  0.00    +0.035 A 
ATOM     17  C   UNL     1       7.340  -0.617  -2.183  0.00  0.00    +0.030 A 
BRANCH  15  18
ATOM     18  N   UNL     1      11.066  -0.930  -2.448  0.00  0.00    +0.056 N 
ATOM     19  O   UNL     1      11.992  -1.347  -1.791  0.00  0.00    -0.126 OA
ATOM     20  O   UNL     1      11.268  -0.443  -3.536  0.00  0.00    -0.126 OA
ENDBRANCH  15  18
ENDBRANCH   4  12
BRANCH   2  21
ATOM     21  C   UNL     1       3.072  -2.772   1.430  0.00  0.00    +0.093 C 
ATOM     22  N   UNL     1       3.477  -3.885   1.958  0.00  0.00    -0.388 N 
ATOM     23  H   UNL     1       4.389  -4.184   1.820  0.00  0.00    +0.159 HD
BRANCH  22  24
ATOM     24  C   UNL     1       2.556  -4.692   2.762  0.00  0.00    +0.127 C 
BRANCH  24  25
ATOM     25  C   UNL     1       2.303  -6.029   2.061  0.00  0.00    +0.105 C 
BRANCH  25  26
ATOM     26  N   UNL     1       1.380  -6.838   2.868  0.00  0.00    -0.298 NA
ATOM     27  C   UNL     1       1.993  -7.217   4.148  0.00  0.00    +0.103 C 
ATOM     28  C   UNL     1       0.944  -7.900   5.031  0.00  0.00    +0.123 C 
ATOM     29  N   UNL     1       0.348  -9.011   4.274  0.00  0.00    -0.299 N 
ATOM     30  C   UNL     1      -0.166  -8.736   2.923  0.00  0.00    +0.123 C 
ATOM     31  C   UNL     1       0.928  -8.020   2.123  0.00  0.00    +0.103 C 
ATOM     32  C   UNL     1       0.274 -10.248   4.803  0.00  0.00    +0.219 C 
ATOM     33  O   UNL     1       0.702 -10.457   5.918  0.00  0.00    -0.275 OA
BRANCH  32  34
ATOM     34  C   UNL     1      -0.341 -11.372   4.009  0.00  0.00    +0.075 C 
ATOM     35  C   UNL     1      -1.677 -11.934   4.499  0.00  0.00    +0.013 C 
ATOM     36  C   UNL     1      -0.396 -12.753   4.666  0.00  0.00    +0.013 C 
ENDBRANCH  32  34
ENDBRANCH  25  26
ENDBRANCH  24  25
ENDBRANCH  22  24
ENDBRANCH   2  21
BRANCH   3  37
ATOM     37  O   UNL     1       6.010  -3.341   0.752  0.00  0.00    -0.492 OA
ATOM     38  H   UNL     1       5.958  -4.094   0.147  0.00  0.00    +0.294 HD
ENDBRANCH   3  37
TORSDOF 9
