REMARK  Name = ZINC43291189
REMARK  8 active torsions:
REMARK  status: ('A' for Active; 'I' for Inactive)
REMARK    1  A    between atoms: C_1  and  C_2
REMARK    2  A    between atoms: C_2  and  C_3
REMARK    3  A    between atoms: C_3  and  C_5
REMARK    4  A    between atoms: C_3  and  N_23
REMARK    5  A    between atoms: C_5  and  C_7
REMARK    6  A    between atoms: C_5  and  S_13
REMARK    7  A    between atoms: S_13  and  C_14
REMARK    8  A    between atoms: C_20  and  N_22
REMARK                            x       y       z     vdW  Elec       q    Type
REMARK                         _______ _______ _______ _____ _____    ______ ____
ROOT
ATOM      1  C   UNL     1       0.866  -2.052  -1.181  0.00  0.00    +0.076 C 
ENDROOT
BRANCH   1   2
ATOM      2  C   UNL     1       1.721  -2.458  -0.009  0.00  0.00    +0.003 A 
ATOM      3  C   UNL     1       1.393  -3.219   1.064  0.00  0.00    +0.027 A 
ATOM      4  C   UNL     1       2.351  -3.464   2.030  0.00  0.00    +0.025 A 
ATOM      5  C   UNL     1       3.590  -2.935   1.876  0.00  0.00    +0.060 A 
ATOM      6  S   UNL     1       3.431  -2.066   0.325  0.00  0.00    -0.099 S 
ATOM      7 BR   UNL     1       1.940  -4.521   3.544  0.00  0.00    -0.050 Br
ENDBRANCH   1   2
BRANCH   1   8
ATOM      8  C   UNL     1       0.778  -0.526  -1.245  0.00  0.00    -0.057 C 
BRANCH   8   9
ATOM      9  N   UNL     1       0.036  -0.127  -2.448  0.00  0.00    +0.381 N 
ATOM     10  H   UNL     1       0.044   0.878  -2.531  0.00  0.00    -0.090 HD
ATOM     11  H   UNL     1       0.470  -0.536  -3.262  0.00  0.00    -0.090 HD
ATOM     12  H   UNL     1      -0.917  -0.451  -2.378  0.00  0.00    -0.090 HD
ENDBRANCH   8   9
BRANCH   8  14
ATOM     13  C   UNL     1       0.075   1.526  -0.004  0.00  0.00    +0.002 C 
ATOM     14  C   UNL     1       0.054  -0.004  -0.003  0.00  0.00    -0.018 C 
ENDBRANCH   8  14
ENDBRANCH   1   8
BRANCH   1  15
ATOM     15  S   UNL     1       1.605  -2.679  -2.715  0.00  0.00    -0.081 S 
BRANCH  15  16
ATOM     16  C   UNL     1       1.413  -4.427  -2.596  0.00  0.00    +0.171 A 
ATOM     17  N   UNL     1       1.791  -5.212  -3.643  0.00  0.00    -0.302 N 
ATOM     18  H   UNL     1       2.162  -4.807  -4.443  0.00  0.00    +0.171 HD
ATOM     19  C   UNL     1       1.652  -6.552  -3.570  0.00  0.00    +0.254 A 
ATOM     20  O   UNL     1       1.988  -7.264  -4.503  0.00  0.00    -0.268 OA
ATOM     21  C   UNL     1       1.116  -7.113  -2.406  0.00  0.00    +0.113 A 
ATOM     22  C   UNL     1       0.746  -6.269  -1.368  0.00  0.00    +0.124 A 
ATOM     23  N   UNL     1       0.913  -4.948  -1.495  0.00  0.00    -0.209 NA
BRANCH  22  24
ATOM     24  N   UNL     1       0.214  -6.792  -0.206  0.00  0.00    -0.343 N 
ATOM     25  H   UNL     1       0.098  -7.750  -0.115  0.00  0.00    +0.144 HD
ATOM     26  H   UNL     1      -0.043  -6.201   0.518  0.00  0.00    +0.144 HD
ENDBRANCH  22  24
ENDBRANCH  15  16
ENDBRANCH   1  15
TORSDOF 7
