REMARK  Name = ZINC59199695
REMARK  12 active torsions:
REMARK  status: ('A' for Active; 'I' for Inactive)
REMARK    1  A    between atoms: C_1  and  C_2
REMARK    2  A    between atoms: C_2  and  C_4
REMARK    3  A    between atoms: C_7  and  N_10
REMARK    4  A    between atoms: N_10  and  C_11
REMARK    5  A    between atoms: C_11  and  N_13
REMARK    6  A    between atoms: N_13  and  C_14
REMARK    7  A    between atoms: N_13  and  C_21
REMARK    8  A    between atoms: C_14  and  C_15
REMARK    9  A    between atoms: C_23  and  C_29
REMARK   10  A    between atoms: C_23  and  C_30
REMARK   11  A    between atoms: C_25  and  C_27
REMARK   12  A    between atoms: C_25  and  C_28
REMARK                            x       y       z     vdW  Elec       q    Type
REMARK                         _______ _______ _______ _____ _____    ______ ____
ROOT
ATOM      1  N   UNL     1       0.020  -4.781  -6.137  0.00  0.00    -0.305 N 
ENDROOT
BRANCH   1   2
ATOM      2  C   UNL     1       0.076  -4.025  -7.394  0.00  0.00    +0.073 C 
ATOM      3  C   UNL     1      -1.199  -3.192  -7.536  0.00  0.00    +0.009 C 
ATOM      4  C   UNL     1      -1.151  -2.389  -8.835  0.00  0.00    -0.072 C 
ATOM      5  N   UNL     1       0.056  -1.583  -8.937  0.00  0.00    +0.386 N 
ATOM      6  C   UNL     1       1.323  -2.222  -8.622  0.00  0.00    -0.072 C 
ATOM      7  C   UNL     1       1.270  -3.072  -7.357  0.00  0.00    +0.009 C 
ATOM      8  C   UNL     1       1.842  -3.060  -9.793  0.00  0.00    -0.010 C 
ATOM      9  C   UNL     1       2.361  -1.100  -8.376  0.00  0.00    -0.010 C 
ATOM     10  C   UNL     1      -2.358  -1.422  -8.822  0.00  0.00    -0.010 C 
ATOM     11  C   UNL     1      -1.328  -3.316 -10.037  0.00  0.00    -0.010 C 
ATOM     12  H   UNL     1       0.112  -1.207  -9.887  0.00  0.00    -0.084 HD
ATOM     13  H   UNL     1      -0.052  -0.765  -8.331  0.00  0.00    -0.084 HD
ENDBRANCH   1   2
BRANCH   1  14
ATOM     14  C   UNL     1       0.013  -4.129  -4.958  0.00  0.00    +0.138 C 
ATOM     15  S   UNL     1       0.065  -5.010  -3.491  0.00  0.00    -0.018 S 
BRANCH  14  16
ATOM     16  N   UNL     1      -0.035  -2.782  -4.933  0.00  0.00    -0.297 N 
ATOM     17  H   UNL     1      -0.137  -2.285  -5.760  0.00  0.00    +0.154 HD
BRANCH  16  21
ATOM     18  C   UNL     1       0.251  -0.758  -1.316  0.00  0.00    +0.017 A 
ATOM     19  C   UNL     1       1.028  -0.354  -2.410  0.00  0.00    +0.013 A 
ATOM     20  C   UNL     1       0.930  -1.023  -3.597  0.00  0.00    +0.024 A 
ATOM     21  C   UNL     1       0.061  -2.104  -3.721  0.00  0.00    +0.033 A 
ATOM     22  C   UNL     1      -0.713  -2.508  -2.636  0.00  0.00    +0.024 A 
ATOM     23  C   UNL     1      -0.618  -1.849  -1.444  0.00  0.00    +0.013 A 
BRANCH  18  25
ATOM     24  C   UNL     1       1.288   1.131   0.096  0.00  0.00    +0.091 C 
ATOM     25  C   UNL     1       0.352  -0.042  -0.038  0.00  0.00    +0.160 C 
ATOM     26  O   UNL     1      -0.317  -0.396   0.909  0.00  0.00    -0.292 OA
ENDBRANCH  18  25
ENDBRANCH  16  21
ENDBRANCH  14  16
ENDBRANCH   1  14
BRANCH   1  27
ATOM     27  C   UNL     1      -0.027  -6.245  -6.164  0.00  0.00    +0.142 C 
BRANCH  27  28
ATOM     28  C   UNL     1      -1.463  -6.701  -6.208  0.00  0.00    -0.030 A 
ATOM     29  C   UNL     1      -2.153  -6.926  -5.031  0.00  0.00    +0.005 A 
ATOM     30  C   UNL     1      -3.470  -7.344  -5.072  0.00  0.00    +0.000 A 
ATOM     31  C   UNL     1      -4.097  -7.536  -6.288  0.00  0.00    +0.000 A 
ATOM     32  C   UNL     1      -3.407  -7.311  -7.465  0.00  0.00    +0.000 A 
ATOM     33  C   UNL     1      -2.091  -6.889  -7.425  0.00  0.00    +0.005 A 
ENDBRANCH  27  28
ENDBRANCH   1  27
TORSDOF 7
