REMARK  Name = ZINC27528532
REMARK  10 active torsions:
REMARK  status: ('A' for Active; 'I' for Inactive)
REMARK    1  A    between atoms: C_1  and  O_2
REMARK    2  A    between atoms: O_2  and  C_3
REMARK    3  A    between atoms: C_8  and  C_9
REMARK    4  A    between atoms: C_9  and  C_10
REMARK    5  A    between atoms: C_9  and  C_17
REMARK    6  A    between atoms: C_9  and  O_32
REMARK    7  A    between atoms: C_13  and  O_16
REMARK    8  A    between atoms: C_17  and  C_19
REMARK    9  A    between atoms: C_17  and  C_26
REMARK   10  A    between atoms: C_19  and  N_20
REMARK                            x       y       z     vdW  Elec       q    Type
REMARK                         _______ _______ _______ _____ _____    ______ ____
ROOT
ATOM      1  C   UNL     1      -0.518   0.006  -0.112  0.00  0.00    +0.124 C 
ENDROOT
BRANCH   1   7
ATOM      2  C   UNL     1       1.168  -0.788  -1.789  0.00  0.00    +0.126 A 
ATOM      3  C   UNL     1       1.493  -1.326  -3.026  0.00  0.00    +0.046 A 
ATOM      4  C   UNL     1       0.492  -1.651  -3.921  0.00  0.00    +0.004 A 
ATOM      5  C   UNL     1      -0.833  -1.440  -3.585  0.00  0.00    +0.001 A 
ATOM      6  C   UNL     1      -1.159  -0.909  -2.351  0.00  0.00    +0.010 A 
ATOM      7  C   UNL     1      -0.162  -0.577  -1.454  0.00  0.00    +0.030 A 
BRANCH   2   9
ATOM      8  C   UNL     1       3.497  -0.711  -1.319  0.00  0.00    +0.277 C 
ATOM      9  O   UNL     1       2.151  -0.468  -0.907  0.00  0.00    -0.495 OA
ENDBRANCH   2   9
ENDBRANCH   1   7
BRANCH   1  10
ATOM     10  C   UNL     1      -0.006  -0.897   0.981  0.00  0.00    -0.011 A 
ATOM     11  C   UNL     1       1.266  -0.712   1.490  0.00  0.00    +0.010 A 
ATOM     12  C   UNL     1       1.735  -1.536   2.495  0.00  0.00    +0.046 A 
ATOM     13  C   UNL     1       0.933  -2.555   2.986  0.00  0.00    +0.117 A 
ATOM     14  C   UNL     1      -0.341  -2.742   2.470  0.00  0.00    +0.046 A 
ATOM     15  C   UNL     1      -0.807  -1.913   1.468  0.00  0.00    +0.010 A 
BRANCH  13  16
ATOM     16  O   UNL     1       1.394  -3.370   3.971  0.00  0.00    -0.507 OA
ATOM     17  H   UNL     1       0.757  -4.178   4.360  0.00  0.00    +0.292 HD
ENDBRANCH  13  16
ENDBRANCH   1  10
BRANCH   1  18
ATOM     18  O   UNL     1      -1.938   0.125  -0.005  0.00  0.00    -0.379 OA
ATOM     19  H   UNL     1      -2.389   0.534   0.911  0.00  0.00    +0.211 HD
ENDBRANCH   1  18
BRANCH   1  20
ATOM     20  C   UNL     1       0.122   1.389   0.029  0.00  0.00    +0.043 C 
BRANCH  20  21
ATOM     21  C   UNL     1      -0.252   1.982   1.363  0.00  0.00    -0.043 A 
ATOM     22  C   UNL     1      -1.559   2.362   1.609  0.00  0.00    +0.004 A 
ATOM     23  C   UNL     1      -1.903   2.902   2.834  0.00  0.00    +0.000 A 
ATOM     24  C   UNL     1      -0.939   3.071   3.810  0.00  0.00    +0.000 A 
ATOM     25  C   UNL     1       0.369   2.695   3.563  0.00  0.00    +0.000 A 
ATOM     26  C   UNL     1       0.712   2.151   2.339  0.00  0.00    +0.004 A 
ENDBRANCH  20  21
BRANCH  20  27
ATOM     27  C   UNL     1      -0.381   2.300  -1.093  0.00  0.00    -0.067 C 
BRANCH  27  28
ATOM     28  N   UNL     1       0.256   3.619  -0.975  0.00  0.00    +0.380 N 
ATOM     29  C   UNL     1      -0.513   4.641  -1.696  0.00  0.00    -0.079 C 
ATOM     30  C   UNL     1       0.096   6.020  -1.433  0.00  0.00    -0.019 C 
ATOM     31  C   UNL     1       1.553   6.027  -1.901  0.00  0.00    -0.004 C 
ATOM     32  C   UNL     1       2.321   4.921  -1.171  0.00  0.00    -0.019 C 
ATOM     33  C   UNL     1       1.648   3.574  -1.442  0.00  0.00    -0.079 C 
ATOM     34  H   UNL     1       0.268   3.897   0.089  0.00  0.00    -0.082 HD
ENDBRANCH  27  28
ENDBRANCH  20  27
ENDBRANCH   1  20
TORSDOF 9
