REMARK  Name = ZINC28905452
REMARK  10 active torsions:
REMARK  status: ('A' for Active; 'I' for Inactive)
REMARK    1  A    between atoms: C_1  and  C_2
REMARK    2  A    between atoms: C_5  and  C_27
REMARK    3  A    between atoms: N_8  and  C_10
REMARK    4  A    between atoms: C_10  and  C_11
REMARK    5  A    between atoms: C_11  and  C_13
REMARK    6  A    between atoms: C_14  and  N_26
REMARK    7  A    between atoms: N_15  and  C_22
REMARK    8  A    between atoms: C_22  and  C_23
REMARK    9  A    between atoms: C_23  and  C_24
REMARK   10  A    between atoms: C_23  and  C_25
REMARK                            x       y       z     vdW  Elec       q    Type
REMARK                         _______ _______ _______ _____ _____    ______ ____
ROOT
ATOM      1  C   UNL     1      -4.562  -2.796  -1.914  0.00  0.00    +0.118 A 
ATOM      2  C   UNL     1      -5.214  -2.223  -3.020  0.00  0.00    +0.116 A 
ATOM      3  N   UNL     1      -6.538  -2.491  -3.219  0.00  0.00    -0.281 N 
ATOM      4  C   UNL     1      -7.224  -3.278  -2.375  0.00  0.00    +0.331 A 
ATOM      5  O   UNL     1      -8.402  -3.483  -2.593  0.00  0.00    -0.246 OA
ATOM      6  N   UNL     1      -6.657  -3.848  -1.300  0.00  0.00    -0.274 N 
ATOM      7  H   UNL     1      -7.258  -4.486  -0.634  0.00  0.00    +0.173 HD
ATOM      8  C   UNL     1      -5.353  -3.650  -1.019  0.00  0.00    +0.266 A 
ATOM      9  O   UNL     1      -4.841  -4.169  -0.043  0.00  0.00    -0.267 OA
ENDROOT
BRANCH   2  10
ATOM     10  N   UNL     1      -4.535  -1.418  -3.882  0.00  0.00    -0.344 N 
ATOM     11  H   UNL     1      -5.053  -0.974  -4.744  0.00  0.00    +0.144 HD
ATOM     12  H   UNL     1      -3.467  -1.211  -3.716  0.00  0.00    +0.144 HD
ENDBRANCH   2  10
BRANCH   1  13
ATOM     13  C   UNL     1      -3.193  -2.554  -1.670  0.00  0.00    +0.155 C 
ATOM     14  O   UNL     1      -2.586  -1.757  -2.355  0.00  0.00    -0.294 OA
BRANCH  13  15
ATOM     15  C   UNL     1      -2.486  -3.285  -0.557  0.00  0.00    +0.002 C 
BRANCH  15  21
ATOM     16  C   UNL     1       0.607   0.467   0.185  0.00  0.00    +0.005 C 
ATOM     17  C   UNL     1       0.490  -1.001  -0.231  0.00  0.00    -0.031 C 
ATOM     18  C   UNL     1       1.347  -1.865   0.698  0.00  0.00    +0.003 C 
ATOM     19  C   UNL     1       1.177  -3.337   0.313  0.00  0.00    -0.031 C 
ATOM     20  C   UNL     1      -0.304  -3.715   0.398  0.00  0.00    -0.075 C 
ATOM     21  N   UNL     1      -1.081  -2.860  -0.509  0.00  0.00    +0.385 N 
ATOM     22  C   UNL     1      -0.971  -1.446  -0.130  0.00  0.00    -0.075 C 
ATOM     23  C   UNL     1       1.678  -3.553  -1.116  0.00  0.00    +0.005 C 
ATOM     24  H   UNL     1      -0.657  -2.971  -1.518  0.00  0.00    -0.081 HD
ENDBRANCH  15  21
ENDBRANCH  13  15
ENDBRANCH   1  13
BRANCH   3  25
ATOM     25  C   UNL     1      -7.225  -1.904  -4.372  0.00  0.00    +0.131 C 
BRANCH  25  26
ATOM     26  C   UNL     1      -7.810  -0.546  -3.979  0.00  0.00    +0.003 C 
ATOM     27  C   UNL     1      -8.418   0.124  -5.213  0.00  0.00    +0.009 C 
ATOM     28  C   UNL     1      -8.896  -0.745  -2.919  0.00  0.00    +0.009 C 
ENDBRANCH  25  26
ENDBRANCH   3  25
TORSDOF 6
