REMARK  Name = ZINC46749798
REMARK  7 active torsions:
REMARK  status: ('A' for Active; 'I' for Inactive)
REMARK    1  A    between atoms: N_4  and  C_6
REMARK    2  A    between atoms: C_6  and  C_7
REMARK    3  A    between atoms: C_7  and  C_8
REMARK    4  A    between atoms: C_8  and  C_9
REMARK    5  A    between atoms: C_9  and  N_10
REMARK    6  A    between atoms: N_13  and  N_14
REMARK    7  A    between atoms: N_14  and  C_15
REMARK                            x       y       z     vdW  Elec       q    Type
REMARK                         _______ _______ _______ _____ _____    ______ ____
ROOT
ATOM      1  N   UNL     1       0.984  -6.590   0.775  0.00  0.00    -0.298 N 
ATOM      2  C   UNL     1       0.358  -7.726   0.408  0.00  0.00    +0.316 C 
ATOM      3  O   UNL     1      -0.208  -7.789  -0.665  0.00  0.00    -0.251 OA
ATOM      4  N   UNL     1       0.362  -8.793   1.232  0.00  0.00    -0.220 N 
ATOM      5  H   UNL     1       1.436  -6.540   1.631  0.00  0.00    +0.150 HD
ATOM      6  H   UNL     1      -0.088  -9.611   0.969  0.00  0.00    +0.174 HD
ENDROOT
BRANCH   4   7
ATOM      7  N   UNL     1       1.015  -8.720   2.470  0.00  0.00    -0.258 N 
ATOM      8  H   UNL     1       1.398  -7.880   2.767  0.00  0.00    +0.170 HD
BRANCH   7   9
ATOM      9  C   UNL     1       1.115  -9.861   3.277  0.00  0.00    +0.121 A 
ATOM     10  C   UNL     1       1.283 -11.112   2.697  0.00  0.00    +0.186 A 
ATOM     11  C   UNL     1       1.382 -12.238   3.497  0.00  0.00    +0.198 A 
ATOM     12  C   UNL     1       1.313 -12.118   4.876  0.00  0.00    +0.199 A 
ATOM     13  C   UNL     1       1.145 -10.871   5.457  0.00  0.00    +0.198 A 
ATOM     14  C   UNL     1       1.051  -9.742   4.660  0.00  0.00    +0.186 A 
ATOM     15  F   UNL     1       0.892  -8.526   5.228  0.00  0.00    -0.200 F 
ATOM     16  F   UNL     1       1.078 -10.756   6.801  0.00  0.00    -0.199 F 
ATOM     17  F   UNL     1       1.409 -13.218   5.654  0.00  0.00    -0.199 F 
ATOM     18  F   UNL     1       1.545 -13.455   2.932  0.00  0.00    -0.199 F 
ATOM     19  F   UNL     1       1.350 -11.230   1.353  0.00  0.00    -0.200 F 
ENDBRANCH   7   9
ENDBRANCH   4   7
BRANCH   1  20
ATOM     20  C   UNL     1       0.981  -5.431  -0.121  0.00  0.00    +0.106 C 
BRANCH  20  21
ATOM     21  C   UNL     1       1.754  -4.282   0.529  0.00  0.00    +0.017 C 
BRANCH  21  22
ATOM     22  C   UNL     1       1.751  -3.071  -0.407  0.00  0.00    -0.017 C 
BRANCH  22  23
ATOM     23  C   UNL     1       2.524  -1.922   0.243  0.00  0.00    -0.079 C 
BRANCH  23  27
ATOM     24  C   UNL     1       1.309   1.333  -0.869  0.00  0.00    -0.020 C 
ATOM     25  C   UNL     1       2.831   1.595  -0.798  0.00  0.00    -0.020 C 
ATOM     26  C   UNL     1       3.368   0.324  -0.094  0.00  0.00    -0.079 C 
ATOM     27  N   UNL     1       2.521  -0.760  -0.655  0.00  0.00    +0.380 N 
ATOM     28  C   UNL     1       1.157  -0.195  -0.753  0.00  0.00    -0.079 C 
ATOM     29  H   UNL     1       2.855  -1.024  -1.570  0.00  0.00    -0.082 HD
ENDBRANCH  23  27
ENDBRANCH  22  23
ENDBRANCH  21  22
ENDBRANCH  20  21
ENDBRANCH   1  20
TORSDOF 7
