REMARK  Name = ZINC36643169
REMARK  12 active torsions:
REMARK  status: ('A' for Active; 'I' for Inactive)
REMARK    1  A    between atoms: C_1  and  C_2
REMARK    2  A    between atoms: N_11  and  C_12
REMARK    3  A    between atoms: C_12  and  C_13
REMARK    4  A    between atoms: C_13  and  C_14
REMARK    5  A    between atoms: C_14  and  N_15
REMARK    6  A    between atoms: N_15  and  C_16
REMARK    7  A    between atoms: N_15  and  C_17
REMARK    8  A    between atoms: C_18  and  C_20
REMARK    9  A    between atoms: C_23  and  S_26
REMARK   10  A    between atoms: S_26  and  N_29
REMARK   11  A    between atoms: N_29  and  C_30
REMARK   12  A    between atoms: N_29  and  C_31
REMARK                            x       y       z     vdW  Elec       q    Type
REMARK                         _______ _______ _______ _____ _____    ______ ____
ROOT
ATOM      1  C   UNL     1       1.974   1.470   3.807  0.00  0.00    +0.044 C 
ATOM      2  C   UNL     1       1.695   0.051   3.383  0.00  0.00    -0.049 A 
ATOM      3  C   UNL     1       1.565  -0.267   2.038  0.00  0.00    +0.005 A 
ATOM      4  C   UNL     1       1.312  -1.549   1.627  0.00  0.00    +0.029 A 
ATOM      5  C   UNL     1       1.174  -2.596   2.567  0.00  0.00    +0.080 A 
ATOM      6  C   UNL     1       1.313  -2.236   3.927  0.00  0.00    +0.041 A 
ATOM      7  C   UNL     1       1.572  -0.949   4.330  0.00  0.00    +0.020 A 
ATOM      8  S   UNL     1       1.078  -3.789   4.756  0.00  0.00    -0.052 S 
ATOM      9  C   UNL     1       0.819  -4.786   3.295  0.00  0.00    +0.168 A 
ATOM     10  N   UNL     1       0.926  -3.902   2.330  0.00  0.00    -0.224 NA
ATOM     11  N   UNL     1       0.569  -6.145   3.204  0.00  0.00    -0.246 N 
ATOM     12  C   UNL     1       0.495  -6.893   4.322  0.00  0.00    +0.252 C 
ATOM     13  O   UNL     1       0.597  -6.366   5.413  0.00  0.00    -0.270 OA
ENDROOT
BRANCH  12  14
ATOM     14  C   UNL     1       0.289  -8.353   4.223  0.00  0.00    +0.037 A 
ATOM     15  C   UNL     1       0.940  -9.086   3.229  0.00  0.00    +0.015 A 
ATOM     16  C   UNL     1       0.744 -10.449   3.141  0.00  0.00    +0.029 A 
ATOM     17  C   UNL     1      -0.095 -11.089   4.036  0.00  0.00    +0.109 A 
ATOM     18  C   UNL     1      -0.743 -10.368   5.023  0.00  0.00    +0.029 A 
ATOM     19  C   UNL     1      -0.552  -9.006   5.125  0.00  0.00    +0.015 A 
BRANCH  17  20
ATOM     20  S   UNL     1      -0.341 -12.830   3.916  0.00  0.00    +0.074 S 
ATOM     21  O   UNL     1      -1.594 -13.106   4.526  0.00  0.00    -0.150 OA
ATOM     22  O   UNL     1      -0.051 -13.189   2.573  0.00  0.00    -0.150 OA
BRANCH  20  23
ATOM     23  N   UNL     1       0.813 -13.552   4.859  0.00  0.00    -0.206 N 
ATOM     24  C   UNL     1       0.505 -13.917   6.244  0.00  0.00    +0.157 C 
BRANCH  23  25
ATOM     25  C   UNL     1       2.081 -13.814   4.334  0.00  0.00    +0.051 A 
ATOM     26  C   UNL     1       3.208 -13.258   4.925  0.00  0.00    +0.025 A 
ATOM     27  C   UNL     1       4.460 -13.519   4.403  0.00  0.00    +0.002 A 
ATOM     28  C   UNL     1       4.592 -14.333   3.293  0.00  0.00    +0.000 A 
ATOM     29  C   UNL     1       3.472 -14.889   2.702  0.00  0.00    +0.002 A 
ATOM     30  C   UNL     1       2.217 -14.636   3.222  0.00  0.00    +0.025 A 
ENDBRANCH  23  25
ENDBRANCH  20  23
ENDBRANCH  17  20
ENDBRANCH  12  14
BRANCH  11  31
ATOM     31  C   UNL     1       0.386  -6.769   1.891  0.00  0.00    +0.114 C 
BRANCH  31  32
ATOM     32  C   UNL     1       1.742  -6.901   1.195  0.00  0.00    +0.001 C 
BRANCH  32  33
ATOM     33  C   UNL     1       1.571  -7.683  -0.109  0.00  0.00    -0.078 C 
BRANCH  33  34
ATOM     34  N   UNL     1       2.873  -7.809  -0.778  0.00  0.00    +0.376 N 
ATOM     35  C   UNL     1       3.772  -8.624   0.050  0.00  0.00    -0.097 C 
ATOM     36  C   UNL     1       2.692  -8.454  -2.085  0.00  0.00    -0.097 C 
ATOM     37  H   UNL     1       3.275  -6.893  -0.908  0.00  0.00    -0.083 HD
ENDBRANCH  33  34
ENDBRANCH  32  33
ENDBRANCH  31  32
ENDBRANCH  11  31
TORSDOF 8
