REMARK  Name = ZINC08092542
REMARK  10 active torsions:
REMARK  status: ('A' for Active; 'I' for Inactive)
REMARK    1  A    between atoms: C_1  and  C_2
REMARK    2  A    between atoms: C_6  and  C_23
REMARK    3  A    between atoms: C_7  and  N_8
REMARK    4  A    between atoms: C_9  and  C_11
REMARK    5  A    between atoms: C_11  and  N_47
REMARK    6  A    between atoms: C_12  and  N_47
REMARK    7  A    between atoms: C_13  and  C_15
REMARK    8  A    between atoms: C_13  and  C_16
REMARK    9  A    between atoms: C_13  and  N_47
REMARK   10  A    between atoms: N_21  and  C_22
REMARK                            x       y       z     vdW  Elec       q    Type
REMARK                         _______ _______ _______ _____ _____    ______ ____
ROOT
ATOM      1  C   UNL     1      -2.050   3.884  -2.662  0.00  0.00    -0.094 C 
ATOM      2  N   UNL     1      -2.130   4.145  -1.209  0.00  0.00    +0.391 N 
ATOM      3  H   UNL     1      -3.033   3.807  -0.858  0.00  0.00    -0.080 HD
ENDROOT
BRANCH   2   4
ATOM      4  C   UNL     1      -2.028   5.597  -0.951  0.00  0.00    +0.017 C 
ATOM      5  C   UNL     1      -0.589   6.077  -1.148  0.00  0.00    -0.004 C 
BRANCH   4   6
ATOM      6  C   UNL     1      -2.457   5.867   0.469  0.00  0.00    +0.207 C 
ATOM      7  O   UNL     1      -2.583   4.949   1.249  0.00  0.00    -0.277 OA
ATOM      8  N   UNL     1      -2.701   7.131   0.870  0.00  0.00    -0.242 N 
ATOM      9  C   UNL     1      -3.085   7.373   2.139  0.00  0.00    +0.306 C 
ATOM     10  O   UNL     1      -3.211   6.452   2.921  0.00  0.00    -0.252 OA
ATOM     11  N   UNL     1      -3.329   8.636   2.540  0.00  0.00    -0.302 N 
ATOM     12  C   UNL     1      -3.746   8.899   3.919  0.00  0.00    +0.129 C 
ATOM     13  H   UNL     1      -2.600   7.866   0.245  0.00  0.00    +0.159 HD
ATOM     14  H   UNL     1      -3.228   9.371   1.915  0.00  0.00    +0.150 HD
ENDBRANCH   4   6
ENDBRANCH   2   4
BRANCH   2  15
ATOM     15  C   UNL     1      -1.043   3.430  -0.507  0.00  0.00    +0.020 C 
BRANCH  15  17
ATOM     16  N   UNL     1      -0.445   1.080  -0.020  0.00  0.00    -0.287 N 
ATOM     17  C   UNL     1      -1.296   1.948  -0.603  0.00  0.00    +0.201 C 
ATOM     18  O   UNL     1      -2.264   1.535  -1.205  0.00  0.00    -0.278 OA
ATOM     19  H   UNL     1       0.285   1.410   0.526  0.00  0.00    +0.155 HD
BRANCH  16  26
ATOM     20  C   UNL     1      -2.944  -0.080   0.694  0.00  0.00    +0.045 C 
ATOM     21  C   UNL     1      -1.816  -0.903   0.128  0.00  0.00    -0.029 A 
ATOM     22  C   UNL     1      -1.980  -2.261  -0.063  0.00  0.00    +0.005 A 
ATOM     23  C   UNL     1      -0.943  -3.019  -0.577  0.00  0.00    +0.001 A 
ATOM     24  C   UNL     1       0.258  -2.419  -0.907  0.00  0.00    +0.005 A 
ATOM     25  C   UNL     1       0.426  -1.060  -0.724  0.00  0.00    -0.029 A 
ATOM     26  C   UNL     1      -0.613  -0.297  -0.207  0.00  0.00    +0.039 A 
ATOM     27  C   UNL     1       1.736  -0.407  -1.084  0.00  0.00    +0.045 C 
ENDBRANCH  16  26
ENDBRANCH  15  17
ENDBRANCH   2  15
TORSDOF 5
