REMARK  Name = ZINC63138253
REMARK  8 active torsions:
REMARK  status: ('A' for Active; 'I' for Inactive)
REMARK    1  A    between atoms: C_1  and  O_2
REMARK    2  A    between atoms: O_2  and  C_3
REMARK    3  A    between atoms: C_7  and  C_11
REMARK    4  A    between atoms: C_8  and  O_9
REMARK    5  A    between atoms: O_9  and  C_10
REMARK    6  A    between atoms: N_30  and  C_33
REMARK    7  A    between atoms: C_33  and  C_34
REMARK    8  A    between atoms: C_34  and  C_35
REMARK                            x       y       z     vdW  Elec       q    Type
REMARK                         _______ _______ _______ _____ _____    ______ ____
ROOT
ATOM      1  C   UNL     1       1.329  -4.110  -2.298  0.00  0.00    +0.137 C 
ATOM      2  C   UNL     1       2.521  -4.610  -1.481  0.00  0.00    +0.131 C 
ATOM      3  C   UNL     1       2.731  -6.064  -1.898  0.00  0.00    -0.034 C 
ATOM      4  C   UNL     1       2.568  -6.801  -0.808  0.00  0.00    -0.001 A 
ATOM      5  C   UNL     1       2.672  -8.252  -0.583  0.00  0.00    +0.010 A 
ATOM      6  C   UNL     1       2.432  -8.681   0.685  0.00  0.00    +0.001 A 
ATOM      7  C   UNL     1       2.103  -7.822   1.738  0.00  0.00    +0.002 A 
ATOM      8  C   UNL     1       1.986  -6.475   1.621  0.00  0.00    +0.026 A 
ATOM      9  C   UNL     1       2.217  -5.905   0.335  0.00  0.00    +0.043 A 
ATOM     10  N   UNL     1       2.186  -4.645  -0.051  0.00  0.00    -0.375 N 
ATOM     11  C   UNL     1       3.031  -6.430  -3.326  0.00  0.00    +0.065 C 
ATOM     12  C   UNL     1       2.181  -5.603  -4.255  0.00  0.00    +0.167 C 
ATOM     13  N   UNL     1       1.427  -4.501  -3.696  0.00  0.00    -0.279 N 
ATOM     14  C   UNL     1       0.683  -3.781  -4.599  0.00  0.00    +0.234 C 
ATOM     15  O   UNL     1       0.061  -2.795  -4.265  0.00  0.00    -0.274 OA
ATOM     16  C   UNL     1       0.677  -4.276  -6.030  0.00  0.00    +0.203 C 
ATOM     17  N   UNL     1       0.512  -5.741  -6.017  0.00  0.00    -0.291 N 
ATOM     18  C   UNL     1       1.284  -6.438  -5.134  0.00  0.00    +0.237 C 
ATOM     19  O   UNL     1       1.254  -7.648  -5.062  0.00  0.00    -0.274 OA
ATOM     20  H   UNL     1       1.977  -3.875   0.499  0.00  0.00    +0.160 HD
ENDROOT
BRANCH   1  25
ATOM     21  C   UNL     1       0.380  -0.607  -1.223  0.00  0.00    +0.162 A 
ATOM     22  C   UNL     1       1.174   0.159  -2.061  0.00  0.00    +0.049 A 
ATOM     23  C   UNL     1       2.014  -0.457  -2.970  0.00  0.00    +0.004 A 
ATOM     24  C   UNL     1       2.064  -1.837  -3.046  0.00  0.00    +0.009 A 
ATOM     25  C   UNL     1       1.273  -2.606  -2.212  0.00  0.00    +0.021 A 
ATOM     26  C   UNL     1       0.434  -1.995  -1.295  0.00  0.00    +0.166 A 
BRANCH  21  28
ATOM     27  C   UNL     1      -0.450   1.427  -0.310  0.00  0.00    +0.277 C 
ATOM     28  O   UNL     1      -0.447  -0.002  -0.328  0.00  0.00    -0.491 OA
ENDBRANCH  21  28
BRANCH  26  29
ATOM     29  O   UNL     1      -0.340  -2.751  -0.470  0.00  0.00    -0.491 OA
ATOM     30  C   UNL     1      -1.641  -3.103  -0.944  0.00  0.00    +0.277 C 
ENDBRANCH  26  29
ENDBRANCH   1  25
BRANCH  17  31
ATOM     31  C   UNL     1      -0.435  -6.416  -6.908  0.00  0.00    +0.112 C 
BRANCH  31  32
ATOM     32  C   UNL     1       0.265  -6.776  -8.220  0.00  0.00    +0.049 C 
BRANCH  32  33
ATOM     33  C   UNL     1      -0.709  -7.470  -9.135  0.00  0.00    -0.072 C 
ATOM     34  C   UNL     1      -1.332  -6.753 -10.015  0.00  0.00    -0.028 C 
ATOM     35  C   UNL     1      -2.337  -7.300 -10.987  0.00  0.00    +0.027 C 
ATOM     36  C   UNL     1      -2.204  -8.821 -11.081  0.00  0.00    +0.004 C 
ATOM     37  C   UNL     1      -2.189  -9.396  -9.659  0.00  0.00    +0.005 C 
ATOM     38  C   UNL     1      -0.893  -8.951  -8.975  0.00  0.00    +0.030 C 
ENDBRANCH  32  33
ENDBRANCH  31  32
ENDBRANCH  17  31
TORSDOF 6
