REMARK  Name = ZINC42374008
REMARK  3 active torsions:
REMARK  status: ('A' for Active; 'I' for Inactive)
REMARK    1  A    between atoms: C_5  and  C_6
REMARK    2  A    between atoms: C_6  and  C_8
REMARK    3  A    between atoms: C_6  and  N_11
REMARK                            x       y       z     vdW  Elec       q    Type
REMARK                         _______ _______ _______ _____ _____    ______ ____
ROOT
ATOM      1  C   UNL     1      -1.156  -0.969   0.009  0.00  0.00    +0.180 C 
ENDROOT
BRANCH   1   2
ATOM      2  N   UNL     1      -0.459  -2.241   0.240  0.00  0.00    -0.289 NA
ATOM      3  C   UNL     1       0.551  -2.494  -0.815  0.00  0.00    +0.083 C 
ATOM      4  C   UNL     1       1.602  -3.421  -0.258  0.00  0.00    -0.004 C 
ATOM      5  C   UNL     1       1.295  -4.901  -0.542  0.00  0.00    -0.081 C 
ATOM      6  N   UNL     1      -0.135  -5.234  -0.350  0.00  0.00    +0.380 N 
ATOM      7  C   UNL     1      -0.690  -4.604   0.826  0.00  0.00    -0.067 C 
ATOM      8  C   UNL     1      -1.371  -3.289   0.401  0.00  0.00    +0.066 C 
ATOM      9  H   UNL     1      -0.653  -4.929  -1.161  0.00  0.00    -0.086 HD
ATOM     10  H   UNL     1      -0.228  -6.234  -0.261  0.00  0.00    -0.086 HD
ENDBRANCH   1   2
BRANCH   1  15
ATOM     11  C   UNL     1      -3.341  -0.204   1.158  0.00  0.00    +0.014 A 
ATOM     12  C   UNL     1      -3.997  -0.013   2.360  0.00  0.00    +0.023 A 
ATOM     13  C   UNL     1      -3.349  -0.305   3.515  0.00  0.00    +0.055 A 
ATOM     14  S   UNL     1      -1.764  -0.869   2.918  0.00  0.00    -0.084 S 
ATOM     15  C   UNL     1      -2.071  -0.678   1.170  0.00  0.00    +0.017 A 
ATOM     16 BR   UNL     1      -3.965  -0.153   5.297  0.00  0.00    -0.043 Br
ENDBRANCH   1  15
BRANCH   1  17
ATOM     17  C   UNL     1      -0.144   0.141  -0.124  0.00  0.00    +0.233 C 
ATOM     18  O   UNL     1       0.929   0.052   0.435  0.00  0.00    -0.274 OA
ATOM     19  N   UNL     1      -0.432   1.230  -0.863  0.00  0.00    -0.328 N 
ATOM     20  H   UNL     1      -1.290   1.301  -1.309  0.00  0.00    +0.145 HD
ATOM     21  H   UNL     1       0.219   1.944  -0.948  0.00  0.00    +0.145 HD
ENDBRANCH   1  17
TORSDOF 3
