REMARK  Name = ZINC40893690
REMARK  8 active torsions:
REMARK  status: ('A' for Active; 'I' for Inactive)
REMARK    1  A    between atoms: C_1  and  N_2
REMARK    2  A    between atoms: N_2  and  C_3
REMARK    3  A    between atoms: C_4  and  C_6
REMARK    4  A    between atoms: C_9  and  C_14
REMARK    5  A    between atoms: C_11  and  O_12
REMARK    6  A    between atoms: O_12  and  C_13
REMARK    7  A    between atoms: N_16  and  C_17
REMARK    8  A    between atoms: C_22  and  C_23
REMARK                            x       y       z     vdW  Elec       q    Type
REMARK                         _______ _______ _______ _____ _____    ______ ____
ROOT
ATOM      1  C   UNL     1      -6.093   2.165   0.436  0.00  0.00    +0.248 C 
ATOM      2  O   UNL     1      -7.122   1.544   0.620  0.00  0.00    -0.270 OA
ATOM      3  N   UNL     1      -6.134   3.501   0.266  0.00  0.00    -0.281 N 
ATOM      4  H   UNL     1      -5.324   3.987   0.046  0.00  0.00    +0.155 HD
ENDROOT
BRANCH   3   5
ATOM      5  C   UNL     1      -7.339   4.184   0.407  0.00  0.00    +0.046 A 
ATOM      6  C   UNL     1      -8.531   3.583   0.023  0.00  0.00    +0.025 A 
ATOM      7  C   UNL     1      -9.725   4.262   0.163  0.00  0.00    +0.022 A 
ATOM      8  C   UNL     1      -9.745   5.545   0.687  0.00  0.00    +0.042 A 
ATOM      9  C   UNL     1      -8.571   6.158   1.074  0.00  0.00    +0.035 A 
ATOM     10  C   UNL     1      -7.356   5.481   0.943  0.00  0.00    +0.060 A 
ATOM     11 CL   UNL     1     -11.254   6.386   0.857  0.00  0.00    -0.084 Cl
BRANCH  10  12
ATOM     12  C   UNL     1      -6.098   6.127   1.360  0.00  0.00    +0.251 C 
ATOM     13  O   UNL     1      -5.035   5.570   1.166  0.00  0.00    -0.270 OA
ATOM     14  N   UNL     1      -6.127   7.335   1.957  0.00  0.00    -0.266 N 
ATOM     15  C   UNL     1      -4.936   7.999   2.245  0.00  0.00    +0.125 A 
ATOM     16  C   UNL     1      -4.967   9.190   2.961  0.00  0.00    +0.045 A 
ATOM     17  C   UNL     1      -3.777   9.839   3.241  0.00  0.00    +0.025 A 
ATOM     18  C   UNL     1      -2.591   9.271   2.792  0.00  0.00    +0.059 A 
ATOM     19  C   UNL     1      -2.635   8.085   2.085  0.00  0.00    +0.132 A 
ATOM     20  N   UNL     1      -3.785   7.487   1.838  0.00  0.00    -0.239 NA
ATOM     21 CL   UNL     1      -1.071  10.044   3.115  0.00  0.00    -0.082 Cl
ATOM     22  H   UNL     1      -6.977   7.743   2.186  0.00  0.00    +0.157 HD
ENDBRANCH  10  12
ENDBRANCH   3   5
BRANCH   1  26
ATOM     23  C   UNL     1      -2.358   0.127   0.329  0.00  0.00    +0.054 A 
ATOM     24  C   UNL     1      -2.406   1.510   0.153  0.00  0.00    +0.015 A 
ATOM     25  C   UNL     1      -3.615   2.169   0.188  0.00  0.00    +0.014 A 
ATOM     26  C   UNL     1      -4.797   1.454   0.399  0.00  0.00    +0.041 A 
ATOM     27  C   UNL     1      -4.755   0.072   0.575  0.00  0.00    +0.059 A 
ATOM     28  C   UNL     1      -3.541  -0.593   0.536  0.00  0.00    +0.131 A 
BRANCH  23  32
ATOM     29  C   UNL     1      -0.632   0.406  -1.925  0.00  0.00    +0.130 C 
ATOM     30  N   UNL     1      -0.253  -0.481  -0.822  0.00  0.00    -0.323 N 
ATOM     31  C   UNL     1       0.983  -1.264  -0.904  0.00  0.00    +0.130 C 
ATOM     32  C   UNL     1      -1.059  -0.580   0.291  0.00  0.00    +0.103 C 
ATOM     33  N   UNL     1      -0.676  -1.295   1.311  0.00  0.00    -0.386 N 
ATOM     34  H   UNL     1      -1.276  -1.430   2.061  0.00  0.00    +0.157 HD
ATOM     35  H   UNL     1       0.209  -1.692   1.320  0.00  0.00    +0.157 HD
ENDBRANCH  23  32
BRANCH  28  36
ATOM     36  O   UNL     1      -3.497  -1.940   0.702  0.00  0.00    -0.494 OA
ATOM     37  C   UNL     1      -4.743  -2.609   0.908  0.00  0.00    +0.277 C 
ENDBRANCH  28  36
ENDBRANCH   1  26
TORSDOF 5
