REMARK  Name = ZINC59782734
REMARK  10 active torsions:
REMARK  status: ('A' for Active; 'I' for Inactive)
REMARK    1  A    between atoms: C_1  and  C_2
REMARK    2  A    between atoms: C_5  and  C_8
REMARK    3  A    between atoms: C_10  and  C_13
REMARK    4  A    between atoms: C_13  and  C_14
REMARK    5  A    between atoms: N_16  and  C_17
REMARK    6  A    between atoms: C_17  and  C_18
REMARK    7  A    between atoms: C_18  and  C_20
REMARK    8  A    between atoms: C_18  and  N_28
REMARK    9  A    between atoms: C_25  and  O_26
REMARK   10  A    between atoms: O_26  and  C_27
REMARK                            x       y       z     vdW  Elec       q    Type
REMARK                         _______ _______ _______ _____ _____    ______ ____
ROOT
ATOM      1  C   UNL     1       4.067  -6.896   2.981  0.00  0.00    +0.219 C 
ATOM      2  O   UNL     1       3.279  -6.040   2.637  0.00  0.00    -0.275 OA
ATOM      3  N   UNL     1       3.833  -7.619   4.094  0.00  0.00    -0.316 N 
ATOM      4  H   UNL     1       4.463  -8.303   4.369  0.00  0.00    +0.149 HD
ENDROOT
BRANCH   1   5
ATOM      5  C   UNL     1       5.307  -7.151   2.163  0.00  0.00    +0.151 C 
BRANCH   5   8
ATOM      6  C   UNL     1       4.305  -5.367  -0.894  0.00  0.00    +0.109 A 
ATOM      7  N   UNL     1       4.311  -6.179   0.153  0.00  0.00    -0.243 NA
ATOM      8  C   UNL     1       5.329  -6.217   0.980  0.00  0.00    +0.058 A 
ATOM      9  C   UNL     1       6.404  -5.412   0.768  0.00  0.00    +0.071 A 
ATOM     10  S   UNL     1       5.894  -4.566  -0.722  0.00  0.00    -0.075 S 
BRANCH   6  15
ATOM     11  C   UNL     1       0.262  -4.634  -4.924  0.00  0.00    +0.044 C 
ATOM     12  C   UNL     1       1.321  -4.826  -3.869  0.00  0.00    -0.050 A 
ATOM     13  C   UNL     1       2.492  -4.092  -3.927  0.00  0.00    +0.004 A 
ATOM     14  C   UNL     1       3.465  -4.263  -2.964  0.00  0.00    +0.011 A 
ATOM     15  C   UNL     1       3.266  -5.178  -1.929  0.00  0.00    +0.007 A 
ATOM     16  C   UNL     1       2.082  -5.915  -1.877  0.00  0.00    +0.011 A 
ATOM     17  C   UNL     1       1.115  -5.731  -2.843  0.00  0.00    +0.004 A 
ENDBRANCH   6  15
ENDBRANCH   5   8
ENDBRANCH   1   5
BRANCH   3  18
ATOM     18  C   UNL     1       2.628  -7.371   4.889  0.00  0.00    +0.093 C 
BRANCH  18  19
ATOM     19  C   UNL     1       2.540  -8.401   6.017  0.00  0.00    -0.017 C 
BRANCH  19  20
ATOM     20  N   UNL     1       2.619  -9.755   5.451  0.00  0.00    +0.385 N 
ATOM     21  C   UNL     1       1.567  -9.922   4.440  0.00  0.00    -0.078 C 
ATOM     22  C   UNL     1       1.695 -11.301   3.790  0.00  0.00    -0.019 C 
ATOM     23  C   UNL     1       1.548 -12.382   4.865  0.00  0.00    -0.004 C 
ATOM     24  C   UNL     1       2.603 -12.153   5.952  0.00  0.00    -0.019 C 
ATOM     25  C   UNL     1       2.441 -10.742   6.522  0.00  0.00    -0.078 C 
ATOM     26  H   UNL     1       3.521  -9.886   5.020  0.00  0.00    -0.081 HD
ENDBRANCH  19  20
BRANCH  19  27
ATOM     27  C   UNL     1       3.682  -8.192   6.978  0.00  0.00    -0.018 A 
ATOM     28  C   UNL     1       4.846  -8.924   6.840  0.00  0.00    +0.005 A 
ATOM     29  C   UNL     1       5.893  -8.733   7.721  0.00  0.00    +0.000 A 
ATOM     30  C   UNL     1       5.779  -7.809   8.744  0.00  0.00    +0.004 A 
ATOM     31  C   UNL     1       4.618  -7.075   8.887  0.00  0.00    +0.046 A 
ATOM     32  C   UNL     1       3.567  -7.261   8.000  0.00  0.00    +0.122 A 
BRANCH  32  33
ATOM     33  O   UNL     1       2.426  -6.536   8.135  0.00  0.00    -0.495 OA
ATOM     34  C   UNL     1       2.378  -5.595   9.210  0.00  0.00    +0.277 C 
ENDBRANCH  32  33
ENDBRANCH  19  27
ENDBRANCH  18  19
ENDBRANCH   3  18
TORSDOF 8
