REMARK  Name = ZINC65800253
REMARK  7 active torsions:
REMARK  status: ('A' for Active; 'I' for Inactive)
REMARK    1  A    between atoms: C_3  and  C_20
REMARK    2  A    between atoms: C_5  and  N_7
REMARK    3  A    between atoms: N_10  and  C_11
REMARK    4  A    between atoms: C_11  and  C_12
REMARK    5  A    between atoms: C_12  and  C_13
REMARK    6  A    between atoms: C_20  and  N_21
REMARK    7  A    between atoms: C_25  and  C_26
REMARK                            x       y       z     vdW  Elec       q    Type
REMARK                         _______ _______ _______ _____ _____    ______ ____
ROOT
ATOM      1  C   UNL     1      -0.028   1.373  -0.012  0.00  0.00    +0.002 A 
ATOM      2  C   UNL     1       1.157   2.086  -0.017  0.00  0.00    +0.002 A 
ATOM      3  C   UNL     1       2.368   1.419  -0.023  0.00  0.00    -0.062 A 
ATOM      4  C   UNL     1       2.398   0.038  -0.025  0.00  0.00    +0.025 A 
ATOM      5  C   UNL     1       1.210  -0.681  -0.020  0.00  0.00    +0.035 A 
ATOM      6  C   UNL     1      -0.005  -0.008  -0.014  0.00  0.00    +0.023 A 
ENDROOT
BRANCH   5   7
ATOM      7  N   UNL     1       1.237  -2.080  -0.021  0.00  0.00    -0.269 N 
ATOM      8  C   UNL     1       0.299  -2.773   0.653  0.00  0.00    +0.304 C 
ATOM      9  O   UNL     1      -0.619  -2.186   1.193  0.00  0.00    -0.253 OA
ATOM     10  N   UNL     1       0.378  -4.116   0.730  0.00  0.00    -0.299 N 
ATOM     11  H   UNL     1       1.932  -2.551  -0.508  0.00  0.00    +0.156 HD
ATOM     12  H   UNL     1       1.110  -4.584   0.299  0.00  0.00    +0.150 HD
BRANCH  10  13
ATOM     13  C   UNL     1      -0.643  -4.869   1.463  0.00  0.00    +0.106 C 
BRANCH  13  14
ATOM     14  C   UNL     1      -0.320  -6.363   1.396  0.00  0.00    +0.022 C 
BRANCH  14  15
ATOM     15  C   UNL     1      -1.386  -7.150   2.162  0.00  0.00    -0.006 C 
ATOM     16  C   UNL     1      -2.734  -7.107   1.407  0.00  0.00    +0.007 C 
ATOM     17  C   UNL     1      -3.047  -8.598   1.074  0.00  0.00    -0.010 C 
ATOM     18  C   UNL     1      -3.388  -9.242   2.453  0.00  0.00    +0.004 C 
ATOM     19  C   UNL     1      -2.040  -9.285   3.208  0.00  0.00    +0.004 C 
ATOM     20  C   UNL     1      -1.012  -8.663   2.215  0.00  0.00    -0.008 C 
ATOM     21  C   UNL     1      -1.598  -9.155   0.844  0.00  0.00    +0.007 C 
ENDBRANCH  14  15
ENDBRANCH  13  14
ENDBRANCH  10  13
ENDBRANCH   5   7
BRANCH   3  22
ATOM     22  C   UNL     1       3.657   2.200  -0.029  0.00  0.00    -0.042 C 
BRANCH  22  23
ATOM     23  N   UNL     1       4.082   2.453   1.354  0.00  0.00    +0.390 N 
ATOM     24  C   UNL     1       4.495   1.183   2.004  0.00  0.00    -0.077 C 
ATOM     25  C   UNL     1       5.406   1.657   3.163  0.00  0.00    -0.020 C 
ATOM     26  C   UNL     1       6.162   2.854   2.542  0.00  0.00    -0.008 C 
ATOM     27  C   UNL     1       5.280   3.321   1.368  0.00  0.00    +0.019 C 
ATOM     28  H   UNL     1       3.334   2.885   1.875  0.00  0.00    -0.080 HD
BRANCH  27  29
ATOM     29  C   UNL     1       4.872   4.757   1.573  0.00  0.00    +0.197 C 
ATOM     30  O   UNL     1       3.700   5.042   1.696  0.00  0.00    -0.278 OA
ATOM     31  N   UNL     1       5.810   5.724   1.619  0.00  0.00    -0.331 N 
ATOM     32  H   UNL     1       6.747   5.496   1.520  0.00  0.00    +0.145 HD
ATOM     33  H   UNL     1       5.547   6.648   1.750  0.00  0.00    +0.145 HD
ENDBRANCH  27  29
ENDBRANCH  22  23
ENDBRANCH   3  22
TORSDOF 7
