REMARK  Name = ZINC51063617
REMARK  6 active torsions:
REMARK  status: ('A' for Active; 'I' for Inactive)
REMARK    1  A    between atoms: C_1  and  C_2
REMARK    2  A    between atoms: C_5  and  C_8
REMARK    3  A    between atoms: C_8  and  C_9
REMARK    4  A    between atoms: N_13  and  C_15
REMARK    5  A    between atoms: C_15  and  C_16
REMARK    6  A    between atoms: N_18  and  C_19
REMARK                            x       y       z     vdW  Elec       q    Type
REMARK                         _______ _______ _______ _____ _____    ______ ____
ROOT
ATOM      1  C   UNL     1       1.495  -4.755   0.176  0.00  0.00    -0.023 C 
ATOM      2  C   UNL     1       2.185  -4.272  -1.103  0.00  0.00    +0.000 C 
ATOM      3  C   UNL     1       3.612  -4.828  -1.142  0.00  0.00    -0.018 C 
ATOM      4  C   UNL     1       3.562  -6.355  -1.051  0.00  0.00    -0.078 C 
ATOM      5  N   UNL     1       2.914  -6.752   0.205  0.00  0.00    +0.386 N 
ATOM      6  C   UNL     1       1.523  -6.285   0.218  0.00  0.00    -0.074 C 
ATOM      7  H   UNL     1       3.412  -6.346   0.983  0.00  0.00    -0.081 HD
ENDROOT
BRANCH   1   8
ATOM      8  C   UNL     1       0.044  -4.271   0.187  0.00  0.00    +0.037 C 
BRANCH   8  13
ATOM      9  C   UNL     1      -0.061   1.499   0.503  0.00  0.00    +0.044 C 
ATOM     10  C   UNL     1      -0.034  -0.006   0.421  0.00  0.00    -0.050 A 
ATOM     11  C   UNL     1      -0.007  -0.630  -0.812  0.00  0.00    +0.003 A 
ATOM     12  C   UNL     1       0.018  -2.010  -0.888  0.00  0.00    +0.004 A 
ATOM     13  C   UNL     1       0.017  -2.766   0.270  0.00  0.00    -0.047 A 
ATOM     14  C   UNL     1      -0.008  -2.142   1.503  0.00  0.00    +0.004 A 
ATOM     15  C   UNL     1      -0.029  -0.761   1.578  0.00  0.00    +0.003 A 
ENDBRANCH   8  13
ENDBRANCH   1   8
BRANCH   5  16
ATOM     16  C   UNL     1       2.938  -8.216   0.324  0.00  0.00    +0.019 C 
BRANCH  16  17
ATOM     17  C   UNL     1       4.364  -8.688   0.444  0.00  0.00    +0.197 C 
ATOM     18  O   UNL     1       5.272  -7.883   0.431  0.00  0.00    -0.278 OA
ATOM     19  N   UNL     1       4.632 -10.003   0.565  0.00  0.00    -0.306 N 
ATOM     20  H   UNL     1       3.906 -10.646   0.575  0.00  0.00    +0.149 HD
BRANCH  19  21
ATOM     21  C   UNL     1       6.019 -10.461   0.681  0.00  0.00    +0.159 C 
ATOM     22  C   UNL     1       6.088 -11.965   0.406  0.00  0.00    +0.032 C 
ATOM     23  C   UNL     1       4.845 -12.664   0.925  0.00  0.00    +0.004 C 
ATOM     24  C   UNL     1       4.717 -12.647   2.437  0.00  0.00    +0.019 C 
ATOM     25  C   UNL     1       4.485 -11.224   2.948  0.00  0.00    +0.104 C 
ATOM     26  N   UNL     1       5.791 -10.572   3.139  0.00  0.00    -0.314 N 
ATOM     27  C   UNL     1       6.523 -10.205   2.086  0.00  0.00    +0.233 C 
ATOM     28  O   UNL     1       7.595  -9.665   2.254  0.00  0.00    -0.274 OA
ATOM     29  H   UNL     1       6.122 -10.409   4.036  0.00  0.00    +0.149 HD
ENDBRANCH  19  21
ENDBRANCH  16  17
ENDBRANCH   5  16
TORSDOF 5
