REMARK  Name = ZINC65963488
REMARK  9 active torsions:
REMARK  status: ('A' for Active; 'I' for Inactive)
REMARK    1  A    between atoms: C_1  and  C_2
REMARK    2  A    between atoms: C_2  and  C_3
REMARK    3  A    between atoms: C_2  and  C_4
REMARK    4  A    between atoms: C_4  and  N_5
REMARK    5  A    between atoms: C_6  and  C_8
REMARK    6  A    between atoms: C_8  and  C_9
REMARK    7  A    between atoms: C_8  and  N_10
REMARK    8  A    between atoms: C_13  and  N_16
REMARK    9  A    between atoms: C_17  and  C_19
REMARK                            x       y       z     vdW  Elec       q    Type
REMARK                         _______ _______ _______ _____ _____    ______ ____
ROOT
ATOM      1  N   UNL     1       5.117  -0.574  -3.318  0.00  0.00    +0.387 N 
ATOM      2  C   UNL     1       6.546  -0.259  -3.210  0.00  0.00    -0.076 C 
ATOM      3  C   UNL     1       7.283  -0.785  -4.444  0.00  0.00    +0.004 C 
ATOM      4  C   UNL     1       7.099  -2.303  -4.533  0.00  0.00    +0.069 C 
ATOM      5  C   UNL     1       5.602  -2.624  -4.570  0.00  0.00    +0.004 C 
ATOM      6  C   UNL     1       4.928  -2.030  -3.332  0.00  0.00    -0.076 C 
ATOM      7  H   UNL     1       4.751  -0.180  -4.172  0.00  0.00    -0.081 HD
ENDROOT
BRANCH   4   8
ATOM      8  N   UNL     1       7.738  -2.803  -5.753  0.00  0.00    -0.312 N 
ATOM      9  C   UNL     1       8.154  -4.083  -5.819  0.00  0.00    +0.216 C 
ATOM     10  O   UNL     1       8.000  -4.821  -4.869  0.00  0.00    -0.276 OA
ATOM     11  H   UNL     1       7.861  -2.213  -6.513  0.00  0.00    +0.149 HD
BRANCH   9  12
ATOM     12  C   UNL     1       8.811  -4.598  -7.074  0.00  0.00    +0.075 C 
ATOM     13  C   UNL     1      10.074  -3.783  -7.359  0.00  0.00    +0.013 C 
ATOM     14  C   UNL     1      10.742  -4.305  -8.633  0.00  0.00    +0.001 C 
ATOM     15  C   UNL     1      11.116  -5.777  -8.446  0.00  0.00    +0.000 C 
ATOM     16  C   UNL     1       9.853  -6.592  -8.161  0.00  0.00    +0.001 C 
ATOM     17  C   UNL     1       9.185  -6.069  -6.887  0.00  0.00    +0.013 C 
ENDBRANCH   9  12
ENDBRANCH   4   8
BRANCH   1  18
ATOM     18  C   UNL     1       4.402   0.000  -2.171  0.00  0.00    +0.016 C 
ATOM     19  C   UNL     1       4.591   1.518  -2.160  0.00  0.00    -0.004 C 
BRANCH  18  21
ATOM     20  N   UNL     1       2.184  -0.436  -1.166  0.00  0.00    -0.316 N 
ATOM     21  C   UNL     1       2.934  -0.323  -2.280  0.00  0.00    +0.199 C 
ATOM     22  O   UNL     1       2.428  -0.481  -3.370  0.00  0.00    -0.278 OA
ATOM     23  H   UNL     1       2.590  -0.309  -0.294  0.00  0.00    +0.149 HD
BRANCH  20  24
ATOM     24  C   UNL     1       0.757  -0.750  -1.272  0.00  0.00    +0.107 C 
BRANCH  24  26
ATOM     25  C   UNL     1       0.208   0.561   0.782  0.00  0.00    +0.009 C 
ATOM     26  C   UNL     1       0.145  -0.820   0.128  0.00  0.00    -0.000 C 
ATOM     27  C   UNL     1      -1.314  -1.270   0.025  0.00  0.00    +0.009 C 
ENDBRANCH  24  26
ENDBRANCH  20  24
ENDBRANCH  18  21
ENDBRANCH   1  18
TORSDOF 6
