REMARK  Name = ZINC19799812
REMARK  8 active torsions:
REMARK  status: ('A' for Active; 'I' for Inactive)
REMARK    1  A    between atoms: C_5  and  C_7
REMARK    2  A    between atoms: N_9  and  C_10
REMARK    3  A    between atoms: C_10  and  C_12
REMARK    4  A    between atoms: C_10  and  N_16
REMARK    5  A    between atoms: N_16  and  C_17
REMARK    6  A    between atoms: C_17  and  N_19
REMARK    7  A    between atoms: N_19  and  C_20
REMARK    8  A    between atoms: C_23  and  N_26
REMARK                            x       y       z     vdW  Elec       q    Type
REMARK                         _______ _______ _______ _____ _____    ______ ____
ROOT
ATOM      1  C   UNL     1      -3.210   0.837   0.248  0.00  0.00    +0.211 C 
ENDROOT
BRANCH   1   4
ATOM      2  C   UNL     1      -0.888   0.430   0.863  0.00  0.00    +0.247 C 
ATOM      3  O   UNL     1      -1.107  -0.763   0.784  0.00  0.00    -0.270 OA
ATOM      4  N   UNL     1      -1.874   1.314   0.614  0.00  0.00    -0.289 N 
ATOM      5  H   UNL     1      -1.677   2.394   0.685  0.00  0.00    +0.151 HD
BRANCH   2  10
ATOM      6  C   UNL     1       1.977   2.724   1.657  0.00  0.00    +0.001 A 
ATOM      7  C   UNL     1       2.990   1.815   1.907  0.00  0.00    +0.001 A 
ATOM      8  C   UNL     1       2.746   0.457   1.819  0.00  0.00    +0.021 A 
ATOM      9  C   UNL     1       1.487  -0.001   1.480  0.00  0.00    +0.053 A 
ATOM     10  C   UNL     1       0.461   0.912   1.226  0.00  0.00    +0.055 A 
ATOM     11  C   UNL     1       0.717   2.282   1.312  0.00  0.00    +0.014 A 
ATOM     12 CL   UNL     1       1.183  -1.707   1.369  0.00  0.00    -0.083 Cl
ENDBRANCH   2  10
ENDBRANCH   1   4
BRANCH   1  13
ATOM     13  C   UNL     1      -4.264   1.618   1.035  0.00  0.00    +0.225 C 
ATOM     14 CL   UNL     1      -4.126   3.373   0.646  0.00  0.00    -0.080 Cl
ATOM     15 CL   UNL     1      -5.908   1.031   0.584  0.00  0.00    -0.080 Cl
ATOM     16 CL   UNL     1      -4.001   1.371   2.801  0.00  0.00    -0.080 Cl
ENDBRANCH   1  13
BRANCH   1  17
ATOM     17  N   UNL     1      -3.424   1.037  -1.188  0.00  0.00    -0.305 N 
ATOM     18  H   UNL     1      -3.624   2.046  -1.578  0.00  0.00    +0.150 HD
BRANCH  17  19
ATOM     19  C   UNL     1      -3.377  -0.014  -2.029  0.00  0.00    +0.136 C 
ATOM     20  S   UNL     1      -3.066  -1.584  -1.421  0.00  0.00    -0.019 S 
BRANCH  19  21
ATOM     21  N   UNL     1      -3.573   0.171  -3.350  0.00  0.00    -0.297 N 
ATOM     22  H   UNL     1      -3.841   1.167  -3.732  0.00  0.00    +0.154 HD
BRANCH  21  23
ATOM     23  C   UNL     1      -3.437  -0.905  -4.234  0.00  0.00    +0.033 A 
ATOM     24  C   UNL     1      -2.732  -0.744  -5.421  0.00  0.00    +0.025 A 
ATOM     25  C   UNL     1      -2.594  -1.810  -6.289  0.00  0.00    +0.034 A 
ATOM     26  C   UNL     1      -3.166  -3.031  -5.984  0.00  0.00    +0.126 A 
ATOM     27  C   UNL     1      -3.872  -3.192  -4.806  0.00  0.00    +0.034 A 
ATOM     28  C   UNL     1      -4.009  -2.133  -3.931  0.00  0.00    +0.025 A 
BRANCH  26  29
ATOM     29  N   UNL     1      -3.021  -4.169  -6.920  0.00  0.00    +0.056 N 
ATOM     30  O   UNL     1      -3.524  -5.245  -6.652  0.00  0.00    -0.126 OA
ATOM     31  O   UNL     1      -2.399  -4.028  -7.958  0.00  0.00    -0.126 OA
ENDBRANCH  26  29
ENDBRANCH  21  23
ENDBRANCH  19  21
ENDBRANCH  17  19
ENDBRANCH   1  17
TORSDOF 8
