REMARK  Name = ZINC03840686
REMARK  13 active torsions:
REMARK  status: ('A' for Active; 'I' for Inactive)
REMARK    1  A    between atoms: C_1  and  C_2
REMARK    2  A    between atoms: C_7  and  C_9
REMARK    3  A    between atoms: C_9  and  S_10
REMARK    4  A    between atoms: S_10  and  C_13
REMARK    5  A    between atoms: C_13  and  C_14
REMARK    6  A    between atoms: C_13  and  C_15
REMARK    7  A    between atoms: C_13  and  C_16
REMARK    8  A    between atoms: C_18  and  C_39
REMARK    9  A    between atoms: C_21  and  O_38
REMARK   10  A    between atoms: C_23  and  C_27
REMARK   11  A    between atoms: C_27  and  C_29
REMARK   12  A    between atoms: C_27  and  C_30
REMARK   13  A    between atoms: C_37  and  N_78
REMARK                            x       y       z     vdW  Elec       q    Type
REMARK                         _______ _______ _______ _____ _____    ______ ____
ROOT
ATOM      1  C   UNL     1       5.793  -0.107   3.241  0.00  0.00    +0.014 C 
ATOM      2  C   UNL     1       5.091   0.558   4.427  0.00  0.00    +0.042 C 
ATOM      3  C   UNL     1       4.543   1.910   3.999  0.00  0.00    +0.055 A 
ATOM      4  C   UNL     1       4.646   2.982   4.829  0.00  0.00    +0.014 A 
ATOM      5  S   UNL     1       3.875   4.273   3.891  0.00  0.00    -0.075 S 
ATOM      6  C   UNL     1       3.482   3.313   2.495  0.00  0.00    +0.100 A 
ATOM      7  N   UNL     1       3.942   2.133   2.834  0.00  0.00    -0.247 NA
ATOM      8  C   UNL     1       5.262   3.028   6.182  0.00  0.00    +0.051 C 
ATOM      9  C   UNL     1       5.467   1.587   6.690  0.00  0.00    -0.022 C 
ATOM     10  C   UNL     1       6.094   0.750   5.572  0.00  0.00    +0.033 C 
ATOM     11  C   UNL     1       6.463  -0.641   6.098  0.00  0.00    +0.123 C 
ATOM     12  C   UNL     1       7.426  -0.526   7.278  0.00  0.00    +0.029 C 
ATOM     13  C   UNL     1       6.739   0.258   8.400  0.00  0.00    +0.007 C 
ATOM     14  C   UNL     1       6.415   1.661   7.891  0.00  0.00    +0.008 C 
ATOM     15  C   UNL     1       4.131   0.973   7.115  0.00  0.00    +0.012 C 
ENDROOT
BRANCH  12  16
ATOM     16  C   UNL     1       8.691   0.213   6.836  0.00  0.00    +0.078 C 
ATOM     17  C   UNL     1       9.441  -0.632   5.804  0.00  0.00    +0.017 C 
BRANCH  16  18
ATOM     18  C   UNL     1       9.578   0.449   8.032  0.00  0.00    +0.219 C 
ATOM     19  O   UNL     1       9.501  -0.281   8.997  0.00  0.00    -0.275 OA
ATOM     20  N   UNL     1      10.456   1.471   8.028  0.00  0.00    -0.305 N 
ATOM     21  C   UNL     1      10.498   2.426   6.910  0.00  0.00    +0.089 C 
ATOM     22  C   UNL     1      10.428   3.848   7.487  0.00  0.00    -0.060 C 
ATOM     23  C   UNL     1      11.299   3.108   9.626  0.00  0.00    -0.060 C 
ATOM     24  C   UNL     1      11.401   1.659   9.139  0.00  0.00    +0.089 C 
ATOM     25  C   UNL     1      11.569   5.414   8.939  0.00  0.00    -0.096 C 
ATOM     26  N   UNL     1      11.516   4.012   8.476  0.00  0.00    +0.380 N 
ATOM     27  H   UNL     1      12.409   3.774   8.029  0.00  0.00    -0.082 HD
ENDBRANCH  16  18
ENDBRANCH  12  16
BRANCH  11  28
ATOM     28  O   UNL     1       7.087  -1.391   5.054  0.00  0.00    -0.391 OA
ATOM     29  H   UNL     1       7.348  -2.285   5.315  0.00  0.00    +0.210 HD
ENDBRANCH  11  28
BRANCH   6  30
ATOM     30  C   UNL     1       2.786   3.729   1.225  0.00  0.00    +0.229 C 
BRANCH  30  31
ATOM     31  S   UNL     1       0.997   3.500   1.413  0.00  0.00    -0.020 S 
ATOM     32  O   UNL     1       0.531   4.396   2.413  0.00  0.00    -0.173 OA
ATOM     33  O   UNL     1       0.733   2.111   1.554  0.00  0.00    -0.173 OA
BRANCH  31  34
ATOM     34  C   UNL     1       0.352   4.046  -0.192  0.00  0.00    +0.080 C 
ATOM     35  C   UNL     1       0.945   3.177  -1.303  0.00  0.00    +0.035 C 
ATOM     36  C   UNL     1       0.739   5.508  -0.427  0.00  0.00    +0.035 C 
ATOM     37  C   UNL     1      -1.173   3.915  -0.201  0.00  0.00    +0.035 C 
ENDBRANCH  31  34
ENDBRANCH  30  31
ENDBRANCH   6  30
TORSDOF 6
