REMARK  Name = ZINC37063208
REMARK  9 active torsions:
REMARK  status: ('A' for Active; 'I' for Inactive)
REMARK    1  A    between atoms: C_1  and  N_2
REMARK    2  A    between atoms: N_2  and  C_3
REMARK    3  A    between atoms: N_2  and  C_4
REMARK    4  A    between atoms: C_4  and  C_5
REMARK    5  A    between atoms: C_5  and  C_6
REMARK    6  A    between atoms: C_6  and  N_7
REMARK    7  A    between atoms: N_7  and  S_8
REMARK    8  A    between atoms: S_8  and  C_11
REMARK    9  A    between atoms: C_14  and  N_18
REMARK                            x       y       z     vdW  Elec       q    Type
REMARK                         _______ _______ _______ _____ _____    ______ ____
ROOT
ATOM      1  S   UNL     1       5.380  -0.837  -3.393  0.00  0.00    +0.061 S 
ATOM      2  O   UNL     1       6.633  -0.222  -3.126  0.00  0.00    -0.153 OA
ATOM      3  O   UNL     1       5.186  -2.242  -3.302  0.00  0.00    -0.153 OA
ENDROOT
BRANCH   1   4
ATOM      4  C   UNL     1       4.931  -0.373  -5.032  0.00  0.00    +0.133 A 
ATOM      5  C   UNL     1       4.054  -1.160  -5.758  0.00  0.00    +0.047 A 
ATOM      6  C   UNL     1       3.700  -0.798  -7.044  0.00  0.00    +0.040 A 
ATOM      7  C   UNL     1       4.225   0.357  -7.608  0.00  0.00    +0.027 A 
ATOM      8  C   UNL     1       5.105   1.146  -6.878  0.00  0.00    +0.040 A 
ATOM      9  C   UNL     1       5.451   0.782  -5.590  0.00  0.00    +0.047 A 
ATOM     10 BR   UNL     1       6.643   1.859  -4.592  0.00  0.00    -0.048 Br
ATOM     11 BR   UNL     1       3.340  -2.733  -4.988  0.00  0.00    -0.048 Br
BRANCH   7  12
ATOM     12  N   UNL     1       3.870   0.725  -8.908  0.00  0.00    -0.358 N 
ATOM     13  H   UNL     1       3.256   0.173  -9.417  0.00  0.00    +0.142 HD
ATOM     14  H   UNL     1       4.237   1.532  -9.301  0.00  0.00    +0.142 HD
ENDBRANCH   7  12
ENDBRANCH   1   4
BRANCH   1  15
ATOM     15  N   UNL     1       4.282  -0.140  -2.368  0.00  0.00    -0.190 NA
ATOM     16  H   UNL     1       4.570   0.537  -1.737  0.00  0.00    +0.148 HD
BRANCH  15  17
ATOM     17  C   UNL     1       2.875  -0.547  -2.416  0.00  0.00    +0.104 C 
BRANCH  17  18
ATOM     18  C   UNL     1       2.159  -0.053  -1.157  0.00  0.00    -0.002 C 
BRANCH  18  19
ATOM     19  C   UNL     1       0.690  -0.478  -1.207  0.00  0.00    -0.078 C 
BRANCH  19  21
ATOM     20  C   UNL     1      -0.018   1.465   0.010  0.00  0.00    -0.097 C 
ATOM     21  N   UNL     1       0.002  -0.004   0.002  0.00  0.00    +0.376 N 
ATOM     22  C   UNL     1      -1.376  -0.512   0.012  0.00  0.00    -0.097 C 
ATOM     23  H   UNL     1       0.490  -0.338   0.820  0.00  0.00    -0.083 HD
ENDBRANCH  19  21
ENDBRANCH  18  19
ENDBRANCH  17  18
ENDBRANCH  15  17
ENDBRANCH   1  15
TORSDOF 7
