REMARK  Name = ZINC43261417
REMARK  8 active torsions:
REMARK  status: ('A' for Active; 'I' for Inactive)
REMARK    1  A    between atoms: C_1  and  C_2
REMARK    2  A    between atoms: C_2  and  C_4
REMARK    3  A    between atoms: C_2  and  N_22
REMARK    4  A    between atoms: C_4  and  C_6
REMARK    5  A    between atoms: C_4  and  N_12
REMARK    6  A    between atoms: N_12  and  C_13
REMARK    7  A    between atoms: N_12  and  C_14
REMARK    8  A    between atoms: C_14  and  C_15
REMARK                            x       y       z     vdW  Elec       q    Type
REMARK                         _______ _______ _______ _____ _____    ______ ____
ROOT
ATOM      1  C   UNL     1       0.702  -0.405   1.291  0.00  0.00    +0.079 C 
ENDROOT
BRANCH   1   2
ATOM      2  C   UNL     1       1.083  -1.849   1.494  0.00  0.00    +0.006 A 
ATOM      3  C   UNL     1       2.251  -2.472   1.204  0.00  0.00    +0.014 A 
ATOM      4  C   UNL     1       2.378  -3.821   1.480  0.00  0.00    +0.023 A 
ATOM      5  C   UNL     1       1.329  -4.480   2.033  0.00  0.00    +0.055 A 
ATOM      6  S   UNL     1       0.115  -3.180   2.186  0.00  0.00    -0.085 S 
ATOM      7 BR   UNL     1       1.191  -6.302   2.521  0.00  0.00    -0.043 Br
ENDBRANCH   1   2
BRANCH   1   9
ATOM      8  C   UNL     1      -1.475  -1.009   0.224  0.00  0.00    -0.012 C 
ATOM      9  C   UNL     1      -0.148  -0.275   0.025  0.00  0.00    -0.056 C 
BRANCH   9  10
ATOM     10  N   UNL     1       0.573  -0.866  -1.111  0.00  0.00    +0.381 N 
ATOM     11  H   UNL     1       0.012  -0.780  -1.946  0.00  0.00    -0.090 HD
ATOM     12  H   UNL     1       1.448  -0.382  -1.242  0.00  0.00    -0.090 HD
ATOM     13  H   UNL     1       0.752  -1.841  -0.925  0.00  0.00    -0.090 HD
ENDBRANCH   9  10
ENDBRANCH   1   9
BRANCH   1  14
ATOM     14  N   UNL     1      -0.070   0.066   2.449  0.00  0.00    -0.295 NA
ATOM     15  C   UNL     1       0.652  -0.192   3.702  0.00  0.00    +0.105 C 
BRANCH  14  16
ATOM     16  C   UNL     1      -0.402   1.490   2.316  0.00  0.00    +0.119 C 
BRANCH  16  17
ATOM     17  C   UNL     1      -1.491   1.845   3.296  0.00  0.00    -0.033 A 
ATOM     18  C   UNL     1      -2.818   1.733   2.925  0.00  0.00    +0.006 A 
ATOM     19  C   UNL     1      -3.817   2.058   3.823  0.00  0.00    +0.015 A 
ATOM     20  C   UNL     1      -3.489   2.496   5.094  0.00  0.00    +0.018 A 
ATOM     21  C   UNL     1      -2.160   2.608   5.464  0.00  0.00    +0.015 A 
ATOM     22  C   UNL     1      -1.163   2.278   4.567  0.00  0.00    +0.006 A 
ATOM     23 BR   UNL     1      -4.854   2.941   6.323  0.00  0.00    -0.050 Br
ENDBRANCH  16  17
ENDBRANCH  14  16
ENDBRANCH   1  14
TORSDOF 6
