REMARK  Name = ZINC03840706
REMARK  14 active torsions:
REMARK  status: ('A' for Active; 'I' for Inactive)
REMARK    1  A    between atoms: C_1  and  C_2
REMARK    2  A    between atoms: C_7  and  C_9
REMARK    3  A    between atoms: C_9  and  O_10
REMARK    4  A    between atoms: O_10  and  C_11
REMARK    5  A    between atoms: C_11  and  C_13
REMARK    6  A    between atoms: C_13  and  C_14
REMARK    7  A    between atoms: C_13  and  C_15
REMARK    8  A    between atoms: C_13  and  C_16
REMARK    9  A    between atoms: C_18  and  C_39
REMARK   10  A    between atoms: C_21  and  O_38
REMARK   11  A    between atoms: C_23  and  C_27
REMARK   12  A    between atoms: C_27  and  C_29
REMARK   13  A    between atoms: C_27  and  C_30
REMARK   14  A    between atoms: C_37  and  N_78
REMARK                            x       y       z     vdW  Elec       q    Type
REMARK                         _______ _______ _______ _____ _____    ______ ____
ROOT
ATOM      1  C   UNL     1       1.016   4.304   2.572  0.00  0.00    +0.014 C 
ATOM      2  C   UNL     1       2.167   3.772   1.715  0.00  0.00    +0.042 C 
ATOM      3  C   UNL     1       3.341   4.736   1.788  0.00  0.00    +0.055 A 
ATOM      4  C   UNL     1       4.055   5.026   0.668  0.00  0.00    +0.014 A 
ATOM      5  S   UNL     1       5.282   6.153   1.274  0.00  0.00    -0.073 S 
ATOM      6  C   UNL     1       4.763   6.156   2.933  0.00  0.00    +0.116 A 
ATOM      7  N   UNL     1       3.741   5.336   2.904  0.00  0.00    -0.245 NA
ATOM      8  C   UNL     1       3.835   4.510  -0.710  0.00  0.00    +0.051 C 
ATOM      9  C   UNL     1       2.885   3.297  -0.647  0.00  0.00    -0.022 C 
ATOM     10  C   UNL     1       1.700   3.640   0.259  0.00  0.00    +0.033 C 
ATOM     11  C   UNL     1       0.658   2.518   0.211  0.00  0.00    +0.123 C 
ATOM     12  C   UNL     1       0.182   2.297  -1.224  0.00  0.00    +0.029 C 
ATOM     13  C   UNL     1       1.387   1.868  -2.068  0.00  0.00    +0.007 C 
ATOM     14  C   UNL     1       2.398   3.013  -2.071  0.00  0.00    +0.008 C 
ATOM     15  C   UNL     1       3.629   2.079  -0.096  0.00  0.00    +0.012 C 
ENDROOT
BRANCH  12  16
ATOM     16  C   UNL     1      -0.425   3.591  -1.768  0.00  0.00    +0.078 C 
ATOM     17  C   UNL     1      -1.696   3.927  -0.985  0.00  0.00    +0.017 C 
BRANCH  16  18
ATOM     18  C   UNL     1      -0.765   3.413  -3.225  0.00  0.00    +0.219 C 
ATOM     19  O   UNL     1      -1.020   2.309  -3.658  0.00  0.00    -0.275 OA
ATOM     20  N   UNL     1      -0.787   4.480  -4.048  0.00  0.00    -0.305 N 
ATOM     21  C   UNL     1      -0.597   5.841  -3.524  0.00  0.00    +0.089 C 
ATOM     22  C   UNL     1       0.501   6.527  -4.351  0.00  0.00    -0.060 C 
ATOM     23  C   UNL     1       0.102   5.062  -6.242  0.00  0.00    -0.060 C 
ATOM     24  C   UNL     1      -1.006   4.315  -5.493  0.00  0.00    +0.089 C 
ATOM     25  C   UNL     1       1.083   7.249  -6.588  0.00  0.00    -0.096 C 
ATOM     26  N   UNL     1       0.124   6.467  -5.780  0.00  0.00    +0.380 N 
ATOM     27  H   UNL     1      -0.814   6.869  -5.894  0.00  0.00    -0.082 HD
ENDBRANCH  16  18
ENDBRANCH  12  16
BRANCH  11  28
ATOM     28  O   UNL     1      -0.459   2.875   1.026  0.00  0.00    -0.391 OA
ATOM     29  H   UNL     1      -1.159   2.208   1.049  0.00  0.00    +0.210 HD
ENDBRANCH  11  28
BRANCH   6  30
ATOM     30  C   UNL     1       5.340   6.909   4.104  0.00  0.00    +0.294 C 
BRANCH  30  31
ATOM     31  O   UNL     1       6.362   6.100   4.744  0.00  0.00    -0.457 OA
BRANCH  31  32
ATOM     32  C   UNL     1       6.979   6.630   5.812  0.00  0.00    +0.313 C 
ATOM     33  O   UNL     1       6.675   7.734   6.199  0.00  0.00    -0.250 OA
BRANCH  32  34
ATOM     34  C   UNL     1       8.050   5.848   6.528  0.00  0.00    +0.059 C 
ATOM     35  C   UNL     1       8.586   6.673   7.700  0.00  0.00    +0.022 C 
ATOM     36  C   UNL     1       7.460   4.539   7.054  0.00  0.00    +0.022 C 
ATOM     37  C   UNL     1       9.191   5.540   5.557  0.00  0.00    +0.022 C 
ENDBRANCH  32  34
ENDBRANCH  31  32
ENDBRANCH  30  31
ENDBRANCH   6  30
TORSDOF 7
