REMARK  Name = ZINC02927056
REMARK  7 active torsions:
REMARK  status: ('A' for Active; 'I' for Inactive)
REMARK    1  A    between atoms: C_1  and  C_2
REMARK    2  A    between atoms: C_6  and  N_8
REMARK    3  A    between atoms: C_9  and  C_11
REMARK    4  A    between atoms: C_11  and  S_12
REMARK    5  A    between atoms: S_12  and  C_13
REMARK    6  A    between atoms: C_17  and  C_21
REMARK    7  A    between atoms: N_24  and  C_25
REMARK                            x       y       z     vdW  Elec       q    Type
REMARK                         _______ _______ _______ _____ _____    ______ ____
ROOT
ATOM      1  C   UNL     1       2.433   9.787   0.482  0.00  0.00    +0.177 A 
ATOM      2  N   UNL     1       1.188  10.197   0.474  0.00  0.00    -0.201 NA
ATOM      3  C   UNL     1       0.858  11.494   0.569  0.00  0.00    +0.187 A 
ATOM      4  C   UNL     1       1.867  12.460   0.682  0.00  0.00    +0.082 A 
ATOM      5  C   UNL     1       1.240  13.715   0.764  0.00  0.00    +0.046 A 
ATOM      6  N   UNL     1      -0.051  13.534   0.706  0.00  0.00    -0.279 N 
ATOM      7  N   UNL     1      -0.325  12.166   0.585  0.00  0.00    -0.153 NA
ATOM      8  H   UNL     1      -0.730  14.398   0.754  0.00  0.00    +0.189 HD
ATOM      9  C   UNL     1       1.940  15.043   0.896  0.00  0.00    +0.066 C 
ATOM     10  C   UNL     1       3.265  12.008   0.692  0.00  0.00    +0.124 A 
ATOM     11  N   UNL     1       4.256  12.860   0.795  0.00  0.00    -0.384 N 
ATOM     12  N   UNL     1       3.493  10.644   0.593  0.00  0.00    -0.275 N 
ATOM     13  H   UNL     1       5.295  12.497   0.800  0.00  0.00    +0.157 HD
ATOM     14  H   UNL     1       4.050  13.937   0.876  0.00  0.00    +0.157 HD
ENDROOT
BRANCH  12  15
ATOM     15  C   UNL     1       4.803  10.147   0.601  0.00  0.00    +0.050 A 
ATOM     16  C   UNL     1       5.594  10.289   1.734  0.00  0.00    +0.027 A 
ATOM     17  C   UNL     1       6.883   9.793   1.740  0.00  0.00    +0.017 A 
ATOM     18  C   UNL     1       7.390   9.166   0.616  0.00  0.00    +0.018 A 
ATOM     19  C   UNL     1       6.606   9.027  -0.515  0.00  0.00    +0.017 A 
ATOM     20  C   UNL     1       5.314   9.517  -0.526  0.00  0.00    +0.027 A 
ATOM     21 BR   UNL     1       9.158   8.495   0.627  0.00  0.00    -0.050 Br
ENDBRANCH  12  15
BRANCH   1  22
ATOM     22  S   UNL     1       2.753   8.059   0.352  0.00  0.00    -0.078 S 
BRANCH  22  23
ATOM     23  C   UNL     1       1.058   7.433   0.245  0.00  0.00    +0.173 C 
BRANCH  23  25
ATOM     24  N   UNL     1      -0.069   5.242   0.029  0.00  0.00    -0.285 N 
ATOM     25  C   UNL     1       1.085   5.931   0.123  0.00  0.00    +0.227 C 
ATOM     26  O   UNL     1       2.146   5.342   0.111  0.00  0.00    -0.275 OA
ATOM     27  H   UNL     1      -1.026   5.779  -0.047  0.00  0.00    +0.155 HD
BRANCH  24  33
ATOM     28  C   UNL     1      -1.980   0.985  -1.521  0.00  0.00    +0.044 C 
ATOM     29  C   UNL     1      -0.966   1.754  -0.715  0.00  0.00    -0.049 A 
ATOM     30  C   UNL     1      -0.014   1.076   0.025  0.00  0.00    +0.003 A 
ATOM     31  C   UNL     1       0.922   1.777   0.762  0.00  0.00    +0.002 A 
ATOM     32  C   UNL     1       0.907   3.159   0.765  0.00  0.00    +0.023 A 
ATOM     33  C   UNL     1      -0.051   3.842   0.028  0.00  0.00    +0.034 A 
ATOM     34  C   UNL     1      -0.990   3.135  -0.711  0.00  0.00    +0.026 A 
ENDBRANCH  24  33
ENDBRANCH  23  25
ENDBRANCH  22  23
ENDBRANCH   1  22
TORSDOF 5
