REMARK  Name = ZINC19751409
REMARK  11 active torsions:
REMARK  status: ('A' for Active; 'I' for Inactive)
REMARK    1  A    between atoms: C_1  and  C_2
REMARK    2  A    between atoms: C_7  and  C_8
REMARK    3  A    between atoms: N_9  and  C_20
REMARK    4  A    between atoms: C_10  and  C_12
REMARK    5  A    between atoms: C_12  and  C_13
REMARK    6  A    between atoms: C_16  and  N_19
REMARK    7  A    between atoms: C_20  and  C_21
REMARK    8  A    between atoms: C_21  and  C_22
REMARK    9  A    between atoms: C_22  and  N_23
REMARK   10  A    between atoms: N_23  and  C_24
REMARK   11  A    between atoms: N_23  and  C_25
REMARK                            x       y       z     vdW  Elec       q    Type
REMARK                         _______ _______ _______ _____ _____    ______ ____
ROOT
ATOM      1  C   UNL     1      -1.297  -0.768   0.010  0.00  0.00    +0.044 C 
ATOM      2  C   UNL     1       0.002  -0.004   0.002  0.00  0.00    -0.045 A 
ATOM      3  C   UNL     1      -0.017   1.362   0.009  0.00  0.00    +0.033 A 
ATOM      4  C   UNL     1       1.185   2.075   0.002  0.00  0.00    +0.090 A 
ATOM      5  C   UNL     1       2.404   1.375  -0.013  0.00  0.00    +0.069 A 
ATOM      6  C   UNL     1       2.403  -0.013  -0.021  0.00  0.00    +0.031 A 
ATOM      7  C   UNL     1       1.205  -0.695  -0.014  0.00  0.00    -0.045 A 
ATOM      8  C   UNL     1       1.202  -2.202  -0.023  0.00  0.00    +0.044 C 
ATOM      9  N   UNL     1       3.395   2.336  -0.018  0.00  0.00    -0.327 N 
ATOM     10  C   UNL     1       2.781   3.550  -0.007  0.00  0.00    +0.115 A 
ATOM     11  N   UNL     1       1.489   3.398   0.005  0.00  0.00    -0.232 NA
ENDROOT
BRANCH  10  12
ATOM     12  C   UNL     1       3.495   4.878  -0.007  0.00  0.00    +0.109 C 
BRANCH  12  13
ATOM     13  C   UNL     1       3.746   5.313   1.414  0.00  0.00    -0.040 A 
ATOM     14  C   UNL     1       2.808   6.084   2.075  0.00  0.00    +0.006 A 
ATOM     15  C   UNL     1       3.032   6.480   3.379  0.00  0.00    +0.023 A 
ATOM     16  C   UNL     1       4.207   6.113   4.022  0.00  0.00    +0.025 A 
ATOM     17  C   UNL     1       5.150   5.343   3.353  0.00  0.00    +0.023 A 
ATOM     18  C   UNL     1       4.917   4.945   2.051  0.00  0.00    +0.006 A 
BRANCH  16  19
ATOM     19  N   UNL     1       4.440   6.517   5.339  0.00  0.00    -0.358 N 
ATOM     20  H   UNL     1       5.371   6.225   5.847  0.00  0.00    +0.142 HD
ATOM     21  H   UNL     1       3.693   7.127   5.867  0.00  0.00    +0.142 HD
ENDBRANCH  16  19
ENDBRANCH  12  13
ENDBRANCH  10  12
BRANCH   9  22
ATOM     22  C   UNL     1       4.840   2.093  -0.034  0.00  0.00    +0.122 C 
BRANCH  22  23
ATOM     23  C   UNL     1       5.328   2.016  -1.482  0.00  0.00    +0.003 C 
BRANCH  23  24
ATOM     24  C   UNL     1       6.837   1.763  -1.498  0.00  0.00    -0.078 C 
BRANCH  24  25
ATOM     25  N   UNL     1       7.306   1.689  -2.889  0.00  0.00    +0.376 N 
ATOM     26  C   UNL     1       8.774   1.684  -2.950  0.00  0.00    -0.097 C 
ATOM     27  C   UNL     1       6.747   0.514  -3.571  0.00  0.00    -0.097 C 
ATOM     28  H   UNL     1       6.949   2.587  -3.414  0.00  0.00    -0.083 HD
ENDBRANCH  24  25
ENDBRANCH  23  24
ENDBRANCH  22  23
ENDBRANCH   9  22
TORSDOF 7
