REMARK  Name = ZINC12917600
REMARK  12 active torsions:
REMARK  status: ('A' for Active; 'I' for Inactive)
REMARK    1  A    between atoms: C_1  and  C_2
REMARK    2  A    between atoms: C_5  and  N_9
REMARK    3  A    between atoms: C_6  and  C_8
REMARK    4  A    between atoms: C_13  and  C_15
REMARK    5  A    between atoms: C_15  and  C_17
REMARK    6  A    between atoms: C_15  and  N_60
REMARK    7  A    between atoms: C_18  and  N_60
REMARK    8  A    between atoms: C_19  and  C_20
REMARK    9  A    between atoms: C_19  and  N_60
REMARK   10  A    between atoms: N_22  and  C_23
REMARK   11  A    between atoms: C_24  and  C_30
REMARK   12  A    between atoms: C_28  and  C_29
REMARK                            x       y       z     vdW  Elec       q    Type
REMARK                         _______ _______ _______ _____ _____    ______ ____
ROOT
ATOM      1  C   UNL     1      -6.903   2.913  -1.833  0.00  0.00    +0.017 C 
ATOM      2  C   UNL     1      -6.047   2.869  -3.101  0.00  0.00    -0.004 C 
ENDROOT
BRANCH   1   7
ATOM      3  N   UNL     1      -3.329   4.086   1.160  0.00  0.00    -0.269 N 
ATOM      4  C   UNL     1      -4.298   3.222   0.800  0.00  0.00    +0.310 C 
ATOM      5  O   UNL     1      -4.475   2.205   1.442  0.00  0.00    -0.252 OA
ATOM      6  N   UNL     1      -5.070   3.484  -0.273  0.00  0.00    -0.241 N 
ATOM      7  C   UNL     1      -6.039   2.620  -0.633  0.00  0.00    +0.207 C 
ATOM      8  O   UNL     1      -6.216   1.606   0.008  0.00  0.00    -0.277 OA
ATOM      9  H   UNL     1      -3.235   4.932   0.694  0.00  0.00    +0.156 HD
ATOM     10  H   UNL     1      -4.928   4.295  -0.786  0.00  0.00    +0.159 HD
BRANCH   3  15
ATOM     11  C   UNL     1       0.209   2.763   5.393  0.00  0.00    +0.044 C 
ATOM     12  C   UNL     1      -0.731   3.116   4.270  0.00  0.00    -0.050 A 
ATOM     13  C   UNL     1      -2.046   2.689   4.310  0.00  0.00    +0.005 A 
ATOM     14  C   UNL     1      -2.910   3.010   3.282  0.00  0.00    +0.024 A 
ATOM     15  C   UNL     1      -2.457   3.764   2.207  0.00  0.00    +0.038 A 
ATOM     16  C   UNL     1      -1.137   4.192   2.169  0.00  0.00    -0.029 A 
ATOM     17  C   UNL     1      -0.277   3.866   3.200  0.00  0.00    +0.008 A 
ATOM     18  C   UNL     1      -0.641   5.009   1.004  0.00  0.00    +0.045 C 
ENDBRANCH   3  15
ENDBRANCH   1   7
BRANCH   1  20
ATOM     19  C   UNL     1      -8.999   2.320  -2.889  0.00  0.00    -0.094 C 
ATOM     20  N   UNL     1      -7.981   1.905  -1.901  0.00  0.00    +0.391 N 
ATOM     21  H   UNL     1      -8.424   1.827  -0.978  0.00  0.00    -0.080 HD
BRANCH  20  22
ATOM     22  C   UNL     1      -7.420   0.590  -2.276  0.00  0.00    +0.020 C 
BRANCH  22  23
ATOM     23  C   UNL     1      -8.493  -0.458  -2.124  0.00  0.00    +0.201 C 
ATOM     24  O   UNL     1      -9.605  -0.138  -1.761  0.00  0.00    -0.278 OA
ATOM     25  N   UNL     1      -8.217  -1.749  -2.392  0.00  0.00    -0.287 N 
ATOM     26  H   UNL     1      -7.317  -2.010  -2.645  0.00  0.00    +0.155 HD
BRANCH  25  27
ATOM     27  C   UNL     1      -9.227  -2.714  -2.304  0.00  0.00    +0.039 A 
ATOM     28  C   UNL     1      -9.926  -2.883  -1.117  0.00  0.00    -0.029 A 
ATOM     29  C   UNL     1     -10.927  -3.832  -1.036  0.00  0.00    +0.005 A 
ATOM     30  C   UNL     1     -11.225  -4.620  -2.132  0.00  0.00    +0.001 A 
ATOM     31  C   UNL     1     -10.526  -4.458  -3.314  0.00  0.00    +0.005 A 
ATOM     32  C   UNL     1      -9.528  -3.507  -3.404  0.00  0.00    -0.029 A 
ATOM     33  C   UNL     1      -8.768  -3.330  -4.693  0.00  0.00    +0.045 C 
ATOM     34  C   UNL     1      -9.598  -2.029   0.081  0.00  0.00    +0.045 C 
ENDBRANCH  25  27
ENDBRANCH  22  23
ENDBRANCH  20  22
ENDBRANCH   1  20
TORSDOF 6
