REMARK  Name = ZINC39963221
REMARK  10 active torsions:
REMARK  status: ('A' for Active; 'I' for Inactive)
REMARK    1  A    between atoms: C_1  and  C_2
REMARK    2  A    between atoms: C_2  and  C_3
REMARK    3  A    between atoms: C_3  and  O_4
REMARK    4  A    between atoms: O_4  and  C_5
REMARK    5  A    between atoms: C_6  and  O_25
REMARK    6  A    between atoms: C_8  and  C_12
REMARK    7  A    between atoms: C_13  and  C_14
REMARK    8  A    between atoms: C_13  and  C_16
REMARK    9  A    between atoms: O_25  and  C_26
REMARK   10  A    between atoms: C_26  and  C_27
REMARK                            x       y       z     vdW  Elec       q    Type
REMARK                         _______ _______ _______ _____ _____    ______ ____
ROOT
ATOM      1  C   UNL     1       3.175  -4.684   5.550  0.00  0.00    +0.026 C 
ATOM      2  C   UNL     1       2.956  -4.198   6.789  0.00  0.00    +0.072 C 
ENDROOT
BRANCH   2   3
ATOM      3  C   UNL     1       1.777  -3.296   7.048  0.00  0.00    +0.216 C 
ATOM      4  N   UNL     1       2.209  -2.100   7.782  0.00  0.00    -0.359 N 
ATOM      5  C   UNL     1       1.569  -2.085   8.915  0.00  0.00    +0.060 A 
ATOM      6  C   UNL     1       1.577  -1.157  10.055  0.00  0.00    +0.027 A 
ATOM      7  C   UNL     1       0.790  -1.405  11.120  0.00  0.00    +0.002 A 
ATOM      8  C   UNL     1      -0.053  -2.529  11.194  0.00  0.00    +0.002 A 
ATOM      9  C   UNL     1      -0.136  -3.441  10.206  0.00  0.00    +0.027 A 
ATOM     10  C   UNL     1       0.677  -3.274   8.994  0.00  0.00    +0.060 A 
ATOM     11  N   UNL     1       0.799  -3.977   7.906  0.00  0.00    -0.359 N 
ATOM     12  H   UNL     1       2.853  -1.441   7.477  0.00  0.00    +0.162 HD
ATOM     13  H   UNL     1       0.331  -4.801   7.699  0.00  0.00    +0.162 HD
ENDBRANCH   2   3
BRANCH   1  17
ATOM     14  C   UNL     1       0.291  -4.075   2.494  0.00  0.00    +0.176 A 
ATOM     15  C   UNL     1       1.649  -3.963   2.199  0.00  0.00    +0.164 A 
ATOM     16  C   UNL     1       2.590  -4.160   3.190  0.00  0.00    +0.057 A 
ATOM     17  C   UNL     1       2.177  -4.473   4.490  0.00  0.00    -0.019 A 
ATOM     18  C   UNL     1       0.813  -4.583   4.779  0.00  0.00    +0.027 A 
ATOM     19  C   UNL     1      -0.120  -4.380   3.785  0.00  0.00    +0.064 A 
ATOM     20 BR   UNL     1      -1.964  -4.522   4.178  0.00  0.00    -0.046 Br
BRANCH  14  21
ATOM     21  O   UNL     1      -0.633  -3.881   1.517  0.00  0.00    -0.487 OA
BRANCH  21  22
ATOM     22  C   UNL     1      -1.110  -2.546   1.331  0.00  0.00    +0.229 C 
BRANCH  22  24
ATOM     23  C   UNL     1      -2.647  -1.096  -0.002  0.00  0.00    +0.007 C 
ATOM     24  C   UNL     1      -2.136  -2.525   0.196  0.00  0.00    +0.038 C 
ENDBRANCH  22  24
ENDBRANCH  21  22
ENDBRANCH  14  21
BRANCH  15  25
ATOM     25  O   UNL     1       2.047  -3.659   0.934  0.00  0.00    -0.489 OA
BRANCH  25  26
ATOM     26  C   UNL     1       3.454  -3.560   0.703  0.00  0.00    +0.226 C 
ATOM     27  C   UNL     1       3.706  -3.215  -0.766  0.00  0.00    +0.048 C 
ENDBRANCH  25  26
ENDBRANCH  15  25
ENDBRANCH   1  17
BRANCH   2  28
ATOM     28  C   UNL     1       3.845  -4.539   7.859  0.00  0.00    +0.099 C 
ATOM     29  N   UNL     1       4.549  -4.810   8.708  0.00  0.00    -0.191 NA
ENDBRANCH   2  28
TORSDOF 8
