REMARK  Name = ZINC14275612
REMARK  7 active torsions:
REMARK  status: ('A' for Active; 'I' for Inactive)
REMARK    1  A    between atoms: C_1  and  C_2
REMARK    2  A    between atoms: C_6  and  N_8
REMARK    3  A    between atoms: N_8  and  C_9
REMARK    4  A    between atoms: C_9  and  N_11
REMARK    5  A    between atoms: C_12  and  C_14
REMARK    6  A    between atoms: C_17  and  C_19
REMARK    7  A    between atoms: C_24  and  N_25
REMARK                            x       y       z     vdW  Elec       q    Type
REMARK                         _______ _______ _______ _____ _____    ______ ____
ROOT
ATOM      1  N   UNL     1       3.065   6.622   2.260  0.00  0.00    -0.261 N 
ATOM      2  C   UNL     1       2.198   6.801   1.244  0.00  0.00    +0.285 C 
ATOM      3  O   UNL     1       1.888   7.927   0.901  0.00  0.00    -0.266 OA
ATOM      4  H   UNL     1       3.312   5.725   2.534  0.00  0.00    +0.157 HD
ENDROOT
BRANCH   2   5
ATOM      5  C   UNL     1       1.629   5.642   0.554  0.00  0.00    +0.190 A 
ATOM      6  C   UNL     1       0.736   5.683  -0.495  0.00  0.00    +0.055 A 
ATOM      7  C   UNL     1       0.462   4.357  -0.843  0.00  0.00    +0.051 A 
ATOM      8  C   UNL     1       1.189   3.563  -0.003  0.00  0.00    +0.138 A 
ATOM      9  O   UNL     1       1.885   4.347   0.837  0.00  0.00    -0.450 OA
BRANCH   8  10
ATOM     10  C   UNL     1       1.204   2.086  -0.013  0.00  0.00    +0.047 A 
ATOM     11  C   UNL     1       0.004   1.372  -0.009  0.00  0.00    +0.014 A 
ATOM     12  C   UNL     1       0.025  -0.007  -0.018  0.00  0.00    +0.001 A 
ATOM     13  C   UNL     1       1.232  -0.683  -0.032  0.00  0.00    +0.002 A 
ATOM     14  C   UNL     1       2.425   0.017  -0.036  0.00  0.00    +0.033 A 
ATOM     15  C   UNL     1       2.418   1.397  -0.026  0.00  0.00    +0.137 A 
BRANCH  15  16
ATOM     16  N   UNL     1       3.696   2.145  -0.031  0.00  0.00    +0.057 N 
ATOM     17  O   UNL     1       4.754   1.542  -0.043  0.00  0.00    -0.126 OA
ATOM     18  O   UNL     1       3.688   3.363  -0.022  0.00  0.00    -0.126 OA
ENDBRANCH  15  16
ENDBRANCH   8  10
ENDBRANCH   2   5
BRANCH   1  19
ATOM     19  C   UNL     1       3.588   7.689   2.896  0.00  0.00    +0.142 C 
ATOM     20  S   UNL     1       3.152   9.272   2.413  0.00  0.00    -0.018 S 
BRANCH  19  21
ATOM     21  N   UNL     1       4.455   7.509   3.912  0.00  0.00    -0.282 N 
ATOM     22  H   UNL     1       4.645   6.615   4.236  0.00  0.00    +0.155 HD
BRANCH  21  28
ATOM     23  C   UNL     1       4.887  12.271   4.187  0.00  0.00    +0.067 C 
ATOM     24  C   UNL     1       5.307  10.900   4.650  0.00  0.00    +0.053 A 
ATOM     25  C   UNL     1       6.281  10.778   5.623  0.00  0.00    +0.034 A 
ATOM     26  C   UNL     1       6.664   9.512   6.045  0.00  0.00    +0.019 A 
ATOM     27  C   UNL     1       6.052   8.411   5.472  0.00  0.00    +0.045 A 
ATOM     28  C   UNL     1       5.080   8.609   4.498  0.00  0.00    +0.124 A 
ATOM     29  N   UNL     1       4.745   9.832   4.118  0.00  0.00    -0.236 NA
ATOM     30  I   UNL     1       7.170  12.484   6.452  0.00  0.00    -0.042 I 
ENDBRANCH  21  28
ENDBRANCH  19  21
ENDBRANCH   1  19
TORSDOF 6
