REMARK  Name = ZINC66827708
REMARK  7 active torsions:
REMARK  status: ('A' for Active; 'I' for Inactive)
REMARK    1  A    between atoms: C_1  and  C_2
REMARK    2  A    between atoms: C_10  and  C_12
REMARK    3  A    between atoms: C_12  and  N_13
REMARK    4  A    between atoms: N_13  and  C_14
REMARK    5  A    between atoms: C_18  and  N_20
REMARK    6  A    between atoms: C_21  and  O_23
REMARK    7  A    between atoms: O_23  and  C_24
REMARK                            x       y       z     vdW  Elec       q    Type
REMARK                         _______ _______ _______ _____ _____    ______ ____
ROOT
ATOM      1  N   UNL     1      -1.181  -4.004   4.655  0.00  0.00    -0.338 N 
ATOM      2  H   UNL     1      -1.859  -3.882   3.972  0.00  0.00    +0.146 HD
ENDROOT
BRANCH   1   3
ATOM      3  C   UNL     1      -1.381  -4.932   5.681  0.00  0.00    +0.029 A 
ATOM      4  C   UNL     1      -0.413  -5.102   6.663  0.00  0.00    +0.026 A 
ATOM      5  C   UNL     1      -0.610  -6.020   7.678  0.00  0.00    +0.042 A 
ATOM      6  C   UNL     1      -1.770  -6.771   7.719  0.00  0.00    +0.145 A 
ATOM      7  C   UNL     1      -2.742  -6.605   6.738  0.00  0.00    +0.073 A 
ATOM      8  C   UNL     1      -2.549  -5.680   5.723  0.00  0.00    +0.049 A 
ATOM      9  F   UNL     1      -1.959  -7.668   8.711  0.00  0.00    -0.204 F 
BRANCH   7  10
ATOM     10  N   UNL     1      -3.917  -7.367   6.779  0.00  0.00    -0.248 N 
ATOM     11  C   UNL     1      -4.612  -7.595   5.647  0.00  0.00    +0.404 C 
ATOM     12  O   UNL     1      -4.168  -7.229   4.577  0.00  0.00    -0.226 OA
ATOM     13  H   UNL     1      -4.230  -7.731   7.622  0.00  0.00    +0.158 HD
BRANCH  11  14
ATOM     14  O   UNL     1      -5.798  -8.230   5.701  0.00  0.00    -0.453 OA
ATOM     15  C   UNL     1      -6.480  -8.438   4.463  0.00  0.00    +0.282 C 
ENDBRANCH  11  14
ENDBRANCH   7  10
ENDBRANCH   1   3
BRANCH   1  16
ATOM     16  C   UNL     1       0.052  -3.214   4.612  0.00  0.00    +0.155 C 
BRANCH  16  26
ATOM     17  C   UNL     1      -0.101   1.556   0.034  0.00  0.00    +0.064 C 
ATOM     18  C   UNL     1      -0.066   0.050   0.021  0.00  0.00    +0.033 A 
ATOM     19  C   UNL     1      -0.057  -0.596  -1.144  0.00  0.00    +0.070 A 
ATOM     20  S   UNL     1      -0.015  -2.302  -0.617  0.00  0.00    -0.059 S 
ATOM     21  C   UNL     1      -0.013  -2.002   1.138  0.00  0.00    +0.158 A 
ATOM     22  N   UNL     1      -0.040  -0.635   1.212  0.00  0.00    -0.261 N 
ATOM     23  C   UNL     1      -0.041  -0.094   2.467  0.00  0.00    +0.259 A 
ATOM     24  O   UNL     1      -0.068   1.119   2.609  0.00  0.00    -0.267 OA
ATOM     25  C   UNL     1      -0.011  -0.928   3.585  0.00  0.00    +0.093 A 
ATOM     26  C   UNL     1       0.019  -2.296   3.418  0.00  0.00    +0.040 A 
ATOM     27  N   UNL     1       0.010  -2.792   2.183  0.00  0.00    -0.337 N 
ATOM     28  H   UNL     1       0.032  -3.753   2.054  0.00  0.00    +0.168 HD
ENDBRANCH  16  26
ENDBRANCH   1  16
TORSDOF 5
