REMARK  Name = ZINC64340247
REMARK  9 active torsions:
REMARK  status: ('A' for Active; 'I' for Inactive)
REMARK    1  A    between atoms: C_1  and  C_2
REMARK    2  A    between atoms: C_2  and  C_4
REMARK    3  A    between atoms: C_2  and  N_20
REMARK    4  A    between atoms: N_6  and  N_7
REMARK    5  A    between atoms: C_8  and  C_10
REMARK    6  A    between atoms: C_10  and  C_11
REMARK    7  A    between atoms: N_20  and  S_21
REMARK    8  A    between atoms: S_21  and  C_24
REMARK    9  A    between atoms: C_25  and  C_26
REMARK                            x       y       z     vdW  Elec       q    Type
REMARK                         _______ _______ _______ _____ _____    ______ ____
ROOT
ATOM      1  C   UNL     1      -1.412  -0.526   0.013  0.00  0.00    +0.247 C 
ATOM      2  O   UNL     1      -1.790  -1.233   0.922  0.00  0.00    -0.273 OA
ATOM      3  N   UNL     1      -2.256  -0.206  -0.988  0.00  0.00    -0.233 N 
ATOM      4  H   UNL     1      -1.953   0.360  -1.716  0.00  0.00    +0.173 HD
ENDROOT
BRANCH   3   5
ATOM      5  N   UNL     1      -3.570  -0.691  -0.978  0.00  0.00    -0.234 N 
ATOM      6  C   UNL     1      -4.414  -0.371  -1.980  0.00  0.00    +0.233 C 
ATOM      7  O   UNL     1      -4.035   0.336  -2.889  0.00  0.00    -0.274 OA
ATOM      8  H   UNL     1      -3.873  -1.257  -0.251  0.00  0.00    +0.173 HD
BRANCH   6   9
ATOM      9  C   UNL     1      -5.828  -0.893  -1.969  0.00  0.00    +0.130 C 
BRANCH   9  10
ATOM     10  C   UNL     1      -6.556  -0.394  -3.190  0.00  0.00    -0.033 C 
ATOM     11  C   UNL     1      -6.714  -1.044  -4.365  0.00  0.00    -0.001 A 
ATOM     12  C   UNL     1      -6.271  -2.360  -4.841  0.00  0.00    +0.010 A 
ATOM     13  C   UNL     1      -6.589  -2.744  -6.098  0.00  0.00    +0.001 A 
ATOM     14  C   UNL     1      -7.329  -1.919  -6.956  0.00  0.00    +0.002 A 
ATOM     15  C   UNL     1      -7.771  -0.697  -6.591  0.00  0.00    +0.026 A 
ATOM     16  C   UNL     1      -7.495  -0.192  -5.290  0.00  0.00    +0.043 A 
ATOM     17  N   UNL     1      -7.808   0.941  -4.710  0.00  0.00    -0.380 N 
ATOM     18  C   UNL     1      -7.265   0.933  -3.347  0.00  0.00    +0.145 C 
ATOM     19  H   UNL     1      -8.316   1.662  -5.112  0.00  0.00    +0.160 HD
ENDBRANCH   9  10
ENDBRANCH   6   9
ENDBRANCH   3   5
BRANCH   1  21
ATOM     20  C   UNL     1      -0.019   1.526   0.010  0.00  0.00    +0.035 C 
ATOM     21  C   UNL     1       0.002  -0.004   0.002  0.00  0.00    +0.160 C 
BRANCH  21  22
ATOM     22  N   UNL     1       0.711  -0.489   1.189  0.00  0.00    -0.179 NA
ATOM     23  H   UNL     1       0.236  -0.593   2.029  0.00  0.00    +0.149 HD
BRANCH  22  24
ATOM     24  S   UNL     1       2.322  -0.861   1.097  0.00  0.00    +0.052 S 
ATOM     25  O   UNL     1       2.719  -1.271   2.398  0.00  0.00    -0.154 OA
ATOM     26  O   UNL     1       2.483  -1.690  -0.045  0.00  0.00    -0.154 OA
BRANCH  24  27
ATOM     27  C   UNL     1       3.183   0.638   0.757  0.00  0.00    +0.153 C 
ATOM     28  C   UNL     1       4.027   1.135   1.650  0.00  0.00    +0.028 C 
BRANCH  28  29
ATOM     29  C   UNL     1       4.750   2.393   1.365  0.00  0.00    -0.024 A 
ATOM     30  C   UNL     1       4.542   3.061   0.158  0.00  0.00    +0.008 A 
ATOM     31  C   UNL     1       5.220   4.234  -0.103  0.00  0.00    +0.001 A 
ATOM     32  C   UNL     1       6.104   4.748   0.829  0.00  0.00    +0.000 A 
ATOM     33  C   UNL     1       6.315   4.089   2.028  0.00  0.00    +0.001 A 
ATOM     34  C   UNL     1       5.638   2.919   2.303  0.00  0.00    +0.008 A 
ENDBRANCH  28  29
ENDBRANCH  24  27
ENDBRANCH  22  24
ENDBRANCH  21  22
ENDBRANCH   1  21
TORSDOF 8
