REMARK  Name = ZINC36500607
REMARK  17 active torsions:
REMARK  status: ('A' for Active; 'I' for Inactive)
REMARK    1  A    between atoms: C_1  and  C_2
REMARK    2  A    between atoms: C_2  and  C_3
REMARK    3  A    between atoms: C_2  and  C_4
REMARK    4  A    between atoms: C_2  and  C_5
REMARK    5  A    between atoms: C_5  and  C_6
REMARK    6  A    between atoms: C_6  and  C_7
REMARK    7  A    between atoms: C_6  and  C_8
REMARK    8  A    between atoms: C_6  and  N_9
REMARK    9  A    between atoms: C_10  and  C_12
REMARK   10  A    between atoms: C_12  and  C_14
REMARK   11  A    between atoms: C_12  and  N_23
REMARK   12  A    between atoms: C_17  and  N_20
REMARK   13  A    between atoms: N_23  and  C_24
REMARK   14  A    between atoms: C_24  and  C_25
REMARK   15  A    between atoms: C_30  and  C_32
REMARK   16  A    between atoms: C_33  and  O_39
REMARK   17  A    between atoms: C_37  and  O_38
REMARK                            x       y       z     vdW  Elec       q    Type
REMARK                         _______ _______ _______ _____ _____    ______ ____
ROOT
ATOM      1  C   UNL     1       5.039  -0.576  -4.022  0.00  0.00    +0.193 C 
ENDROOT
BRANCH   1   2
ATOM      2  C   UNL     1       5.525  -1.947  -4.417  0.00  0.00    -0.018 A 
ATOM      3  C   UNL     1       6.688  -2.452  -3.868  0.00  0.00    +0.008 A 
ATOM      4  C   UNL     1       7.134  -3.709  -4.230  0.00  0.00    +0.033 A 
ATOM      5  C   UNL     1       6.416  -4.461  -5.141  0.00  0.00    +0.126 A 
ATOM      6  C   UNL     1       5.252  -3.956  -5.689  0.00  0.00    +0.033 A 
ATOM      7  C   UNL     1       4.804  -2.701  -5.324  0.00  0.00    +0.008 A 
BRANCH   5   8
ATOM      8  N   UNL     1       6.894  -5.807  -5.530  0.00  0.00    +0.056 N 
ATOM      9  O   UNL     1       7.912  -6.249  -5.051  0.00  0.00    -0.126 OA
ATOM     10  O   UNL     1       6.266  -6.465  -6.326  0.00  0.00    -0.126 OA
ENDBRANCH   5   8
ENDBRANCH   1   2
BRANCH   1  12
ATOM     11  N   UNL     1       3.605  -1.634  -2.306  0.00  0.00    -0.308 N 
ATOM     12  C   UNL     1       4.444  -0.633  -2.638  0.00  0.00    +0.239 C 
ATOM     13  O   UNL     1       4.721   0.222  -1.823  0.00  0.00    -0.273 OA
ATOM     14  H   UNL     1       3.383  -2.317  -2.958  0.00  0.00    +0.149 HD
BRANCH  11  15
ATOM     15  C   UNL     1       3.027  -1.689  -0.961  0.00  0.00    +0.030 C 
ATOM     16  C   UNL     1       2.493  -0.308  -0.578  0.00  0.00    +0.031 C 
ATOM     17  C   UNL     1       4.104  -2.116   0.039  0.00  0.00    +0.031 C 
BRANCH  15  18
ATOM     18  C   UNL     1       1.881  -2.703  -0.939  0.00  0.00    +0.031 C 
BRANCH  18  20
ATOM     19  C   UNL     1       1.626  -3.164  -3.382  0.00  0.00    +0.010 C 
ATOM     20  C   UNL     1       0.989  -2.490  -2.164  0.00  0.00    -0.036 C 
ATOM     21  C   UNL     1       0.839  -0.991  -2.432  0.00  0.00    +0.010 C 
ATOM     22  C   UNL     1      -0.388  -3.103  -1.904  0.00  0.00    +0.010 C 
ENDBRANCH  18  20
ENDBRANCH  15  18
ENDBRANCH  11  15
ENDBRANCH   1  12
BRANCH   1  23
ATOM     23  N   UNL     1       6.163   0.363  -4.032  0.00  0.00    -0.274 N 
ATOM     24  C   UNL     1       6.673   0.792  -5.204  0.00  0.00    +0.255 C 
ATOM     25  O   UNL     1       6.199   0.400  -6.253  0.00  0.00    -0.270 OA
BRANCH  24  26
ATOM     26  C   UNL     1       7.803   1.735  -5.214  0.00  0.00    +0.119 A 
ATOM     27  C   UNL     1       9.122   1.257  -5.227  0.00  0.00    +0.133 A 
ATOM     28  C   UNL     1      10.178   2.154  -5.237  0.00  0.00    +0.046 A 
ATOM     29  C   UNL     1       9.936   3.515  -5.234  0.00  0.00    +0.007 A 
ATOM     30  C   UNL     1       8.640   3.997  -5.220  0.00  0.00    +0.046 A 
ATOM     31  C   UNL     1       7.569   3.118  -5.215  0.00  0.00    +0.133 A 
BRANCH  31  32
ATOM     32  O   UNL     1       6.299   3.593  -5.208  0.00  0.00    -0.506 OA
ATOM     33  H   UNL     1       5.936   3.733  -4.322  0.00  0.00    +0.292 HD
ENDBRANCH  31  32
BRANCH  27  34
ATOM     34  O   UNL     1       9.362  -0.078  -5.231  0.00  0.00    -0.506 OA
ATOM     35  H   UNL     1       9.422  -0.465  -6.115  0.00  0.00    +0.292 HD
ENDBRANCH  27  34
ENDBRANCH  24  26
BRANCH  23  36
ATOM     36  C   UNL     1       6.734   0.835  -2.768  0.00  0.00    +0.183 C 
BRANCH  36  37
ATOM     37  C   UNL     1       7.384  -0.318  -2.048  0.00  0.00    +0.122 A 
ATOM     38  C   UNL     1       8.662  -0.715  -2.190  0.00  0.00    +0.046 A 
ATOM     39  C   UNL     1       8.844  -1.825  -1.334  0.00  0.00    +0.041 A 
ATOM     40  C   UNL     1       7.667  -2.041  -0.720  0.00  0.00    +0.195 A 
ATOM     41  O   UNL     1       6.788  -1.122  -1.152  0.00  0.00    -0.466 OA
ENDBRANCH  36  37
ENDBRANCH  23  36
ENDBRANCH   1  23
TORSDOF 12
