REMARK  Name = ZINC59386059
REMARK  4 active torsions:
REMARK  status: ('A' for Active; 'I' for Inactive)
REMARK    1  A    between atoms: C_1  and  C_2
REMARK    2  A    between atoms: N_4  and  C_19
REMARK    3  A    between atoms: C_8  and  C_9
REMARK    4  A    between atoms: C_13  and  N_15
REMARK                            x       y       z     vdW  Elec       q    Type
REMARK                         _______ _______ _______ _____ _____    ______ ____
ROOT
ATOM      1  C   UNL     1       0.528   1.439   0.009  0.00  0.00    +0.068 C 
ATOM      2  C   UNL     1       0.174  -0.026   0.002  0.00  0.00    +0.069 C 
ATOM      3  N   UNL     1       0.011  -0.770  -1.049  0.00  0.00    -0.176 NA
ATOM      4  N   UNL     1      -0.312  -2.081  -0.700  0.00  0.00    -0.151 N 
ATOM      5  C   UNL     1      -0.363  -2.206   0.641  0.00  0.00    +0.272 C 
ATOM      6  O   UNL     1      -0.616  -3.215   1.275  0.00  0.00    -0.268 OA
ATOM      7  C   UNL     1      -0.044  -0.873   1.185  0.00  0.00    +0.062 C 
ATOM      8  C   UNL     1       0.032  -0.500   2.513  0.00  0.00    +0.023 C 
ENDROOT
BRANCH   4   9
ATOM      9  C   UNL     1      -0.549  -3.120  -1.613  0.00  0.00    +0.136 A 
ATOM     10  C   UNL     1      -1.834  -3.349  -2.089  0.00  0.00    +0.187 A 
ATOM     11  C   UNL     1      -2.066  -4.375  -2.990  0.00  0.00    +0.198 A 
ATOM     12  C   UNL     1      -1.017  -5.173  -3.418  0.00  0.00    +0.199 A 
ATOM     13  C   UNL     1       0.266  -4.947  -2.944  0.00  0.00    +0.198 A 
ATOM     14  C   UNL     1       0.503  -3.918  -2.048  0.00  0.00    +0.187 A 
ATOM     15  F   UNL     1       1.754  -3.694  -1.592  0.00  0.00    -0.200 F 
ATOM     16  F   UNL     1       1.287  -5.727  -3.362  0.00  0.00    -0.199 F 
ATOM     17  F   UNL     1      -1.246  -6.173  -4.297  0.00  0.00    -0.199 F 
ATOM     18  F   UNL     1      -3.316  -4.597  -3.452  0.00  0.00    -0.199 F 
ATOM     19  F   UNL     1      -2.857  -2.571  -1.672  0.00  0.00    -0.200 F 
ENDBRANCH   4   9
BRANCH   8  20
ATOM     20  C   UNL     1      -0.055  -1.516   3.565  0.00  0.00    -0.022 A 
ATOM     21  C   UNL     1       0.562  -2.764   3.393  0.00  0.00    +0.009 A 
ATOM     22  C   UNL     1       0.476  -3.713   4.386  0.00  0.00    +0.023 A 
ATOM     23  C   UNL     1      -0.218  -3.438   5.555  0.00  0.00    +0.071 A 
ATOM     24  C   UNL     1      -0.831  -2.208   5.733  0.00  0.00    +0.145 A 
ATOM     25  C   UNL     1      -0.750  -1.245   4.751  0.00  0.00    +0.042 A 
ATOM     26 CL   UNL     1      -0.321  -4.643   6.801  0.00  0.00    -0.081 Cl
BRANCH  24  27
ATOM     27  N   UNL     1      -1.571  -1.926   6.984  0.00  0.00    +0.058 N 
ATOM     28  O   UNL     1      -2.106  -0.854   7.141  0.00  0.00    -0.126 OA
ATOM     29  O   UNL     1      -1.639  -2.769   7.848  0.00  0.00    -0.126 OA
ENDBRANCH  24  27
ENDBRANCH   8  20
TORSDOF 3
