REMARK  Name = ZINC59170551
REMARK  6 active torsions:
REMARK  status: ('A' for Active; 'I' for Inactive)
REMARK    1  A    between atoms: C_3  and  N_8
REMARK    2  A    between atoms: C_9  and  C_11
REMARK    3  A    between atoms: C_16  and  O_32
REMARK    4  A    between atoms: N_21  and  C_22
REMARK    5  A    between atoms: C_25  and  S_28
REMARK    6  A    between atoms: S_28  and  N_31
REMARK                            x       y       z     vdW  Elec       q    Type
REMARK                         _______ _______ _______ _____ _____    ______ ____
ROOT
ATOM      1  C   UNL     1       5.987   2.222   0.227  0.00  0.00    +0.098 A 
ATOM      2  C   UNL     1       7.205   1.558   0.200  0.00  0.00    +0.030 A 
ATOM      3  C   UNL     1       8.392   2.331   0.270  0.00  0.00    +0.018 A 
ATOM      4  C   UNL     1       9.642   1.734   0.045  0.00  0.00    +0.015 A 
ATOM      5  C   UNL     1      10.773   2.495   0.074  0.00  0.00    +0.046 A 
ATOM      6  C   UNL     1      10.698   3.863   0.332  0.00  0.00    +0.120 A 
ATOM      7  C   UNL     1       9.474   4.467   0.576  0.00  0.00    +0.092 A 
ATOM      8  C   UNL     1       8.316   3.707   0.558  0.00  0.00    +0.141 A 
ATOM      9  O   UNL     1       7.119   4.279   0.838  0.00  0.00    -0.438 OA
ATOM     10  C   UNL     1       6.019   3.697   0.288  0.00  0.00    +0.212 A 
ATOM     11  N   UNL     1       5.019   4.419  -0.169  0.00  0.00    -0.325 N 
ATOM     12  H   UNL     1       4.297   3.994  -0.657  0.00  0.00    +0.169 HD
ENDROOT
BRANCH  11  13
ATOM     13  C   UNL     1       4.998   5.770   0.045  0.00  0.00    +0.042 A 
ATOM     14  C   UNL     1       5.312   6.286   1.305  0.00  0.00    +0.027 A 
ATOM     15  C   UNL     1       5.289   7.649   1.513  0.00  0.00    +0.030 A 
ATOM     16  C   UNL     1       4.955   8.505   0.478  0.00  0.00    +0.105 A 
ATOM     17  C   UNL     1       4.643   8.001  -0.772  0.00  0.00    +0.030 A 
ATOM     18  C   UNL     1       4.668   6.640  -0.997  0.00  0.00    +0.027 A 
BRANCH  16  19
ATOM     19  S   UNL     1       4.928  10.245   0.753  0.00  0.00    +0.056 S 
ATOM     20  O   UNL     1       4.056  10.797  -0.224  0.00  0.00    -0.153 OA
ATOM     21  O   UNL     1       4.726  10.433   2.147  0.00  0.00    -0.153 OA
BRANCH  19  22
ATOM     22  N   UNL     1       6.444  10.819   0.413  0.00  0.00    -0.204 NA
ATOM     23  H   UNL     1       6.557  11.722   0.079  0.00  0.00    +0.144 HD
ATOM     24  H   UNL     1       7.219  10.251   0.548  0.00  0.00    +0.144 HD
ENDBRANCH  19  22
ENDBRANCH  16  19
ENDBRANCH  11  13
BRANCH   1  26
ATOM     25  N   UNL     1       3.550   2.144   0.361  0.00  0.00    -0.281 N 
ATOM     26  C   UNL     1       4.713   1.486   0.190  0.00  0.00    +0.253 C 
ATOM     27  O   UNL     1       4.710   0.284   0.005  0.00  0.00    -0.270 OA
ATOM     28  H   UNL     1       3.547   3.110   0.454  0.00  0.00    +0.155 HD
BRANCH  25  31
ATOM     29  C   UNL     1       0.126   1.163   1.273  0.00  0.00    +0.003 A 
ATOM     30  C   UNL     1       1.315   1.865   1.231  0.00  0.00    +0.023 A 
ATOM     31  C   UNL     1       2.345   1.435   0.406  0.00  0.00    +0.035 A 
ATOM     32  C   UNL     1       2.177   0.299  -0.376  0.00  0.00    +0.043 A 
ATOM     33  C   UNL     1       0.986  -0.399  -0.330  0.00  0.00    +0.043 A 
ATOM     34  C   UNL     1      -0.039   0.033   0.494  0.00  0.00    +0.020 A 
ATOM     35 CL   UNL     1       0.774  -1.818  -1.306  0.00  0.00    -0.083 Cl
ENDBRANCH  25  31
ENDBRANCH   1  26
BRANCH   6  36
ATOM     36  O   UNL     1      11.832   4.609   0.346  0.00  0.00    -0.507 OA
ATOM     37  H   UNL     1      12.067   4.984  -0.514  0.00  0.00    +0.292 HD
ENDBRANCH   6  36
TORSDOF 6
