REMARK  Name = ZINC39243252
REMARK  10 active torsions:
REMARK  status: ('A' for Active; 'I' for Inactive)
REMARK    1  A    between atoms: C_1  and  C_2
REMARK    2  A    between atoms: C_2  and  O_3
REMARK    3  A    between atoms: O_3  and  C_4
REMARK    4  A    between atoms: C_6  and  C_16
REMARK    5  A    between atoms: C_9  and  O_10
REMARK    6  A    between atoms: O_10  and  C_11
REMARK    7  A    between atoms: C_11  and  C_12
REMARK    8  A    between atoms: C_18  and  C_29
REMARK    9  A    between atoms: C_19  and  N_28
REMARK   10  A    between atoms: C_24  and  C_27
REMARK                            x       y       z     vdW  Elec       q    Type
REMARK                         _______ _______ _______ _____ _____    ______ ____
ROOT
ATOM      1  C   UNL     1       0.777  -1.811  -1.336  0.00  0.00    +0.163 A 
ATOM      2  C   UNL     1       0.243  -2.669  -0.388  0.00  0.00    +0.054 A 
ATOM      3  C   UNL     1       0.352  -4.037  -0.554  0.00  0.00    -0.030 A 
ATOM      4  C   UNL     1       0.992  -4.553  -1.665  0.00  0.00    +0.023 A 
ATOM      5  C   UNL     1       1.527  -3.702  -2.616  0.00  0.00    +0.063 A 
ATOM      6  C   UNL     1       1.416  -2.329  -2.458  0.00  0.00    +0.176 A 
ATOM      7 BR   UNL     1       2.403  -4.412  -4.134  0.00  0.00    -0.046 Br
ENDROOT
BRANCH   3   8
ATOM      8  C   UNL     1      -0.228  -4.968   0.479  0.00  0.00    +0.098 C 
ATOM      9  C   UNL     1      -1.245  -5.895  -0.161  0.00  0.00    +0.097 C 
ATOM     10  C   UNL     1      -1.181  -7.234  -0.006  0.00  0.00    +0.195 C 
ATOM     11  O   UNL     1      -0.248  -7.920   0.679  0.00  0.00    -0.448 OA
ATOM     12  C   UNL     1       0.490  -7.209   1.676  0.00  0.00    +0.343 C 
ATOM     13  C   UNL     1       0.845  -5.866   1.032  0.00  0.00    +0.030 C 
ATOM     14  C   UNL     1       2.151  -5.789   1.100  0.00  0.00    +0.066 C 
ATOM     15  N   UNL     1       2.665  -6.941   1.603  0.00  0.00    -0.155 NA
ATOM     16  N   UNL     1       1.808  -7.798   1.927  0.00  0.00    -0.138 NA
ATOM     17  C   UNL     1       2.966  -4.594   0.679  0.00  0.00    +0.067 C 
BRANCH  10  18
ATOM     18  N   UNL     1      -2.170  -7.972  -0.608  0.00  0.00    -0.329 N 
ATOM     19  H   UNL     1      -2.867  -7.527  -1.114  0.00  0.00    +0.145 HD
ATOM     20  H   UNL     1      -2.171  -8.938  -0.527  0.00  0.00    +0.145 HD
ENDBRANCH  10  18
BRANCH   9  21
ATOM     21  C   UNL     1      -2.300  -5.334  -0.951  0.00  0.00    +0.101 C 
ATOM     22  N   UNL     1      -3.137  -4.889  -1.577  0.00  0.00    -0.191 NA
ENDBRANCH   9  21
ENDBRANCH   3   8
BRANCH   1  23
ATOM     23  O   UNL     1       0.671  -0.465  -1.174  0.00  0.00    -0.489 OA
BRANCH  23  25
ATOM     24  C   UNL     1      -0.019   1.526   0.010  0.00  0.00    +0.048 C 
ATOM     25  C   UNL     1       0.002  -0.004   0.002  0.00  0.00    +0.226 C 
ENDBRANCH  23  25
ENDBRANCH   1  23
BRANCH   6  26
ATOM     26  O   UNL     1       1.936  -1.491  -3.394  0.00  0.00    -0.478 OA
BRANCH  26  27
ATOM     27  C   UNL     1       3.293  -1.080  -3.215  0.00  0.00    +0.324 C 
BRANCH  27  28
ATOM     28  C   UNL     1       3.692  -0.161  -4.341  0.00  0.00    +0.248 C 
ATOM     29  O   UNL     1       2.893   0.114  -5.211  0.00  0.00    -0.272 OA
ATOM     30  N   UNL     1       4.937   0.354  -4.380  0.00  0.00    -0.327 N 
ATOM     31  H   UNL     1       5.575   0.134  -3.684  0.00  0.00    +0.145 HD
ATOM     32  H   UNL     1       5.194   0.946  -5.105  0.00  0.00    +0.145 HD
ENDBRANCH  27  28
ENDBRANCH  26  27
ENDBRANCH   6  26
TORSDOF 8
