REMARK  Name = ZINC57991975
REMARK  12 active torsions:
REMARK  status: ('A' for Active; 'I' for Inactive)
REMARK    1  A    between atoms: C_1  and  C_2
REMARK    2  A    between atoms: C_2  and  C_3
REMARK    3  A    between atoms: C_3  and  C_4
REMARK    4  A    between atoms: C_7  and  C_10
REMARK    5  A    between atoms: C_10  and  C_12
REMARK    6  A    between atoms: C_10  and  N_13
REMARK    7  A    between atoms: N_13  and  C_14
REMARK    8  A    between atoms: N_13  and  C_18
REMARK    9  A    between atoms: C_14  and  C_15
REMARK   10  A    between atoms: C_18  and  C_19
REMARK   11  A    between atoms: N_21  and  C_22
REMARK   12  A    between atoms: C_26  and  C_28
REMARK                            x       y       z     vdW  Elec       q    Type
REMARK                         _______ _______ _______ _____ _____    ______ ____
ROOT
ATOM      1  N   UNL     1       0.676  -7.027  -3.881  0.00  0.00    +0.395 N 
ATOM      2  H   UNL     1      -0.292  -6.907  -4.137  0.00  0.00    -0.080 HD
ENDROOT
BRANCH   1   3
ATOM      3  C   UNL     1       1.063  -5.980  -2.926  0.00  0.00    -0.040 C 
ATOM      4  C   UNL     1       0.271  -6.156  -1.629  0.00  0.00    -0.008 C 
BRANCH   3   8
ATOM      5  C   UNL     1       0.223  -2.142  -4.603  0.00  0.00    -0.047 A 
ATOM      6  C   UNL     1       1.383  -2.341  -3.878  0.00  0.00    +0.004 A 
ATOM      7  C   UNL     1       1.655  -3.583  -3.336  0.00  0.00    +0.002 A 
ATOM      8  C   UNL     1       0.766  -4.626  -3.517  0.00  0.00    -0.061 A 
ATOM      9  C   UNL     1      -0.395  -4.427  -4.240  0.00  0.00    +0.002 A 
ATOM     10  C   UNL     1      -0.669  -3.184  -4.779  0.00  0.00    +0.004 A 
BRANCH   5  11
ATOM     11  C   UNL     1      -0.073  -0.788  -5.194  0.00  0.00    +0.035 C 
BRANCH  11  13
ATOM     12  C   UNL     1      -1.159   1.424  -4.783  0.00  0.00    +0.004 C 
ATOM     13  C   UNL     1      -0.858   0.050  -4.183  0.00  0.00    +0.001 C 
ENDBRANCH  11  13
ENDBRANCH   5  11
ENDBRANCH   3   8
ENDBRANCH   1   3
BRANCH   1  14
ATOM     14  C   UNL     1       1.516  -6.928  -5.083  0.00  0.00    +0.020 C 
BRANCH  14  15
ATOM     15  C   UNL     1       1.032  -7.912  -6.116  0.00  0.00    +0.194 C 
ATOM     16  O   UNL     1       0.016  -8.545  -5.923  0.00  0.00    -0.278 OA
ATOM     17  N   UNL     1       1.730  -8.090  -7.256  0.00  0.00    -0.331 N 
ATOM     18  H   UNL     1       2.543  -7.584  -7.411  0.00  0.00    +0.145 HD
ATOM     19  H   UNL     1       1.419  -8.724  -7.921  0.00  0.00    +0.145 HD
ENDBRANCH  14  15
ENDBRANCH   1  14
BRANCH   1  20
ATOM     20  C   UNL     1       0.861  -8.347  -3.263  0.00  0.00    +0.020 C 
BRANCH  20  21
ATOM     21  C   UNL     1       2.319  -8.553  -2.945  0.00  0.00    +0.201 C 
ATOM     22  O   UNL     1       3.112  -7.652  -3.121  0.00  0.00    -0.278 OA
ATOM     23  N   UNL     1       2.743  -9.739  -2.464  0.00  0.00    -0.287 N 
ATOM     24  H   UNL     1       2.122 -10.481  -2.387  0.00  0.00    +0.155 HD
BRANCH  23  25
ATOM     25  C   UNL     1       4.077  -9.900  -2.076  0.00  0.00    +0.035 A 
ATOM     26  C   UNL     1       4.765  -8.841  -1.495  0.00  0.00    +0.023 A 
ATOM     27  C   UNL     1       6.083  -8.995  -1.110  0.00  0.00    +0.003 A 
ATOM     28  C   UNL     1       6.726 -10.201  -1.299  0.00  0.00    +0.019 A 
ATOM     29  C   UNL     1       6.045 -11.271  -1.881  0.00  0.00    +0.054 A 
ATOM     30  C   UNL     1       4.712 -11.117  -2.266  0.00  0.00    +0.042 A 
BRANCH  29  31
ATOM     31  C   UNL     1       6.709 -12.524  -2.079  0.00  0.00    +0.099 C 
ATOM     32  N   UNL     1       7.236 -13.518  -2.236  0.00  0.00    -0.191 NA
ENDBRANCH  29  31
ENDBRANCH  23  25
ENDBRANCH  20  21
ENDBRANCH   1  20
TORSDOF 10
