REMARK  Name = ZINC63316194
REMARK  10 active torsions:
REMARK  status: ('A' for Active; 'I' for Inactive)
REMARK    1  A    between atoms: C_1  and  C_2
REMARK    2  A    between atoms: C_3  and  C_13
REMARK    3  A    between atoms: C_4  and  O_12
REMARK    4  A    between atoms: C_13  and  C_14
REMARK    5  A    between atoms: C_14  and  C_15
REMARK    6  A    between atoms: N_17  and  C_18
REMARK    7  A    between atoms: C_18  and  C_19
REMARK    8  A    between atoms: C_19  and  C_20
REMARK    9  A    between atoms: C_24  and  O_29
REMARK   10  A    between atoms: O_29  and  C_30
REMARK                            x       y       z     vdW  Elec       q    Type
REMARK                         _______ _______ _______ _____ _____    ______ ____
ROOT
ATOM      1  C   UNL     1      -4.200   1.131  -1.389  0.00  0.00    +0.213 C 
ATOM      2  O   UNL     1      -4.656   1.520  -0.335  0.00  0.00    -0.276 OA
ATOM      3  N   UNL     1      -4.834   1.416  -2.544  0.00  0.00    -0.315 N 
ATOM      4  H   UNL     1      -4.469   1.105  -3.387  0.00  0.00    +0.149 HD
ENDROOT
BRANCH   1   5
ATOM      5  C   UNL     1      -2.924   0.330  -1.408  0.00  0.00    +0.100 C 
BRANCH   5   6
ATOM      6  C   UNL     1      -2.414   0.149   0.023  0.00  0.00    +0.046 C 
BRANCH   6   9
ATOM      7  C   UNL     1      -0.018   1.503   0.010  0.00  0.00    +0.061 C 
ATOM      8  C   UNL     1       0.002  -0.004   0.002  0.00  0.00    +0.011 C 
ATOM      9  C   UNL     1      -1.138  -0.652   0.004  0.00  0.00    -0.002 C 
ATOM     10  C   UNL     1      -1.241  -2.154  -0.012  0.00  0.00    +0.266 C 
ATOM     11  N   UNL     1       0.070  -2.737   0.258  0.00  0.00    -0.200 N 
ATOM     12  C   UNL     1       1.224  -2.023   0.251  0.00  0.00    +0.220 A 
ATOM     13  N   UNL     1       1.233  -0.661  -0.013  0.00  0.00    -0.288 N 
ATOM     14  N   UNL     1       2.205  -2.840   0.519  0.00  0.00    -0.201 NA
ATOM     15  C   UNL     1       1.722  -4.073   0.708  0.00  0.00    +0.247 A 
ATOM     16  N   UNL     1       0.420  -4.053   0.558  0.00  0.00    -0.154 NA
ATOM     17  H   UNL     1       2.058  -0.185  -0.197  0.00  0.00    +0.155 HD
BRANCH  10  18
ATOM     18  O   UNL     1      -2.165  -2.578   0.992  0.00  0.00    -0.367 OA
ATOM     19  H   UNL     1      -2.282  -3.537   1.039  0.00  0.00    +0.212 HD
ENDBRANCH  10  18
ENDBRANCH   6   9
ENDBRANCH   5   6
ENDBRANCH   1   5
BRANCH   3  20
ATOM     20  C   UNL     1      -6.074   2.196  -2.526  0.00  0.00    +0.108 C 
BRANCH  20  21
ATOM     21  C   UNL     1      -6.584   2.376  -3.957  0.00  0.00    +0.052 C 
BRANCH  21  22
ATOM     22  C   UNL     1      -7.860   3.178  -3.938  0.00  0.00    -0.040 C 
ATOM     23  C   UNL     1      -7.984   4.512  -4.115  0.00  0.00    -0.001 A 
ATOM     24  C   UNL     1      -7.002   5.574  -4.369  0.00  0.00    +0.013 A 
ATOM     25  C   UNL     1      -7.433   6.847  -4.506  0.00  0.00    +0.046 A 
ATOM     26  C   UNL     1      -8.797   7.179  -4.410  0.00  0.00    +0.122 A 
ATOM     27  C   UNL     1      -9.759   6.250  -4.177  0.00  0.00    +0.071 A 
ATOM     28  C   UNL     1      -9.414   4.885  -4.019  0.00  0.00    +0.046 A 
ATOM     29  N   UNL     1     -10.146   3.819  -3.790  0.00  0.00    -0.380 N 
ATOM     30  C   UNL     1      -9.261   2.651  -3.723  0.00  0.00    +0.144 C 
ATOM     31  H   UNL     1     -11.110   3.806  -3.687  0.00  0.00    +0.160 HD
BRANCH  26  32
ATOM     32  O   UNL     1      -9.165   8.476  -4.556  0.00  0.00    -0.495 OA
ATOM     33  C   UNL     1      -8.122   9.422  -4.800  0.00  0.00    +0.277 C 
ENDBRANCH  26  32
ENDBRANCH  21  22
ENDBRANCH  20  21
ENDBRANCH   3  20
TORSDOF 8
