REMARK  Name = ZINC09288653
REMARK  11 active torsions:
REMARK  status: ('A' for Active; 'I' for Inactive)
REMARK    1  A    between atoms: C_1  and  N_65
REMARK    2  A    between atoms: C_2  and  C_3
REMARK    3  A    between atoms: C_2  and  N_65
REMARK    4  A    between atoms: C_3  and  C_4
REMARK    5  A    between atoms: C_4  and  N_5
REMARK    6  A    between atoms: C_6  and  C_8
REMARK    7  A    between atoms: C_9  and  S_20
REMARK    8  A    between atoms: C_13  and  O_18
REMARK    9  A    between atoms: O_18  and  C_19
REMARK   10  A    between atoms: S_20  and  C_21
REMARK   11  A    between atoms: C_28  and  N_65
REMARK                            x       y       z     vdW  Elec       q    Type
REMARK                         _______ _______ _______ _____ _____    ______ ____
ROOT
ATOM      1  C   UNL     1       7.586   2.508   3.664  0.00  0.00    +0.117 A 
ATOM      2  C   UNL     1       8.543   2.325   4.644  0.00  0.00    +0.050 A 
ATOM      3  C   UNL     1       9.645   3.238   4.328  0.00  0.00    +0.014 A 
ATOM      4  C   UNL     1      10.875   3.507   4.939  0.00  0.00    +0.015 A 
ATOM      5  C   UNL     1      11.714   4.436   4.398  0.00  0.00    +0.046 A 
ATOM      6  C   UNL     1      11.356   5.122   3.239  0.00  0.00    +0.122 A 
ATOM      7  C   UNL     1      10.146   4.871   2.620  0.00  0.00    +0.071 A 
ATOM      8  C   UNL     1       9.276   3.926   3.157  0.00  0.00    +0.052 A 
ATOM      9  N   UNL     1       8.038   3.471   2.768  0.00  0.00    -0.350 N 
ATOM     10  H   UNL     1       7.551   3.777   1.987  0.00  0.00    +0.166 HD
ENDROOT
BRANCH   1  12
ATOM     11  N   UNL     1       5.496   2.090   2.575  0.00  0.00    -0.310 N 
ATOM     12  C   UNL     1       6.350   1.823   3.583  0.00  0.00    +0.261 C 
ATOM     13  O   UNL     1       6.058   0.991   4.424  0.00  0.00    -0.269 OA
ATOM     14  H   UNL     1       5.729   2.752   1.905  0.00  0.00    +0.149 HD
BRANCH  11  15
ATOM     15  C   UNL     1       4.217   1.381   2.491  0.00  0.00    +0.103 C 
BRANCH  15  16
ATOM     16  C   UNL     1       3.444   1.868   1.264  0.00  0.00    +0.000 C 
BRANCH  16  17
ATOM     17  C   UNL     1       2.108   1.127   1.176  0.00  0.00    -0.077 C 
BRANCH  17  19
ATOM     18  C   UNL     1       2.056   1.218  -1.243  0.00  0.00    -0.096 C 
ATOM     19  N   UNL     1       1.364   1.623  -0.001  0.00  0.00    +0.380 N 
ATOM     20  H   UNL     1       1.323   2.648   0.038  0.00  0.00    -0.082 HD
BRANCH  19  21
ATOM     21  C   UNL     1      -0.013   1.086   0.008  0.00  0.00    -0.069 C 
ATOM     22  C   UNL     1      -0.729   1.579   1.267  0.00  0.00    -0.015 C 
ATOM     23  C   UNL     1      -2.164   1.050   1.278  0.00  0.00    -0.002 C 
ATOM     24  C   UNL     1      -2.904   1.556   0.038  0.00  0.00    -0.000 C 
ATOM     25  C   UNL     1      -2.188   1.063  -1.221  0.00  0.00    -0.002 C 
ATOM     26  C   UNL     1      -0.753   1.593  -1.232  0.00  0.00    -0.015 C 
ENDBRANCH  19  21
ENDBRANCH  17  19
ENDBRANCH  16  17
ENDBRANCH  15  16
ENDBRANCH  11  15
ENDBRANCH   1  12
BRANCH   6  27
ATOM     27  O   UNL     1      12.203   6.044   2.713  0.00  0.00    -0.495 OA
ATOM     28  C   UNL     1      13.438   6.257   3.400  0.00  0.00    +0.277 C 
ENDBRANCH   6  27
BRANCH   2  29
ATOM     29  S   UNL     1       8.457   1.211   6.006  0.00  0.00    -0.087 S 
BRANCH  29  30
ATOM     30  C   UNL     1       9.190  -0.217   5.280  0.00  0.00    +0.013 A 
ATOM     31  C   UNL     1       9.623  -0.183   3.960  0.00  0.00    +0.016 A 
ATOM     32  C   UNL     1      10.202  -1.302   3.395  0.00  0.00    +0.021 A 
ATOM     33  C   UNL     1      10.341  -2.461   4.139  0.00  0.00    +0.041 A 
ATOM     34  C   UNL     1       9.906  -2.500   5.452  0.00  0.00    +0.021 A 
ATOM     35  C   UNL     1       9.331  -1.382   6.024  0.00  0.00    +0.016 A 
ATOM     36 CL   UNL     1      11.064  -3.868   3.424  0.00  0.00    -0.084 Cl
ENDBRANCH  29  30
ENDBRANCH   2  29
TORSDOF 9
