REMARK  Name = ZINC15495861
REMARK  6 active torsions:
REMARK  status: ('A' for Active; 'I' for Inactive)
REMARK    1  A    between atoms: C_6  and  N_7
REMARK    2  A    between atoms: C_10  and  C_15
REMARK    3  A    between atoms: C_15  and  S_16
REMARK    4  A    between atoms: S_16  and  C_17
REMARK    5  A    between atoms: C_17  and  C_18
REMARK    6  A    between atoms: N_20  and  C_21
REMARK                            x       y       z     vdW  Elec       q    Type
REMARK                         _______ _______ _______ _____ _____    ______ ____
ROOT
ATOM      1  N   UNL     1       1.858  -0.119  -3.105  0.00  0.00    -0.284 N 
ATOM      2  C   UNL     1       0.531  -0.343  -2.793  0.00  0.00    +0.224 A 
ATOM      3  N   UNL     1      -0.181   0.608  -2.192  0.00  0.00    -0.198 NA
ATOM      4  C   UNL     1      -1.451   0.395  -1.892  0.00  0.00    +0.146 A 
ATOM      5  N   UNL     1      -2.018  -0.762  -2.188  0.00  0.00    -0.199 NA
ATOM      6  C   UNL     1      -1.312  -1.717  -2.789  0.00  0.00    +0.217 A 
ATOM      7  N   UNL     1      -0.036  -1.506  -3.091  0.00  0.00    -0.181 NA
ATOM      8  N   UNL     1      -1.905  -2.924  -3.096  0.00  0.00    -0.327 N 
ATOM      9  H   UNL     1       2.248   0.757  -2.963  0.00  0.00    +0.155 HD
ATOM     10  H   UNL     1      -2.837  -3.077  -2.875  0.00  0.00    +0.145 HD
ATOM     11  H   UNL     1      -1.390  -3.620  -3.534  0.00  0.00    +0.145 HD
ENDROOT
BRANCH   1  17
ATOM     12  C   UNL     1       2.410  -2.467  -3.228  0.00  0.00    +0.026 A 
ATOM     13  C   UNL     1       3.177  -3.490  -3.749  0.00  0.00    +0.040 A 
ATOM     14  C   UNL     1       4.182  -3.209  -4.660  0.00  0.00    +0.124 A 
ATOM     15  C   UNL     1       4.415  -1.903  -5.055  0.00  0.00    +0.040 A 
ATOM     16  C   UNL     1       3.646  -0.877  -4.541  0.00  0.00    +0.026 A 
ATOM     17  C   UNL     1       2.638  -1.157  -3.627  0.00  0.00    +0.034 A 
ATOM     18  F   UNL     1       4.935  -4.211  -5.164  0.00  0.00    -0.205 F 
ENDBRANCH   1  17
BRANCH   4  19
ATOM     19  C   UNL     1      -2.255   1.476  -1.218  0.00  0.00    +0.145 C 
BRANCH  19  20
ATOM     20  S   UNL     1      -2.122   1.295   0.583  0.00  0.00    -0.144 S 
BRANCH  20  21
ATOM     21  C   UNL     1      -3.132   2.652   1.236  0.00  0.00    +0.165 C 
BRANCH  21  22
ATOM     22  C   UNL     1      -3.106   2.617   2.743  0.00  0.00    +0.227 C 
ATOM     23  O   UNL     1      -2.469   1.760   3.319  0.00  0.00    -0.275 OA
ATOM     24  N   UNL     1      -3.791   3.537   3.450  0.00  0.00    -0.285 N 
ATOM     25  H   UNL     1      -4.356   4.179   2.992  0.00  0.00    +0.155 HD
BRANCH  24  26
ATOM     26  C   UNL     1      -3.688   3.566   4.846  0.00  0.00    +0.033 A 
ATOM     27  C   UNL     1      -4.779   3.946   5.616  0.00  0.00    +0.024 A 
ATOM     28  C   UNL     1      -4.676   3.969   6.993  0.00  0.00    +0.017 A 
ATOM     29  C   UNL     1      -3.484   3.624   7.605  0.00  0.00    +0.018 A 
ATOM     30  C   UNL     1      -2.394   3.250   6.839  0.00  0.00    +0.017 A 
ATOM     31  C   UNL     1      -2.493   3.220   5.462  0.00  0.00    +0.024 A 
ATOM     32 BR   UNL     1      -3.345   3.663   9.490  0.00  0.00    -0.050 Br
ENDBRANCH  24  26
ENDBRANCH  21  22
ENDBRANCH  20  21
ENDBRANCH  19  20
ENDBRANCH   4  19
TORSDOF 6
