REMARK  Name = ZINC37826637
REMARK  3 active torsions:
REMARK  status: ('A' for Active; 'I' for Inactive)
REMARK    1  A    between atoms: C_1  and  N_2
REMARK    2  A    between atoms: C_3  and  C_5
REMARK    3  A    between atoms: C_11  and  C_13
REMARK                            x       y       z     vdW  Elec       q    Type
REMARK                         _______ _______ _______ _____ _____    ______ ____
ROOT
ATOM      1  C   UNL     1       0.625  -2.182   0.995  0.00  0.00    +0.162 C 
ATOM      2  C   UNL     1      -0.818  -2.727   1.050  0.00  0.00    +0.033 C 
ATOM      3  C   UNL     1      -0.688  -3.963   1.978  0.00  0.00    +0.021 C 
ATOM      4  C   UNL     1       0.381  -3.481   2.990  0.00  0.00    +0.108 C 
ATOM      5  N   UNL     1       1.328  -2.679   2.187  0.00  0.00    -0.291 N 
ATOM      6  C   UNL     1       2.619  -2.442   2.494  0.00  0.00    +0.202 C 
ATOM      7  O   UNL     1       3.303  -1.766   1.755  0.00  0.00    -0.277 OA
ENDROOT
BRANCH   6   8
ATOM      8  C   UNL     1       3.211  -3.017   3.754  0.00  0.00    +0.017 C 
ATOM      9  C   UNL     1       2.471  -2.458   4.985  0.00  0.00    -0.005 C 
ATOM     10  C   UNL     1       3.561  -1.703   5.797  0.00  0.00    -0.026 C 
ATOM     11  C   UNL     1       3.521  -0.245   5.333  0.00  0.00    +0.002 C 
ATOM     12  C   UNL     1       4.784   0.496   5.763  0.00  0.00    +0.000 C 
ATOM     13  C   UNL     1       5.992  -0.168   5.093  0.00  0.00    -0.002 C 
ATOM     14  C   UNL     1       6.100  -1.602   5.612  0.00  0.00    -0.015 C 
ATOM     15  C   UNL     1       4.847  -2.404   5.323  0.00  0.00    -0.068 C 
ATOM     16  N   UNL     1       4.633  -2.611   3.875  0.00  0.00    +0.389 N 
ATOM     17  H   UNL     1       5.236  -3.343   3.529  0.00  0.00    -0.084 HD
ATOM     18  H   UNL     1       4.796  -1.753   3.370  0.00  0.00    -0.084 HD
ENDBRANCH   6   8
BRANCH   1  21
ATOM     19  C   UNL     1      -0.018   1.461   0.010  0.00  0.00    +0.128 C 
ATOM     20  N   UNL     1       0.002  -0.004   0.002  0.00  0.00    -0.317 N 
ATOM     21  C   UNL     1       0.604  -0.675   1.004  0.00  0.00    +0.233 C 
ATOM     22  O   UNL     1       1.130  -0.067   1.911  0.00  0.00    -0.274 OA
ATOM     23  H   UNL     1      -0.418  -0.491  -0.724  0.00  0.00    +0.148 HD
ENDBRANCH   1  21
TORSDOF 2
