REMARK  Name = ZINC65306012
REMARK  8 active torsions:
REMARK  status: ('A' for Active; 'I' for Inactive)
REMARK    1  A    between atoms: C_1  and  C_2
REMARK    2  A    between atoms: C_2  and  C_3
REMARK    3  A    between atoms: C_3  and  C_4
REMARK    4  A    between atoms: C_4  and  C_6
REMARK    5  A    between atoms: C_4  and  N_18
REMARK    6  A    between atoms: N_8  and  C_9
REMARK    7  A    between atoms: C_19  and  C_21
REMARK    8  A    between atoms: C_21  and  C_22
REMARK                            x       y       z     vdW  Elec       q    Type
REMARK                         _______ _______ _______ _____ _____    ______ ____
ROOT
ATOM      1  C   UNL     1       0.763  -2.041   1.233  0.00  0.00    +0.159 C 
ENDROOT
BRANCH   1   2
ATOM      2  C   UNL     1       1.382  -2.542   2.512  0.00  0.00    +0.236 C 
ATOM      3  O   UNL     1       2.383  -3.225   2.474  0.00  0.00    -0.274 OA
ATOM      4  N   UNL     1       0.824  -2.230   3.699  0.00  0.00    -0.277 N 
ATOM      5  H   UNL     1       0.023  -1.683   3.729  0.00  0.00    +0.152 HD
BRANCH   4   6
ATOM      6  C   UNL     1       1.426  -2.717   4.942  0.00  0.00    +0.269 C 
ATOM      7  N   UNL     1       1.076  -4.128   5.153  0.00  0.00    -0.348 N 
ATOM      8  C   UNL     1       0.416  -4.203   6.272  0.00  0.00    +0.061 A 
ATOM      9  C   UNL     1      -0.189  -5.326   7.002  0.00  0.00    +0.027 A 
ATOM     10  C   UNL     1      -0.826  -5.096   8.167  0.00  0.00    +0.002 A 
ATOM     11  C   UNL     1      -0.943  -3.811   8.727  0.00  0.00    +0.002 A 
ATOM     12  C   UNL     1      -0.426  -2.713   8.140  0.00  0.00    +0.027 A 
ATOM     13  C   UNL     1       0.292  -2.843   6.865  0.00  0.00    +0.061 A 
ATOM     14  N   UNL     1       0.881  -1.980   6.089  0.00  0.00    -0.348 N 
ATOM     15  H   UNL     1       1.296  -4.867   4.566  0.00  0.00    +0.163 HD
ATOM     16  H   UNL     1       0.948  -1.024   6.240  0.00  0.00    +0.163 HD
ENDBRANCH   4   6
ENDBRANCH   1   2
BRANCH   1  17
ATOM     17  N   UNL     1       1.551  -2.512   0.092  0.00  0.00    -0.304 N 
ATOM     18  C   UNL     1       0.972  -2.642  -1.119  0.00  0.00    +0.218 C 
ATOM     19  O   UNL     1      -0.200  -2.369  -1.263  0.00  0.00    -0.275 OA
ATOM     20  H   UNL     1       2.489  -2.731   0.207  0.00  0.00    +0.149 HD
BRANCH  18  21
ATOM     21  C   UNL     1       1.783  -3.127  -2.293  0.00  0.00    +0.132 C 
BRANCH  21  22
ATOM     22  C   UNL     1       0.908  -3.183  -3.519  0.00  0.00    -0.020 A 
ATOM     23  C   UNL     1       0.288  -4.367  -3.872  0.00  0.00    +0.005 A 
ATOM     24  C   UNL     1      -0.514  -4.418  -4.997  0.00  0.00    +0.000 A 
ATOM     25  C   UNL     1      -0.698  -3.285  -5.768  0.00  0.00    +0.001 A 
ATOM     26  C   UNL     1      -0.079  -2.101  -5.415  0.00  0.00    +0.020 A 
ATOM     27  C   UNL     1       0.720  -2.048  -4.287  0.00  0.00    +0.045 A 
ATOM     28 CL   UNL     1       1.492  -0.559  -3.840  0.00  0.00    -0.083 Cl
ENDBRANCH  21  22
ENDBRANCH  18  21
ENDBRANCH   1  17
BRANCH   1  29
ATOM     29  C   UNL     1       0.742  -0.511   1.242  0.00  0.00    +0.031 C 
BRANCH  29  31
ATOM     30  C   UNL     1      -0.019   1.526   0.010  0.00  0.00    +0.004 C 
ATOM     31  C   UNL     1       0.002  -0.004   0.002  0.00  0.00    -0.001 C 
ENDBRANCH  29  31
ENDBRANCH   1  29
TORSDOF 7
