REMARK  Name = ZINC67332065
REMARK  8 active torsions:
REMARK  status: ('A' for Active; 'I' for Inactive)
REMARK    1  A    between atoms: C_3  and  S_25
REMARK    2  A    between atoms: C_6  and  C_7
REMARK    3  A    between atoms: C_7  and  C_8
REMARK    4  A    between atoms: N_10  and  C_11
REMARK    5  A    between atoms: C_11  and  C_12
REMARK    6  A    between atoms: N_17  and  C_18
REMARK    7  A    between atoms: C_18  and  C_19
REMARK    8  A    between atoms: S_25  and  N_28
REMARK                            x       y       z     vdW  Elec       q    Type
REMARK                         _______ _______ _______ _____ _____    ______ ____
ROOT
ATOM      1  C   UNL     1      -1.639  -1.141  -0.961  0.00  0.00    +0.217 C 
ATOM      2  O   UNL     1      -0.901  -0.690  -1.812  0.00  0.00    -0.275 OA
ATOM      3  N   UNL     1      -2.782  -1.758  -1.319  0.00  0.00    -0.317 N 
ATOM      4  H   UNL     1      -3.372  -2.119  -0.639  0.00  0.00    +0.149 HD
ENDROOT
BRANCH   1   5
ATOM      5  C   UNL     1      -1.278  -1.010   0.496  0.00  0.00    +0.130 C 
BRANCH   5  11
ATOM      6  C   UNL     1       0.060   1.092   0.734  0.00  0.00    +0.006 A 
ATOM      7  C   UNL     1       1.267   1.756   0.852  0.00  0.00    +0.029 A 
ATOM      8  C   UNL     1       2.451   1.042   0.861  0.00  0.00    +0.105 A 
ATOM      9  C   UNL     1       2.428  -0.336   0.752  0.00  0.00    +0.029 A 
ATOM     10  C   UNL     1       1.222  -1.000   0.635  0.00  0.00    +0.006 A 
ATOM     11  C   UNL     1       0.038  -0.286   0.625  0.00  0.00    -0.039 A 
BRANCH   8  12
ATOM     12  S   UNL     1       3.989   1.889   1.011  0.00  0.00    +0.056 S 
ATOM     13  O   UNL     1       4.977   1.039   0.445  0.00  0.00    -0.153 OA
ATOM     14  O   UNL     1       3.769   3.215   0.548  0.00  0.00    -0.153 OA
BRANCH  12  15
ATOM     15  N   UNL     1       4.330   2.002   2.627  0.00  0.00    -0.204 NA
ATOM     16  H   UNL     1       3.717   1.630   3.280  0.00  0.00    +0.144 HD
ATOM     17  H   UNL     1       5.144   2.440   2.921  0.00  0.00    +0.144 HD
ENDBRANCH  12  15
ENDBRANCH   8  12
ENDBRANCH   5  11
ENDBRANCH   1   5
BRANCH   3  18
ATOM     18  C   UNL     1      -3.134  -1.885  -2.736  0.00  0.00    +0.089 C 
BRANCH  18  19
ATOM     19  C   UNL     1      -4.469  -2.620  -2.866  0.00  0.00    -0.051 C 
ATOM     20  C   UNL     1      -4.767  -2.909  -4.353  0.00  0.00    -0.016 C 
ATOM     21  C   UNL     1      -4.282  -4.372  -4.529  0.00  0.00    -0.020 C 
ATOM     22  C   UNL     1      -4.657  -4.992  -3.159  0.00  0.00    -0.078 C 
ATOM     23  N   UNL     1      -4.397  -3.919  -2.172  0.00  0.00    +0.383 N 
ATOM     24  H   UNL     1      -3.478  -4.039  -1.772  0.00  0.00    -0.081 HD
BRANCH  23  25
ATOM     25  C   UNL     1      -5.407  -3.967  -1.107  0.00  0.00    -0.075 C 
BRANCH  25  26
ATOM     26  C   UNL     1      -5.237  -5.256  -0.300  0.00  0.00    -0.028 C 
ATOM     27  C   UNL     1      -6.373  -5.374   0.718  0.00  0.00    +0.002 C 
ATOM     28  C   UNL     1      -6.203  -6.663   1.524  0.00  0.00    +0.000 C 
ATOM     29  C   UNL     1      -4.862  -6.632   2.259  0.00  0.00    +0.000 C 
ATOM     30  C   UNL     1      -3.725  -6.513   1.241  0.00  0.00    +0.000 C 
ATOM     31  C   UNL     1      -3.896  -5.224   0.435  0.00  0.00    +0.002 C 
ENDBRANCH  25  26
ENDBRANCH  23  25
ENDBRANCH  18  19
ENDBRANCH   3  18
TORSDOF 8
