REMARK  Name = ZINC63514970
REMARK  11 active torsions:
REMARK  status: ('A' for Active; 'I' for Inactive)
REMARK    1  A    between atoms: C_1  and  C_2
REMARK    2  A    between atoms: C_4  and  C_17
REMARK    3  A    between atoms: C_7  and  O_12
REMARK    4  A    between atoms: O_12  and  C_13
REMARK    5  A    between atoms: C_17  and  C_18
REMARK    6  A    between atoms: C_18  and  N_19
REMARK    7  A    between atoms: C_20  and  C_22
REMARK    8  A    between atoms: C_28  and  C_30
REMARK    9  A    between atoms: C_30  and  O_32
REMARK   10  A    between atoms: O_32  and  C_33
REMARK   11  A    between atoms: C_33  and  C_34
REMARK                            x       y       z     vdW  Elec       q    Type
REMARK                         _______ _______ _______ _____ _____    ______ ____
ROOT
ATOM      1  C   UNL     1       1.363  -0.963  -3.578  0.00  0.00    +0.108 C 
ENDROOT
BRANCH   1   2
ATOM      2  N   UNL     1       0.997  -0.729  -4.977  0.00  0.00    -0.315 N 
ATOM      3  C   UNL     1       1.750  -1.249  -5.967  0.00  0.00    +0.217 C 
ATOM      4  O   UNL     1       2.731  -1.910  -5.699  0.00  0.00    -0.275 OA
ATOM      5  H   UNL     1       0.212  -0.201  -5.192  0.00  0.00    +0.149 HD
BRANCH   3   6
ATOM      6  C   UNL     1       1.373  -1.009  -7.406  0.00  0.00    +0.089 C 
ATOM      7  C   UNL     1      -0.024  -1.575  -7.669  0.00  0.00    +0.013 C 
ATOM      8  C   UNL     1      -0.027  -3.078  -7.385  0.00  0.00    +0.001 C 
ATOM      9  C   UNL     1       0.984  -3.772  -8.299  0.00  0.00    +0.001 C 
ATOM     10  C   UNL     1       2.381  -3.207  -8.037  0.00  0.00    +0.015 C 
ATOM     11  C   UNL     1       2.385  -1.703  -8.321  0.00  0.00    +0.110 C 
BRANCH  11  12
ATOM     12  C   UNL     1       3.761  -1.146  -8.062  0.00  0.00    +0.311 C 
ATOM     13  O   UNL     1       3.917  -0.282  -7.232  0.00  0.00    -0.251 OA
BRANCH  12  14
ATOM     14  O   UNL     1       4.813  -1.609  -8.755  0.00  0.00    -0.455 OA
BRANCH  14  15
ATOM     15  C   UNL     1       6.088  -1.036  -8.458  0.00  0.00    +0.345 C 
BRANCH  15  16
ATOM     16  C   UNL     1       7.157  -1.685  -9.340  0.00  0.00    +0.424 C 
ATOM     17  F   UNL     1       6.848  -1.463 -10.686  0.00  0.00    -0.167 F 
ATOM     18  F   UNL     1       8.405  -1.123  -9.049  0.00  0.00    -0.167 F 
ATOM     19  F   UNL     1       7.195  -3.061  -9.090  0.00  0.00    -0.167 F 
ENDBRANCH  15  16
ENDBRANCH  14  15
ENDBRANCH  12  14
ENDBRANCH  11  12
ENDBRANCH   3   6
ENDBRANCH   1   2
BRANCH   1  20
ATOM     20  C   UNL     1       0.352  -0.269  -2.664  0.00  0.00    +0.052 C 
BRANCH  20  23
ATOM     21  C   UNL     1      -0.019   1.526   0.010  0.00  0.00    +0.035 C 
ATOM     22  C   UNL     1       0.002  -0.004   0.002  0.00  0.00    +0.103 C 
ATOM     23  C   UNL     1       0.729  -0.509  -1.224  0.00  0.00    -0.037 C 
ATOM     24  C   UNL     1       1.785  -1.220  -0.768  0.00  0.00    +0.003 A 
ATOM     25  C   UNL     1       2.858  -1.954  -1.447  0.00  0.00    +0.056 A 
ATOM     26  C   UNL     1       3.803  -2.586  -0.711  0.00  0.00    +0.129 A 
ATOM     27  C   UNL     1       3.796  -2.567   0.695  0.00  0.00    +0.048 A 
ATOM     28  C   UNL     1       2.851  -1.919   1.409  0.00  0.00    +0.029 A 
ATOM     29  C   UNL     1       1.779  -1.200   0.713  0.00  0.00    +0.043 A 
ATOM     30  N   UNL     1       0.758  -0.506   1.155  0.00  0.00    -0.378 N 
ATOM     31  H   UNL     1       0.540  -0.349   2.087  0.00  0.00    +0.160 HD
BRANCH  26  32
ATOM     32  O   UNL     1       4.792  -3.263  -1.353  0.00  0.00    -0.420 OA
BRANCH  32  33
ATOM     33  C   UNL     1       5.767  -3.915  -0.537  0.00  0.00    +0.489 C 
ATOM     34  F   UNL     1       6.417  -2.968   0.261  0.00  0.00    -0.149 F 
ATOM     35  F   UNL     1       5.136  -4.859   0.280  0.00  0.00    -0.149 F 
ATOM     36 CL   UNL     1       6.974  -4.743  -1.590  0.00  0.00    +0.000 Cl
ENDBRANCH  32  33
ENDBRANCH  26  32
ENDBRANCH  20  23
ENDBRANCH   1  20
TORSDOF 10
