REMARK  Name = ZINC12622976
REMARK  11 active torsions:
REMARK  status: ('A' for Active; 'I' for Inactive)
REMARK    1  A    between atoms: C_1  and  C_2
REMARK    2  A    between atoms: C_2  and  N_3
REMARK    3  A    between atoms: N_3  and  C_4
REMARK    4  A    between atoms: N_3  and  S_10
REMARK    5  A    between atoms: S_10  and  C_13
REMARK    6  A    between atoms: C_15  and  N_20
REMARK    7  A    between atoms: C_21  and  C_23
REMARK    8  A    between atoms: C_23  and  N_68
REMARK    9  A    between atoms: C_25  and  C_34
REMARK   10  A    between atoms: C_30  and  C_32
REMARK   11  A    between atoms: C_30  and  C_33
REMARK                            x       y       z     vdW  Elec       q    Type
REMARK                         _______ _______ _______ _____ _____    ______ ____
ROOT
ATOM      1  C   UNL     1      -3.788   2.009   7.087  0.00  0.00    +0.129 A 
ATOM      2  C   UNL     1      -3.608   1.907   5.721  0.00  0.00    +0.053 A 
ATOM      3  C   UNL     1      -4.653   2.214   4.860  0.00  0.00    +0.035 A 
ATOM      4  C   UNL     1      -5.880   2.611   5.375  0.00  0.00    +0.025 A 
ATOM      5  C   UNL     1      -6.057   2.705   6.741  0.00  0.00    +0.024 A 
ATOM      6  C   UNL     1      -5.012   2.404   7.597  0.00  0.00    +0.068 A 
ATOM      7 CL   UNL     1      -5.238   2.523   9.315  0.00  0.00    -0.082 Cl
ENDROOT
BRANCH   3   8
ATOM      8  N   UNL     1      -4.471   2.118   3.475  0.00  0.00    -0.287 N 
ATOM      9  C   UNL     1      -3.267   2.386   2.933  0.00  0.00    +0.201 C 
ATOM     10  O   UNL     1      -2.366   2.799   3.633  0.00  0.00    -0.278 OA
ATOM     11  H   UNL     1      -5.212   1.858   2.906  0.00  0.00    +0.155 HD
BRANCH   9  12
ATOM     12  C   UNL     1      -3.040   2.174   1.459  0.00  0.00    +0.019 C 
BRANCH  12  23
ATOM     13  C   UNL     1      -1.353   3.951   1.330  0.00  0.00    -0.071 C 
ATOM     14  C   UNL     1      -0.431   4.362   0.157  0.00  0.00    -0.048 C 
ATOM     15  C   UNL     1       0.064   3.004  -0.413  0.00  0.00    -0.011 C 
ATOM     16  C   UNL     1      -1.232   2.164  -0.232  0.00  0.00    -0.067 C 
ATOM     17  C   UNL     1      -2.220   2.616  -1.294  0.00  0.00    -0.009 C 
ATOM     18  C   UNL     1      -2.370   4.108  -1.494  0.00  0.00    -0.036 C 
ATOM     19  C   UNL     1      -1.287   5.008  -0.931  0.00  0.00    +0.011 C 
ATOM     20  C   UNL     1      -3.738   4.563  -0.953  0.00  0.00    +0.011 C 
ATOM     21  C   UNL     1      -2.414   4.358  -3.025  0.00  0.00    +0.011 C 
ATOM     22  C   UNL     1       0.727   5.261   0.613  0.00  0.00    +0.009 C 
ATOM     23  N   UNL     1      -1.610   2.522   1.154  0.00  0.00    +0.388 N 
ATOM     24  H   UNL     1      -1.013   1.997   1.803  0.00  0.00    -0.081 HD
ENDBRANCH  12  23
ENDBRANCH   9  12
ENDBRANCH   3   8
BRANCH   1  25
ATOM     25  S   UNL     1      -2.461   1.627   8.181  0.00  0.00    +0.076 S 
ATOM     26  O   UNL     1      -2.985   0.742   9.162  0.00  0.00    -0.150 OA
ATOM     27  O   UNL     1      -1.348   1.287   7.366  0.00  0.00    -0.150 OA
BRANCH  25  28
ATOM     28  N   UNL     1      -2.060   3.025   8.972  0.00  0.00    -0.203 N 
BRANCH  28  29
ATOM     29  C   UNL     1      -1.471   4.080   8.270  0.00  0.00    +0.051 A 
ATOM     30  C   UNL     1      -0.731   3.825   7.122  0.00  0.00    +0.025 A 
ATOM     31  C   UNL     1      -0.155   4.871   6.428  0.00  0.00    +0.002 A 
ATOM     32  C   UNL     1      -0.305   6.169   6.881  0.00  0.00    +0.000 A 
ATOM     33  C   UNL     1      -1.036   6.426   8.026  0.00  0.00    +0.002 A 
ATOM     34  C   UNL     1      -1.620   5.385   8.722  0.00  0.00    +0.025 A 
ENDBRANCH  28  29
BRANCH  28  36
ATOM     35  C   UNL     1      -1.046   2.844  11.190  0.00  0.00    +0.026 C 
ATOM     36  C   UNL     1      -2.322   3.156  10.407  0.00  0.00    +0.128 C 
ENDBRANCH  28  36
ENDBRANCH  25  28
ENDBRANCH   1  25
TORSDOF 7
