REMARK  Name = ZINC13135813
REMARK  15 active torsions:
REMARK  status: ('A' for Active; 'I' for Inactive)
REMARK    1  A    between atoms: C_1  and  C_2
REMARK    2  A    between atoms: C_2  and  C_3
REMARK    3  A    between atoms: C_3  and  C_5
REMARK    4  A    between atoms: C_3  and  N_33
REMARK    5  A    between atoms: C_8  and  S_18
REMARK    6  A    between atoms: N_9  and  C_10
REMARK    7  A    between atoms: C_13  and  O_16
REMARK    8  A    between atoms: O_16  and  C_17
REMARK    9  A    between atoms: S_18  and  C_19
REMARK   10  A    between atoms: C_19  and  C_20
REMARK   11  A    between atoms: N_22  and  C_23
REMARK   12  A    between atoms: C_27  and  S_29
REMARK   13  A    between atoms: S_29  and  N_32
REMARK   14  A    between atoms: N_33  and  C_34
REMARK   15  A    between atoms: N_33  and  C_35
REMARK                            x       y       z     vdW  Elec       q    Type
REMARK                         _______ _______ _______ _____ _____    ______ ____
ROOT
ATOM      1  C   UNL     1       0.717  -1.822  -1.551  0.00  0.00    +0.125 A 
ATOM      2  N   UNL     1       1.382  -2.706  -0.863  0.00  0.00    -0.135 NA
ATOM      3  N   UNL     1       1.106  -3.890  -1.279  0.00  0.00    -0.122 NA
ATOM      4  C   UNL     1       0.241  -3.827  -2.265  0.00  0.00    +0.197 A 
ATOM      5  N   UNL     1      -0.040  -2.504  -2.466  0.00  0.00    -0.275 N 
ENDROOT
BRANCH   5   6
ATOM      6  C   UNL     1      -0.919  -1.958  -3.416  0.00  0.00    +0.050 A 
ATOM      7  C   UNL     1      -2.054  -1.277  -3.000  0.00  0.00    +0.030 A 
ATOM      8  C   UNL     1      -2.918  -0.740  -3.934  0.00  0.00    +0.047 A 
ATOM      9  C   UNL     1      -2.651  -0.882  -5.288  0.00  0.00    +0.120 A 
ATOM     10  C   UNL     1      -1.516  -1.563  -5.704  0.00  0.00    +0.047 A 
ATOM     11  C   UNL     1      -0.649  -2.095  -4.770  0.00  0.00    +0.030 A 
BRANCH   9  12
ATOM     12  O   UNL     1      -3.502  -0.353  -6.207  0.00  0.00    -0.495 OA
ATOM     13  C   UNL     1      -3.165  -0.537  -7.584  0.00  0.00    +0.277 C 
ENDBRANCH   9  12
ENDBRANCH   5   6
BRANCH   1  14
ATOM     14  C   UNL     1       0.765  -0.326  -1.369  0.00  0.00    +0.000 C 
BRANCH  14  15
ATOM     15  N   UNL     1       2.163   0.105  -1.231  0.00  0.00    +0.383 N 
ATOM     16  C   UNL     1       2.884  -0.166  -2.482  0.00  0.00    -0.096 C 
ATOM     17  C   UNL     1       2.205   1.545  -0.943  0.00  0.00    -0.096 C 
ATOM     18  H   UNL     1       2.598  -0.402  -0.475  0.00  0.00    -0.082 HD
ENDBRANCH  14  15
BRANCH  14  20
ATOM     19  C   UNL     1       0.662  -0.555   1.117  0.00  0.00    +0.002 C 
ATOM     20  C   UNL     1      -0.014   0.060  -0.110  0.00  0.00    -0.011 C 
ENDBRANCH  14  20
ENDBRANCH   1  14
BRANCH   4  21
ATOM     21  S   UNL     1      -0.435  -5.189  -3.154  0.00  0.00    -0.076 S 
BRANCH  21  22
ATOM     22  C   UNL     1       0.339  -6.641  -2.389  0.00  0.00    +0.173 C 
BRANCH  22  23
ATOM     23  C   UNL     1      -0.160  -7.891  -3.066  0.00  0.00    +0.227 C 
ATOM     24  O   UNL     1      -0.959  -7.811  -3.975  0.00  0.00    -0.275 OA
ATOM     25  N   UNL     1       0.281  -9.098  -2.661  0.00  0.00    -0.285 N 
ATOM     26  H   UNL     1       0.965  -9.160  -1.975  0.00  0.00    +0.155 HD
BRANCH  25  27
ATOM     27  C   UNL     1      -0.246 -10.263  -3.229  0.00  0.00    +0.035 A 
ATOM     28  C   UNL     1      -0.419 -11.400  -2.451  0.00  0.00    +0.023 A 
ATOM     29  C   UNL     1      -0.940 -12.548  -3.016  0.00  0.00    +0.004 A 
ATOM     30  C   UNL     1      -1.288 -12.566  -4.354  0.00  0.00    +0.028 A 
ATOM     31  C   UNL     1      -1.116 -11.436  -5.131  0.00  0.00    +0.107 A 
ATOM     32  C   UNL     1      -0.602 -10.283  -4.571  0.00  0.00    +0.051 A 
BRANCH  31  33
ATOM     33  S   UNL     1      -1.561 -11.464  -6.836  0.00  0.00    +0.056 S 
ATOM     34  O   UNL     1      -0.794 -10.450  -7.473  0.00  0.00    -0.153 OA
ATOM     35  O   UNL     1      -1.514 -12.824  -7.246  0.00  0.00    -0.153 OA
BRANCH  33  36
ATOM     36  N   UNL     1      -3.145 -10.993  -6.937  0.00  0.00    -0.204 NA
ATOM     37  H   UNL     1      -3.464 -10.531  -7.728  0.00  0.00    +0.144 HD
ATOM     38  H   UNL     1      -3.754 -11.180  -6.205  0.00  0.00    +0.144 HD
ENDBRANCH  33  36
ENDBRANCH  31  33
ENDBRANCH  25  27
ENDBRANCH  22  23
ENDBRANCH  21  22
ENDBRANCH   4  21
TORSDOF 11
