REMARK  Name = ZINC20562328
REMARK  10 active torsions:
REMARK  status: ('A' for Active; 'I' for Inactive)
REMARK    1  A    between atoms: C_1  and  C_2
REMARK    2  A    between atoms: C_2  and  C_3
REMARK    3  A    between atoms: C_3  and  C_4
REMARK    4  A    between atoms: C_7  and  C_10
REMARK    5  A    between atoms: C_10  and  C_12
REMARK    6  A    between atoms: C_10  and  N_13
REMARK    7  A    between atoms: N_13  and  C_14
REMARK    8  A    between atoms: C_14  and  C_15
REMARK    9  A    between atoms: C_15  and  N_17
REMARK   10  A    between atoms: C_20  and  C_23
REMARK                            x       y       z     vdW  Elec       q    Type
REMARK                         _______ _______ _______ _____ _____    ______ ____
ROOT
ATOM      1  C   UNL     1       0.585  -8.754   2.030  0.00  0.00    +0.221 C 
ATOM      2  O   UNL     1       1.102  -7.965   2.798  0.00  0.00    -0.276 OA
ENDROOT
BRANCH   1   3
ATOM      3  N   UNL     1       0.836 -10.052   2.144  0.00  0.00    -0.158 NA
ATOM      4  C   UNL     1       1.655 -10.492   3.101  0.00  0.00    +0.163 A 
ATOM      5  N   UNL     1       2.031 -11.771   3.365  0.00  0.00    -0.335 N 
ATOM      6  C   UNL     1       2.889 -12.006   4.403  0.00  0.00    +0.055 A 
ATOM      7  C   UNL     1       3.308 -10.928   5.103  0.00  0.00    +0.074 A 
ATOM      8  S   UNL     1       2.475  -9.595   4.262  0.00  0.00    -0.060 S 
ATOM      9  H   UNL     1       1.696 -12.505   2.826  0.00  0.00    +0.168 HD
BRANCH   6  10
ATOM     10  C   UNL     1       3.337 -13.374   4.744  0.00  0.00    -0.001 A 
ATOM     11  C   UNL     1       2.889 -14.464   3.997  0.00  0.00    +0.011 A 
ATOM     12  C   UNL     1       3.311 -15.738   4.320  0.00  0.00    +0.016 A 
ATOM     13  C   UNL     1       4.176 -15.935   5.382  0.00  0.00    +0.018 A 
ATOM     14  C   UNL     1       4.624 -14.857   6.127  0.00  0.00    +0.016 A 
ATOM     15  C   UNL     1       4.213 -13.578   5.810  0.00  0.00    +0.011 A 
ATOM     16 BR   UNL     1       4.749 -17.683   5.818  0.00  0.00    -0.050 Br
ENDBRANCH   6  10
ENDBRANCH   1   3
BRANCH   1  17
ATOM     17  C   UNL     1      -0.341  -8.258   0.950  0.00  0.00    +0.018 C 
BRANCH  17  18
ATOM     18  N   UNL     1      -0.453  -6.796   1.034  0.00  0.00    +0.389 N 
ATOM     19  H   UNL     1       0.459  -6.381   0.913  0.00  0.00    -0.084 HD
ATOM     20  H   UNL     1      -0.822  -6.538   1.938  0.00  0.00    -0.084 HD
BRANCH  18  21
ATOM     21  C   UNL     1      -1.355  -6.312  -0.019  0.00  0.00    -0.043 C 
ATOM     22  C   UNL     1      -2.768  -6.841   0.236  0.00  0.00    -0.009 C 
BRANCH  21  26
ATOM     23  C   UNL     1      -1.413  -2.041   0.005  0.00  0.00    -0.047 A 
ATOM     24  C   UNL     1      -1.409  -2.725  -1.196  0.00  0.00    +0.004 A 
ATOM     25  C   UNL     1      -1.391  -4.107  -1.204  0.00  0.00    +0.002 A 
ATOM     26  C   UNL     1      -1.375  -4.805  -0.011  0.00  0.00    -0.062 A 
ATOM     27  C   UNL     1      -1.378  -4.120   1.190  0.00  0.00    +0.002 A 
ATOM     28  C   UNL     1      -1.392  -2.738   1.198  0.00  0.00    +0.004 A 
BRANCH  23  29
ATOM     29  C   UNL     1      -1.433  -0.534   0.013  0.00  0.00    +0.035 C 
BRANCH  29  31
ATOM     30  C   UNL     1      -0.019   1.526   0.010  0.00  0.00    +0.004 C 
ATOM     31  C   UNL     1       0.002  -0.004   0.002  0.00  0.00    +0.001 C 
ENDBRANCH  29  31
ENDBRANCH  23  29
ENDBRANCH  21  26
ENDBRANCH  18  21
ENDBRANCH  17  18
ENDBRANCH   1  17
TORSDOF 8
