REMARK  Name = ZINC63437324
REMARK  8 active torsions:
REMARK  status: ('A' for Active; 'I' for Inactive)
REMARK    1  A    between atoms: C_1  and  C_2
REMARK    2  A    between atoms: C_5  and  N_8
REMARK    3  A    between atoms: C_9  and  C_11
REMARK    4  A    between atoms: C_11  and  C_13
REMARK    5  A    between atoms: C_11  and  N_23
REMARK    6  A    between atoms: C_13  and  C_14
REMARK    7  A    between atoms: C_24  and  C_26
REMARK    8  A    between atoms: C_29  and  C_32
REMARK                            x       y       z     vdW  Elec       q    Type
REMARK                         _______ _______ _______ _____ _____    ______ ____
ROOT
ATOM      1  C   UNL     1      -1.974  -2.330   4.984  0.00  0.00    +0.163 C 
ENDROOT
BRANCH   1   3
ATOM      2  N   UNL     1      -0.865  -1.779   2.842  0.00  0.00    -0.311 N 
ATOM      3  C   UNL     1      -0.984  -2.623   3.885  0.00  0.00    +0.234 C 
ATOM      4  O   UNL     1      -0.295  -3.620   3.940  0.00  0.00    -0.274 OA
ATOM      5  H   UNL     1      -1.416  -0.982   2.798  0.00  0.00    +0.149 HD
BRANCH   2  10
ATOM      6  C   UNL     1       0.857   2.173   1.327  0.00  0.00    +0.007 C 
ATOM      7  C   UNL     1       0.938   0.661   1.104  0.00  0.00    -0.014 C 
ATOM      8  C   UNL     1      -0.440   0.129   0.705  0.00  0.00    +0.005 C 
ATOM      9  C   UNL     1      -0.358  -1.382   0.483  0.00  0.00    +0.022 C 
ATOM     10  C   UNL     1       0.097  -2.064   1.775  0.00  0.00    +0.073 C 
ATOM     11  C   UNL     1       1.474  -1.532   2.174  0.00  0.00    +0.022 C 
ATOM     12  C   UNL     1       1.393  -0.021   2.396  0.00  0.00    +0.005 C 
ENDBRANCH   2  10
ENDBRANCH   1   3
BRANCH   1  13
ATOM     13  N   UNL     1      -1.912  -3.390   5.993  0.00  0.00    -0.300 N 
ATOM     14  C   UNL     1      -2.242  -3.123   7.272  0.00  0.00    +0.245 C 
ATOM     15  O   UNL     1      -2.591  -2.002   7.588  0.00  0.00    -0.270 OA
ATOM     16  H   UNL     1      -1.633  -4.284   5.741  0.00  0.00    +0.150 HD
BRANCH  14  17
ATOM     17  C   UNL     1      -2.180  -4.193   8.291  0.00  0.00    +0.037 A 
ATOM     18  C   UNL     1      -1.773  -5.479   7.932  0.00  0.00    +0.013 A 
ATOM     19  C   UNL     1      -1.717  -6.473   8.887  0.00  0.00    +0.005 A 
ATOM     20  C   UNL     1      -2.062  -6.196  10.198  0.00  0.00    -0.041 A 
ATOM     21  C   UNL     1      -2.466  -4.923  10.560  0.00  0.00    +0.005 A 
ATOM     22  C   UNL     1      -2.521  -3.919   9.616  0.00  0.00    +0.013 A 
BRANCH  20  23
ATOM     23  C   UNL     1      -1.998  -7.287  11.237  0.00  0.00    -0.003 C 
ATOM     24  C   UNL     1      -0.566  -7.816  11.333  0.00  0.00    +0.015 C 
ATOM     25  C   UNL     1      -0.501  -8.923  12.387  0.00  0.00    -0.010 C 
ATOM     26  C   UNL     1      -0.930  -8.361  13.744  0.00  0.00    +0.007 C 
ATOM     27  C   UNL     1      -2.362  -7.832  13.648  0.00  0.00    -0.010 C 
ATOM     28  C   UNL     1      -2.427  -6.725  12.594  0.00  0.00    +0.015 C 
ATOM     29  C   UNL     1      -3.301  -8.972  13.248  0.00  0.00    +0.007 C 
ATOM     30  C   UNL     1      -2.873  -9.534  11.891  0.00  0.00    -0.010 C 
ATOM     31  C   UNL     1      -1.440 -10.063  11.988  0.00  0.00    +0.007 C 
ATOM     32  C   UNL     1      -2.938  -8.427  10.837  0.00  0.00    +0.015 C 
ENDBRANCH  20  23
ENDBRANCH  14  17
ENDBRANCH   1  13
BRANCH   1  33
ATOM     33  C   UNL     1      -3.385  -2.267   4.396  0.00  0.00    +0.065 C 
BRANCH  33  34
ATOM     34  C   UNL     1      -3.741  -3.606   3.802  0.00  0.00    -0.039 C 
ATOM     35  C   UNL     1      -4.417  -4.609   4.406  0.00  0.00    -0.001 A 
ATOM     36  C   UNL     1      -5.000  -4.750   5.746  0.00  0.00    +0.010 A 
ATOM     37  C   UNL     1      -5.631  -5.902   6.069  0.00  0.00    +0.001 A 
ATOM     38  C   UNL     1      -5.742  -6.962   5.159  0.00  0.00    +0.002 A 
ATOM     39  C   UNL     1      -5.233  -6.907   3.910  0.00  0.00    +0.026 A 
ATOM     40  C   UNL     1      -4.549  -5.743   3.463  0.00  0.00    +0.043 A 
ATOM     41  N   UNL     1      -3.976  -5.452   2.320  0.00  0.00    -0.380 N 
ATOM     42  C   UNL     1      -3.421  -4.096   2.407  0.00  0.00    +0.144 C 
ATOM     43  H   UNL     1      -3.930  -6.033   1.545  0.00  0.00    +0.160 HD
ENDBRANCH  33  34
ENDBRANCH   1  33
TORSDOF 7
