REMARK  Name = ZINC20222079
REMARK  4 active torsions:
REMARK  status: ('A' for Active; 'I' for Inactive)
REMARK    1  A    between atoms: C_1  and  O_2
REMARK    2  A    between atoms: O_2  and  C_3
REMARK    3  A    between atoms: C_9  and  O_20
REMARK    4  A    between atoms: C_11  and  N_19
REMARK                            x       y       z     vdW  Elec       q    Type
REMARK                         _______ _______ _______ _____ _____    ______ ____
ROOT
ATOM      1  C   UNL     1       2.405   0.029   0.000  0.00  0.00    +0.121 A 
ATOM      2  C   UNL     1       2.386   1.416  -0.003  0.00  0.00    +0.049 A 
ATOM      3  C   UNL     1       1.181   2.087   0.002  0.00  0.00    +0.049 A 
ATOM      4  C   UNL     1      -0.017   1.379   0.010  0.00  0.00    +0.127 A 
ATOM      5  C   UNL     1       0.002  -0.004   0.002  0.00  0.00    +0.024 A 
ATOM      6  C   UNL     1       1.213  -0.677   0.002  0.00  0.00    +0.055 A 
ATOM      7  C   UNL     1      -1.272  -0.808  -0.019  0.00  0.00    +0.137 C 
ATOM      8  C   UNL     1      -2.451   0.053   0.424  0.00  0.00    +0.003 C 
ATOM      9  C   UNL     1      -2.390   1.406  -0.279  0.00  0.00    +0.101 C 
ATOM     10  O   UNL     1      -1.181   2.078   0.040  0.00  0.00    -0.487 OA
ATOM     11  C   UNL     1      -3.597   2.264   0.147  0.00  0.00    +0.046 C 
ATOM     12  C   UNL     1      -3.999   3.019  -1.145  0.00  0.00    +0.004 C 
ATOM     13  C   UNL     1      -3.774   1.954  -2.248  0.00  0.00    +0.004 C 
ATOM     14  C   UNL     1      -2.500   1.208  -1.799  0.00  0.00    +0.046 C 
ENDROOT
BRANCH   8  15
ATOM     15  N   UNL     1      -2.390   0.254   1.878  0.00  0.00    +0.384 N 
ATOM     16  H   UNL     1      -3.240   0.874   2.199  0.00  0.00    -0.089 HD
ATOM     17  H   UNL     1      -1.448   0.758   2.139  0.00  0.00    -0.089 HD
ATOM     18  H   UNL     1      -2.436  -0.722   2.385  0.00  0.00    -0.089 HD
ENDBRANCH   8  15
BRANCH   1  20
ATOM     19  C   UNL     1       4.779   0.156  -0.000  0.00  0.00    +0.277 C 
ATOM     20  O   UNL     1       3.591  -0.637   0.002  0.00  0.00    -0.495 OA
ENDBRANCH   1  20
BRANCH   7  21
ATOM     21  O   UNL     1      -1.508  -1.285  -1.346  0.00  0.00    -0.389 OA
ATOM     22  H   UNL     1      -2.397  -1.896  -1.561  0.00  0.00    +0.210 HD
ENDBRANCH   7  21
TORSDOF 3
