REMARK  Name = ZINC60379179
REMARK  5 active torsions:
REMARK  status: ('A' for Active; 'I' for Inactive)
REMARK    1  A    between atoms: C_4  and  N_17
REMARK    2  A    between atoms: C_5  and  C_7
REMARK    3  A    between atoms: C_7  and  N_8
REMARK    4  A    between atoms: C_12  and  C_14
REMARK    5  A    between atoms: C_18  and  C_20
REMARK                            x       y       z     vdW  Elec       q    Type
REMARK                         _______ _______ _______ _____ _____    ______ ____
ROOT
ATOM      1  C   UNL     1      -0.009   1.392  -0.023  0.00  0.00    +0.000 A 
ATOM      2  C   UNL     1       1.179   2.098  -0.028  0.00  0.00    +0.002 A 
ATOM      3  C   UNL     1       2.385   1.424  -0.033  0.00  0.00    +0.023 A 
ATOM      4  C   UNL     1       2.402   0.035  -0.032  0.00  0.00    +0.035 A 
ATOM      5  C   UNL     1       1.206  -0.671  -0.026  0.00  0.00    -0.043 A 
ATOM      6  C   UNL     1       0.004   0.009  -0.022  0.00  0.00    +0.003 A 
ENDROOT
BRANCH   4   7
ATOM      7  N   UNL     1       3.621  -0.650  -0.036  0.00  0.00    -0.281 N 
ATOM      8  C   UNL     1       4.730  -0.057   0.449  0.00  0.00    +0.249 C 
ATOM      9  O   UNL     1       4.652   1.032   0.983  0.00  0.00    -0.270 OA
ATOM     10  H   UNL     1       3.669  -1.553  -0.389  0.00  0.00    +0.155 HD
BRANCH   8  11
ATOM     11  C   UNL     1       6.039  -0.731   0.333  0.00  0.00    +0.051 A 
ATOM     12  C   UNL     1       6.133  -1.980  -0.285  0.00  0.00    +0.014 A 
ATOM     13  C   UNL     1       7.359  -2.603  -0.391  0.00  0.00    +0.001 A 
ATOM     14  C   UNL     1       8.495  -1.995   0.113  0.00  0.00    +0.001 A 
ATOM     15  C   UNL     1       8.410  -0.758   0.727  0.00  0.00    +0.016 A 
ATOM     16  C   UNL     1       7.190  -0.120   0.835  0.00  0.00    +0.030 A 
ATOM     17 BR   UNL     1       7.078   1.575   1.666  0.00  0.00    -0.050 Br
ENDBRANCH   8  11
ENDBRANCH   4   7
BRANCH   5  18
ATOM     18  C   UNL     1       1.221  -2.178  -0.025  0.00  0.00    -0.040 C 
BRANCH  18  19
ATOM     19  N   UNL     1       1.471  -2.664   1.339  0.00  0.00    +0.390 N 
ATOM     20  C   UNL     1       0.307  -2.366   2.211  0.00  0.00    -0.077 C 
ATOM     21  C   UNL     1       0.461  -3.384   3.368  0.00  0.00    -0.020 C 
ATOM     22  C   UNL     1       0.983  -4.649   2.649  0.00  0.00    -0.008 C 
ATOM     23  C   UNL     1       1.608  -4.137   1.338  0.00  0.00    +0.019 C 
ATOM     24  H   UNL     1       2.306  -2.238   1.713  0.00  0.00    -0.080 HD
BRANCH  23  25
ATOM     25  C   UNL     1       3.065  -4.518   1.281  0.00  0.00    +0.197 C 
ATOM     26  O   UNL     1       3.916  -3.654   1.244  0.00  0.00    -0.278 OA
ATOM     27  N   UNL     1       3.422  -5.817   1.271  0.00  0.00    -0.331 N 
ATOM     28  H   UNL     1       2.741  -6.507   1.300  0.00  0.00    +0.145 HD
ATOM     29  H   UNL     1       4.360  -6.062   1.234  0.00  0.00    +0.145 HD
ENDBRANCH  23  25
ENDBRANCH  18  19
ENDBRANCH   5  18
TORSDOF 5
