REMARK  Name = ZINC40702177
REMARK  8 active torsions:
REMARK  status: ('A' for Active; 'I' for Inactive)
REMARK    1  A    between atoms: C_1  and  C_2
REMARK    2  A    between atoms: C_2  and  N_3
REMARK    3  A    between atoms: N_3  and  C_4
REMARK    4  A    between atoms: C_15  and  N_34
REMARK    5  A    between atoms: C_16  and  N_20
REMARK    6  A    between atoms: N_20  and  C_21
REMARK    7  A    between atoms: C_24  and  O_27
REMARK    8  A    between atoms: O_27  and  C_28
REMARK                            x       y       z     vdW  Elec       q    Type
REMARK                         _______ _______ _______ _____ _____    ______ ____
ROOT
ATOM      1  N   UNL     1       0.148  -1.403  -0.721  0.00  0.00    -0.283 N 
ATOM      2  C   UNL     1      -0.624  -1.515  -1.873  0.00  0.00    +0.151 A 
ATOM      3  C   UNL     1      -1.836  -0.831  -1.983  0.00  0.00    +0.104 A 
ATOM      4  C   UNL     1      -2.571  -0.978  -3.161  0.00  0.00    +0.126 A 
ATOM      5  N   UNL     1      -2.091  -1.759  -4.127  0.00  0.00    -0.333 N 
ATOM      6  C   UNL     1      -0.942  -2.387  -3.982  0.00  0.00    +0.200 A 
ATOM      7  N   UNL     1      -0.215  -2.271  -2.889  0.00  0.00    -0.220 NA
ATOM      8  H   UNL     1      -2.595  -1.867  -4.949  0.00  0.00    +0.168 HD
ENDROOT
BRANCH   1   9
ATOM      9  C   UNL     1       0.044  -2.364   0.283  0.00  0.00    +0.043 A 
ATOM     10  C   UNL     1      -0.876  -2.213   1.299  0.00  0.00    +0.024 A 
ATOM     11  C   UNL     1      -0.987  -3.166   2.306  0.00  0.00    +0.002 A 
ATOM     12  C   UNL     1      -0.193  -4.272   2.317  0.00  0.00    +0.008 A 
ATOM     13  C   UNL     1       0.758  -4.465   1.300  0.00  0.00    -0.016 A 
ATOM     14  C   UNL     1       0.876  -3.504   0.266  0.00  0.00    +0.003 A 
ATOM     15  C   UNL     1       1.823  -3.700  -0.752  0.00  0.00    +0.010 A 
ATOM     16  C   UNL     1       2.609  -4.812  -0.736  0.00  0.00    +0.001 A 
ATOM     17  C   UNL     1       2.489  -5.760   0.278  0.00  0.00    +0.001 A 
ATOM     18  C   UNL     1       1.591  -5.597   1.287  0.00  0.00    +0.008 A 
ENDBRANCH   1   9
BRANCH   3  19
ATOM     19  N   UNL     1      -2.303  -0.018  -0.939  0.00  0.00    -0.353 N 
ATOM     20  H   UNL     1      -1.746   0.139  -0.160  0.00  0.00    +0.143 HD
ATOM     21  H   UNL     1      -3.183   0.387  -0.995  0.00  0.00    +0.143 HD
ENDBRANCH   3  19
BRANCH   1  23
ATOM     22  C   UNL     1       2.463  -0.683  -1.046  0.00  0.00    +0.025 C 
ATOM     23  C   UNL     1       1.069  -0.275  -0.564  0.00  0.00    +0.109 C 
ENDBRANCH   1  23
BRANCH   4  24
ATOM     24  N   UNL     1      -3.784  -0.319  -3.323  0.00  0.00    -0.299 N 
ATOM     25  H   UNL     1      -4.144   0.219  -2.601  0.00  0.00    +0.154 HD
BRANCH  24  26
ATOM     26  C   UNL     1      -4.487  -0.433  -4.529  0.00  0.00    +0.033 A 
ATOM     27  C   UNL     1      -5.049   0.694  -5.114  0.00  0.00    +0.027 A 
ATOM     28  C   UNL     1      -5.742   0.581  -6.303  0.00  0.00    +0.048 A 
ATOM     29  C   UNL     1      -5.876  -0.657  -6.913  0.00  0.00    +0.129 A 
ATOM     30  C   UNL     1      -5.315  -1.784  -6.329  0.00  0.00    +0.048 A 
ATOM     31  C   UNL     1      -4.617  -1.672  -5.143  0.00  0.00    +0.027 A 
BRANCH  29  32
ATOM     32  O   UNL     1      -6.559  -0.768  -8.084  0.00  0.00    -0.456 OA
BRANCH  32  33
ATOM     33  C   UNL     1      -7.002   0.373  -8.674  0.00  0.00    +0.128 A 
ATOM     34  C   UNL     1      -6.119   1.181  -9.375  0.00  0.00    +0.046 A 
ATOM     35  C   UNL     1      -6.572   2.340  -9.975  0.00  0.00    +0.004 A 
ATOM     36  C   UNL     1      -7.904   2.696  -9.875  0.00  0.00    +0.000 A 
ATOM     37  C   UNL     1      -8.787   1.893  -9.177  0.00  0.00    +0.004 A 
ATOM     38  C   UNL     1      -8.340   0.729  -8.581  0.00  0.00    +0.046 A 
ENDBRANCH  32  33
ENDBRANCH  29  32
ENDBRANCH  24  26
ENDBRANCH   4  24
TORSDOF 7
