REMARK  Name = ZINC36789792
REMARK  11 active torsions:
REMARK  status: ('A' for Active; 'I' for Inactive)
REMARK    1  A    between atoms: C_1  and  C_2
REMARK    2  A    between atoms: C_2  and  C_3
REMARK    3  A    between atoms: C_3  and  C_4
REMARK    4  A    between atoms: C_4  and  C_6
REMARK    5  A    between atoms: C_4  and  N_7
REMARK    6  A    between atoms: N_7  and  C_8
REMARK    7  A    between atoms: N_7  and  C_9
REMARK    8  A    between atoms: C_9  and  C_11
REMARK    9  A    between atoms: C_9  and  C_12
REMARK   10  A    between atoms: N_14  and  C_15
REMARK   11  A    between atoms: C_16  and  N_23
REMARK                            x       y       z     vdW  Elec       q    Type
REMARK                         _______ _______ _______ _____ _____    ______ ____
ROOT
ATOM      1  C   UNL     1       2.066  -2.039  -0.249  0.00  0.00    +0.203 C 
ATOM      2  O   UNL     1       2.116  -1.872   0.951  0.00  0.00    -0.277 OA
ATOM      3  N   UNL     1       3.166  -1.845  -1.003  0.00  0.00    -0.284 N 
ATOM      4  H   UNL     1       3.109  -1.906  -1.969  0.00  0.00    +0.155 HD
ENDROOT
BRANCH   3   5
ATOM      5  C   UNL     1       4.394  -1.556  -0.390  0.00  0.00    +0.073 A 
ATOM      6  C   UNL     1       5.548  -2.236  -0.780  0.00  0.00    +0.049 A 
ATOM      7  C   UNL     1       6.759  -1.945  -0.171  0.00  0.00    +0.044 A 
ATOM      8  C   UNL     1       6.821  -0.983   0.822  0.00  0.00    +0.044 A 
ATOM      9  C   UNL     1       5.677  -0.309   1.209  0.00  0.00    +0.042 A 
ATOM     10  C   UNL     1       4.465  -0.589   0.603  0.00  0.00    +0.065 A 
ATOM     11 CL   UNL     1       3.034   0.265   1.087  0.00  0.00    -0.082 Cl
ATOM     12 CL   UNL     1       8.339  -0.622   1.584  0.00  0.00    -0.083 Cl
BRANCH   6  13
ATOM     13  N   UNL     1       5.483  -3.208  -1.783  0.00  0.00    -0.356 N 
ATOM     14  H   UNL     1       4.635  -3.411  -2.209  0.00  0.00    +0.142 HD
ATOM     15  H   UNL     1       6.286  -3.680  -2.054  0.00  0.00    +0.142 HD
ENDBRANCH   6  13
ENDBRANCH   3   5
BRANCH   1  16
ATOM     16  C   UNL     1       0.773  -2.463  -0.898  0.00  0.00    +0.016 C 
ATOM     17  C   UNL     1      -0.336  -1.482  -0.514  0.00  0.00    -0.004 C 
BRANCH  16  18
ATOM     18  N   UNL     1       0.414  -3.812  -0.438  0.00  0.00    +0.387 N 
ATOM     19  C   UNL     1       1.625  -4.639  -0.357  0.00  0.00    -0.095 C 
ATOM     20  H   UNL     1      -0.015  -3.753   0.473  0.00  0.00    -0.081 HD
BRANCH  18  21
ATOM     21  C   UNL     1      -0.530  -4.417  -1.387  0.00  0.00    -0.071 C 
ATOM     22  C   UNL     1      -1.375  -3.319  -2.036  0.00  0.00    -0.013 C 
BRANCH  21  23
ATOM     23  C   UNL     1      -1.444  -5.393  -0.644  0.00  0.00    -0.016 C 
BRANCH  23  25
ATOM     24  C   UNL     1      -1.516  -7.498   0.700  0.00  0.00    +0.004 C 
ATOM     25  C   UNL     1      -0.614  -6.558  -0.102  0.00  0.00    -0.005 C 
ENDBRANCH  23  25
ENDBRANCH  21  23
ENDBRANCH  18  21
ENDBRANCH  16  18
ENDBRANCH   1  16
TORSDOF 7
