REMARK  Name = ZINC17191602
REMARK  9 active torsions:
REMARK  status: ('A' for Active; 'I' for Inactive)
REMARK    1  A    between atoms: C_1  and  C_2
REMARK    2  A    between atoms: C_17  and  C_18
REMARK    3  A    between atoms: C_17  and  C_19
REMARK    4  A    between atoms: C_19  and  C_20
REMARK    5  A    between atoms: C_20  and  C_21
REMARK    6  A    between atoms: C_21  and  C_25
REMARK    7  A    between atoms: C_22  and  C_23
REMARK    8  A    between atoms: C_23  and  O_24
REMARK    9  A    between atoms: C_25  and  O_26
REMARK                            x       y       z     vdW  Elec       q    Type
REMARK                         _______ _______ _______ _____ _____    ______ ____
ROOT
ATOM      1  C   UNL     1      -0.302  -2.880   0.136  0.00  0.00    +0.008 C 
ATOM      2  C   UNL     1       0.092  -1.740   1.081  0.00  0.00    -0.008 C 
ATOM      3  C   UNL     1      -1.147  -0.931   1.425  0.00  0.00    +0.005 C 
ATOM      4  C   UNL     1      -0.833   0.339   2.229  0.00  0.00    +0.016 C 
ATOM      5  C   UNL     1       0.156   1.150   1.389  0.00  0.00    +0.040 C 
ATOM      6  C   UNL     1      -0.589   1.622   0.134  0.00  0.00    +0.244 C 
ATOM      7  O   UNL     1      -1.468   2.653   0.734  0.00  0.00    -0.460 OA
ATOM      8  C   UNL     1      -0.807   3.235   1.779  0.00  0.00    +0.336 C 
ATOM      9  O   UNL     1      -1.207   4.171   2.456  0.00  0.00    -0.245 OA
ATOM     10  C   UNL     1       0.473   2.520   1.934  0.00  0.00    +0.042 C 
ATOM     11  C   UNL     1       1.639   2.984   2.334  0.00  0.00    -0.016 C 
ATOM     12  C   UNL     1       2.855   2.092   2.156  0.00  0.00    +0.028 C 
ATOM     13  C   UNL     1       2.590   1.230   0.891  0.00  0.00    +0.009 C 
ATOM     14  C   UNL     1       1.420   0.326   1.277  0.00  0.00    +0.009 C 
ATOM     15  C   UNL     1       1.212  -0.914   0.418  0.00  0.00    -0.025 C 
ATOM     16  C   UNL     1       0.888  -0.606  -1.039  0.00  0.00    +0.012 C 
ENDROOT
BRANCH  15  17
ATOM     17  C   UNL     1       2.497  -1.775   0.450  0.00  0.00    +0.011 C 
BRANCH  17  18
ATOM     18  C   UNL     1       2.870  -2.081   1.902  0.00  0.00    +0.033 C 
BRANCH  18  19
ATOM     19  C   UNL     1       4.069  -2.993   1.931  0.00  0.00    -0.046 C 
ATOM     20  C   UNL     1       5.274  -2.488   2.024  0.00  0.00    +0.002 C 
BRANCH  20  21
ATOM     21  C   UNL     1       5.469  -0.994   1.999  0.00  0.00    +0.183 C 
BRANCH  21  22
ATOM     22  O   UNL     1       6.559  -0.671   1.132  0.00  0.00    -0.391 OA
ATOM     23  H   UNL     1       6.742   0.277   1.067  0.00  0.00    +0.210 HD
ENDBRANCH  21  22
ENDBRANCH  20  21
BRANCH  19  24
ATOM     24  C   UNL     1       3.882  -4.486   1.852  0.00  0.00    +0.186 C 
BRANCH  24  25
ATOM     25  O   UNL     1       5.157  -5.130   1.898  0.00  0.00    -0.391 OA
ATOM     26  H   UNL     1       5.113  -6.094   1.852  0.00  0.00    +0.210 HD
ENDBRANCH  24  25
ENDBRANCH  19  24
ENDBRANCH  18  19
ENDBRANCH  17  18
ENDBRANCH  15  17
TORSDOF 7
