REMARK  Name = ZINC13207020
REMARK  7 active torsions:
REMARK  status: ('A' for Active; 'I' for Inactive)
REMARK    1  A    between atoms: C_9  and  S_17
REMARK    2  A    between atoms: N_10  and  C_13
REMARK    3  A    between atoms: C_13  and  C_14
REMARK    4  A    between atoms: C_14  and  C_15
REMARK    5  A    between atoms: S_17  and  C_18
REMARK    6  A    between atoms: C_18  and  C_19
REMARK    7  A    between atoms: C_21  and  N_29
REMARK                            x       y       z     vdW  Elec       q    Type
REMARK                         _______ _______ _______ _____ _____    ______ ____
ROOT
ATOM      1  C   UNL     1       1.048  10.413  -0.592  0.00  0.00    +0.021 A 
ATOM      2  C   UNL     1       1.066   9.983   0.706  0.00  0.00    +0.017 A 
ATOM      3  C   UNL     1       1.087   8.617   0.979  0.00  0.00    +0.065 A 
ATOM      4  C   UNL     1       1.090   7.682  -0.082  0.00  0.00    +0.080 A 
ATOM      5  C   UNL     1       1.072   8.146  -1.400  0.00  0.00    +0.048 A 
ATOM      6  C   UNL     1       1.051   9.503  -1.642  0.00  0.00    +0.043 A 
ATOM      7 CL   UNL     1       1.027  10.081  -3.279  0.00  0.00    -0.083 Cl
ATOM      8  N   UNL     1       1.111   6.359   0.204  0.00  0.00    -0.223 NA
ATOM      9  C   UNL     1       1.129   5.926   1.440  0.00  0.00    +0.172 A 
ATOM     10  N   UNL     1       1.123   6.760   2.522  0.00  0.00    -0.287 N 
ATOM     11  C   UNL     1       1.107   8.102   2.355  0.00  0.00    +0.262 A 
ATOM     12  O   UNL     1       1.107   8.857   3.311  0.00  0.00    -0.267 OA
ENDROOT
BRANCH  10  13
ATOM     13  C   UNL     1       1.137   6.195   3.874  0.00  0.00    +0.138 C 
BRANCH  13  14
ATOM     14  C   UNL     1       2.584   6.020   4.338  0.00  0.00    +0.147 C 
BRANCH  14  15
ATOM     15  C   UNL     1       2.599   5.440   5.728  0.00  0.00    +0.358 C 
ATOM     16  O   UNL     1       1.559   5.192   6.291  0.00  0.00    -0.246 OA
ATOM     17  O   UNL     1       3.768   5.198   6.342  0.00  0.00    -0.246 OA
ENDBRANCH  14  15
ENDBRANCH  13  14
ENDBRANCH  10  13
BRANCH   9  18
ATOM     18  S   UNL     1       1.157   4.186   1.720  0.00  0.00    -0.083 S 
BRANCH  18  19
ATOM     19  C   UNL     1       1.149   3.593   0.011  0.00  0.00    +0.116 C 
BRANCH  19  20
ATOM     20  C   UNL     1       1.170   2.086   0.002  0.00  0.00    +0.007 A 
ATOM     21  C   UNL     1      -0.017   1.378   0.010  0.00  0.00    +0.040 A 
ATOM     22  C   UNL     1       0.002  -0.004   0.002  0.00  0.00    +0.127 A 
ATOM     23  C   UNL     1       1.208  -0.681  -0.012  0.00  0.00    +0.042 A 
ATOM     24  C   UNL     1       2.397   0.022  -0.018  0.00  0.00    +0.022 A 
ATOM     25  C   UNL     1       2.381   1.409  -0.013  0.00  0.00    +0.133 A 
ATOM     26  O   UNL     1       3.544   2.113  -0.025  0.00  0.00    -0.466 OA
ATOM     27  C   UNL     1       4.734   1.401   0.326  0.00  0.00    +0.394 C 
ATOM     28  O   UNL     1       4.759   0.167  -0.401  0.00  0.00    -0.339 OA
ATOM     29  C   UNL     1       3.706  -0.726  -0.025  0.00  0.00    +0.202 C 
BRANCH  22  30
ATOM     30  N   UNL     1      -1.270  -0.760   0.009  0.00  0.00    +0.056 N 
ATOM     31  O   UNL     1      -2.333  -0.165   0.021  0.00  0.00    -0.126 OA
ATOM     32  O   UNL     1      -1.254  -1.978   0.002  0.00  0.00    -0.126 OA
ENDBRANCH  22  30
ENDBRANCH  19  20
ENDBRANCH  18  19
ENDBRANCH   9  18
TORSDOF 7
