REMARK  Name = ZINC44714394
REMARK  10 active torsions:
REMARK  status: ('A' for Active; 'I' for Inactive)
REMARK    1  A    between atoms: C_1  and  C_2
REMARK    2  A    between atoms: C_2  and  C_3
REMARK    3  A    between atoms: C_3  and  C_4
REMARK    4  A    between atoms: C_4  and  C_5
REMARK    5  A    between atoms: C_9  and  C_18
REMARK    6  A    between atoms: N_20  and  C_21
REMARK    7  A    between atoms: C_21  and  C_22
REMARK    8  A    between atoms: C_22  and  C_23
REMARK    9  A    between atoms: C_24  and  C_35
REMARK   10  A    between atoms: C_30  and  C_33
REMARK                            x       y       z     vdW  Elec       q    Type
REMARK                         _______ _______ _______ _____ _____    ______ ____
ROOT
ATOM      1  C   UNL     1       1.724  -7.413   1.854  0.00  0.00    +0.218 C 
ATOM      2  O   UNL     1       0.687  -7.639   2.442  0.00  0.00    -0.275 OA
ATOM      3  N   UNL     1       2.367  -8.410   1.214  0.00  0.00    -0.315 N 
ATOM      4  H   UNL     1       3.196  -8.229   0.744  0.00  0.00    +0.149 HD
ENDROOT
BRANCH   1   9
ATOM      5  C   UNL     1       1.543  -2.559   2.610  0.00  0.00    +0.216 C 
ATOM      6  O   UNL     1       2.058  -1.793   3.396  0.00  0.00    -0.276 OA
ATOM      7  N   UNL     1       1.698  -3.889   2.765  0.00  0.00    -0.300 N 
ATOM      8  C   UNL     1       1.157  -4.973   1.912  0.00  0.00    +0.121 C 
ATOM      9  C   UNL     1       2.293  -6.018   1.840  0.00  0.00    +0.100 C 
ATOM     10  C   UNL     1       3.136  -5.768   3.102  0.00  0.00    -0.004 C 
ATOM     11  C   UNL     1       2.455  -4.598   3.825  0.00  0.00    +0.115 C 
ATOM     12  C   UNL     1       4.561  -5.384   2.716  0.00  0.00    -0.010 C 
ATOM     13  C   UNL     1       5.395  -5.196   3.987  0.00  0.00    -0.082 C 
ATOM     14  N   UNL     1       5.396  -6.442   4.763  0.00  0.00    +0.379 N 
ATOM     15  C   UNL     1       4.032  -6.756   5.208  0.00  0.00    -0.082 C 
ATOM     16  C   UNL     1       3.141  -7.009   3.989  0.00  0.00    -0.010 C 
ATOM     17  H   UNL     1       5.741  -7.195   4.187  0.00  0.00    -0.086 HD
ATOM     18  H   UNL     1       5.995  -6.336   5.568  0.00  0.00    -0.086 HD
BRANCH   5  19
ATOM     19  C   UNL     1       0.731  -2.025   1.458  0.00  0.00    +0.096 C 
BRANCH  19  20
ATOM     20  C   UNL     1       0.713  -0.496   1.512  0.00  0.00    +0.009 C 
BRANCH  20  22
ATOM     21  C   UNL     1      -0.129   1.575   0.398  0.00  0.00    +0.004 C 
ATOM     22  C   UNL     1      -0.112   0.046   0.344  0.00  0.00    -0.003 C 
ENDBRANCH  20  22
ENDBRANCH  19  20
ENDBRANCH   5  19
ENDBRANCH   1   9
BRANCH   3  23
ATOM     23  C   UNL     1       1.813  -9.766   1.228  0.00  0.00    +0.109 C 
BRANCH  23  24
ATOM     24  C   UNL     1       2.730 -10.699   0.433  0.00  0.00    +0.056 C 
BRANCH  24  25
ATOM     25  C   UNL     1       2.161 -12.094   0.448  0.00  0.00    -0.018 A 
ATOM     26  C   UNL     1       2.411 -13.050   1.356  0.00  0.00    +0.017 A 
ATOM     27  N   UNL     1       1.716 -14.186   1.043  0.00  0.00    -0.358 N 
ATOM     28  H   UNL     1       1.737 -15.010   1.554  0.00  0.00    +0.166 HD
ATOM     29  C   UNL     1       0.982 -13.986  -0.102  0.00  0.00    +0.047 A 
ATOM     30  C   UNL     1       1.224 -12.664  -0.524  0.00  0.00    +0.004 A 
ATOM     31  C   UNL     1       0.603 -12.174  -1.671  0.00  0.00    +0.029 A 
ATOM     32  C   UNL     1      -0.257 -13.001  -2.388  0.00  0.00    +0.052 A 
ATOM     33  C   UNL     1      -0.492 -14.314  -1.956  0.00  0.00    +0.021 A 
ATOM     34  C   UNL     1       0.120 -14.798  -0.838  0.00  0.00    +0.027 A 
ATOM     35  C   UNL     1       3.325 -12.895   2.545  0.00  0.00    +0.063 C 
BRANCH  32  36
ATOM     36  C   UNL     1      -0.903 -12.510  -3.568  0.00  0.00    +0.099 C 
ATOM     37  N   UNL     1      -1.415 -12.121  -4.505  0.00  0.00    -0.191 NA
ENDBRANCH  32  36
ENDBRANCH  24  25
ENDBRANCH  23  24
ENDBRANCH   3  23
TORSDOF 8
