REMARK  Name = ZINC10226990
REMARK  15 active torsions:
REMARK  status: ('A' for Active; 'I' for Inactive)
REMARK    1  A    between atoms: C_1  and  C_2
REMARK    2  A    between atoms: C_2  and  C_3
REMARK    3  A    between atoms: C_2  and  C_4
REMARK    4  A    between atoms: C_4  and  N_5
REMARK    5  A    between atoms: C_6  and  N_35
REMARK    6  A    between atoms: C_7  and  N_14
REMARK    7  A    between atoms: N_14  and  C_15
REMARK    8  A    between atoms: C_15  and  C_16
REMARK    9  A    between atoms: C_16  and  C_17
REMARK   10  A    between atoms: C_16  and  C_18
REMARK   11  A    between atoms: C_19  and  C_21
REMARK   12  A    between atoms: C_21  and  N_71
REMARK   13  A    between atoms: C_25  and  C_27
REMARK   14  A    between atoms: C_31  and  O_33
REMARK   15  A    between atoms: O_33  and  C_34
REMARK                            x       y       z     vdW  Elec       q    Type
REMARK                         _______ _______ _______ _____ _____    ______ ____
ROOT
ATOM      1  N   UNL     1      -5.444  -2.044   7.089  0.00  0.00    -0.266 N 
ATOM      2  C   UNL     1      -5.609  -1.275   5.992  0.00  0.00    +0.203 C 
ATOM      3  O   UNL     1      -6.678  -1.256   5.419  0.00  0.00    -0.277 OA
ENDROOT
BRANCH   1   6
ATOM      4  N   UNL     1      -8.081  -3.534   9.170  0.00  0.00    -0.280 N 
ATOM      5  C   UNL     1      -7.056  -2.706   8.774  0.00  0.00    +0.127 A 
ATOM      6  C   UNL     1      -6.493  -2.881   7.526  0.00  0.00    +0.140 A 
ATOM      7  C   UNL     1      -6.977  -3.913   6.700  0.00  0.00    +0.277 A 
ATOM      8  O   UNL     1      -6.494  -4.093   5.596  0.00  0.00    -0.266 OA
ATOM      9  N   UNL     1      -7.979  -4.700   7.139  0.00  0.00    -0.273 N 
ATOM     10  H   UNL     1      -8.324  -5.434   6.553  0.00  0.00    +0.173 HD
ATOM     11  C   UNL     1      -8.520  -4.511   8.355  0.00  0.00    +0.331 A 
ATOM     12  O   UNL     1      -9.424  -5.236   8.726  0.00  0.00    -0.246 OA
BRANCH   5  13
ATOM     13  N   UNL     1      -6.603  -1.713   9.608  0.00  0.00    -0.343 N 
ATOM     14  H   UNL     1      -5.965  -1.059   9.282  0.00  0.00    +0.144 HD
ATOM     15  H   UNL     1      -6.921  -1.666  10.523  0.00  0.00    +0.144 HD
ENDBRANCH   5  13
BRANCH   4  16
ATOM     16  C   UNL     1      -8.694  -3.355  10.488  0.00  0.00    +0.131 C 
BRANCH  16  18
ATOM     17  C   UNL     1      -8.502  -3.920  12.915  0.00  0.00    +0.009 C 
ATOM     18  C   UNL     1      -7.943  -4.202  11.518  0.00  0.00    +0.003 C 
ATOM     19  C   UNL     1      -8.122  -5.685  11.187  0.00  0.00    +0.009 C 
ENDBRANCH  16  18
ENDBRANCH   4  16
ENDBRANCH   1   6
BRANCH   1  20
ATOM     20  C   UNL     1      -4.178  -2.010   7.825  0.00  0.00    +0.117 C 
BRANCH  20  21
ATOM     21  C   UNL     1      -3.185  -2.977   7.176  0.00  0.00    +0.001 C 
ATOM     22  C   UNL     1      -1.816  -2.824   7.841  0.00  0.00    +0.009 C 
ATOM     23  C   UNL     1      -3.681  -4.413   7.354  0.00  0.00    +0.009 C 
ENDBRANCH  20  21
ENDBRANCH   1  20
BRANCH   2  24
ATOM     24  C   UNL     1      -4.464  -0.440   5.480  0.00  0.00    +0.020 C 
BRANCH  24  29
ATOM     25  C   UNL     1      -6.130   1.203   4.808  0.00  0.00    -0.077 C 
ATOM     26  C   UNL     1      -6.156   2.380   3.801  0.00  0.00    -0.020 C 
ATOM     27  C   UNL     1      -4.657   2.707   3.612  0.00  0.00    -0.013 C 
ATOM     28  C   UNL     1      -3.911   1.424   4.022  0.00  0.00    -0.037 C 
ATOM     29  N   UNL     1      -4.943   0.449   4.378  0.00  0.00    +0.390 N 
ATOM     30  H   UNL     1      -5.175  -0.126   3.559  0.00  0.00    -0.080 HD
BRANCH  28  31
ATOM     31  C   UNL     1      -3.090   0.915   2.865  0.00  0.00    -0.057 A 
ATOM     32  C   UNL     1      -3.701   0.217   1.839  0.00  0.00    +0.002 A 
ATOM     33  C   UNL     1      -2.951  -0.250   0.776  0.00  0.00    +0.004 A 
ATOM     34  C   UNL     1      -1.588  -0.022   0.737  0.00  0.00    +0.045 A 
ATOM     35  C   UNL     1      -0.974   0.676   1.765  0.00  0.00    +0.120 A 
ATOM     36  C   UNL     1      -1.728   1.140   2.834  0.00  0.00    +0.047 A 
BRANCH  35  37
ATOM     37  O   UNL     1       0.366   0.902   1.729  0.00  0.00    -0.495 OA
ATOM     38  C   UNL     1       1.080   0.391   0.602  0.00  0.00    +0.277 C 
ENDBRANCH  35  37
ENDBRANCH  28  31
ENDBRANCH  24  29
ENDBRANCH   2  24
TORSDOF 10
