REMARK  Name = ZINC39711291
REMARK  11 active torsions:
REMARK  status: ('A' for Active; 'I' for Inactive)
REMARK    1  A    between atoms: C_1  and  C_2
REMARK    2  A    between atoms: C_7  and  N_8
REMARK    3  A    between atoms: N_11  and  C_14
REMARK    4  A    between atoms: C_14  and  C_16
REMARK    5  A    between atoms: C_14  and  C_30
REMARK    6  A    between atoms: C_21  and  O_28
REMARK    7  A    between atoms: O_28  and  C_29
REMARK    8  A    between atoms: N_35  and  C_36
REMARK    9  A    between atoms: C_36  and  C_37
REMARK   10  A    between atoms: C_36  and  C_38
REMARK   11  A    between atoms: C_36  and  C_39
REMARK                            x       y       z     vdW  Elec       q    Type
REMARK                         _______ _______ _______ _____ _____    ______ ____
ROOT
ATOM      1  C   UNL     1      -0.009   3.514   4.662  0.00  0.00    -0.009 C 
ENDROOT
BRANCH   1   2
ATOM      2  C   UNL     1      -1.310   3.798   5.415  0.00  0.00    +0.088 C 
ATOM      3  C   UNL     1      -1.456   5.302   5.542  0.00  0.00    -0.006 C 
ATOM      4  C   UNL     1      -1.559   5.816   6.800  0.00  0.00    -0.004 A 
ATOM      5  C   UNL     1      -1.702   7.257   7.011  0.00  0.00    +0.055 A 
ATOM      6  C   UNL     1      -1.801   7.726   8.286  0.00  0.00    +0.121 A 
ATOM      7  C   UNL     1      -1.769   6.859   9.385  0.00  0.00    +0.047 A 
ATOM      8  C   UNL     1      -1.638   5.514   9.251  0.00  0.00    +0.027 A 
ATOM      9  C   UNL     1      -1.528   4.929   7.976  0.00  0.00    +0.041 A 
ATOM     10  N   UNL     1      -1.400   3.607   7.859  0.00  0.00    -0.285 N 
ATOM     11  C   UNL     1      -1.290   2.992   6.694  0.00  0.00    +0.223 C 
ATOM     12  O   UNL     1      -1.176   1.782   6.652  0.00  0.00    -0.275 OA
ATOM     13  H   UNL     1      -1.386   3.071   8.668  0.00  0.00    +0.155 HD
BRANCH   6  14
ATOM     14  O   UNL     1      -1.935   9.062   8.496  0.00  0.00    -0.495 OA
ATOM     15  C   UNL     1      -2.034   9.499   9.853  0.00  0.00    +0.277 C 
ENDBRANCH   6  14
ENDBRANCH   1   2
BRANCH   1  19
ATOM     16  N   UNL     1       0.181  -0.212   2.767  0.00  0.00    -0.333 N 
ATOM     17  C   UNL     1      -1.082   0.133   3.440  0.00  0.00    +0.086 C 
ATOM     18  C   UNL     1      -1.123   1.650   3.647  0.00  0.00    -0.059 C 
ATOM     19  N   UNL     1       0.083   2.078   4.367  0.00  0.00    +0.387 N 
ATOM     20  C   UNL     1       1.273   1.824   3.544  0.00  0.00    -0.059 C 
ATOM     21  C   UNL     1       1.433   0.311   3.335  0.00  0.00    +0.086 C 
ATOM     22  H   UNL     1       0.158   1.563   5.231  0.00  0.00    -0.081 HD
BRANCH  16  29
ATOM     23  C   UNL     1      -0.009   1.058   0.229  0.00  0.00    +0.045 C 
ATOM     24  C   UNL     1       0.100  -0.439   0.366  0.00  0.00    -0.029 A 
ATOM     25  C   UNL     1       0.116  -1.237  -0.761  0.00  0.00    +0.006 A 
ATOM     26  C   UNL     1       0.215  -2.610  -0.637  0.00  0.00    +0.020 A 
ATOM     27  C   UNL     1       0.300  -3.190   0.617  0.00  0.00    +0.043 A 
ATOM     28  C   UNL     1       0.284  -2.397   1.749  0.00  0.00    +0.043 A 
ATOM     29  C   UNL     1       0.190  -1.017   1.626  0.00  0.00    +0.034 A 
ATOM     30 CL   UNL     1       0.425  -4.915   0.768  0.00  0.00    -0.083 Cl
ENDBRANCH  16  29
ENDBRANCH   1  19
BRANCH   1  31
ATOM     31  C   UNL     1       1.183   3.934   5.525  0.00  0.00    +0.205 C 
ATOM     32  N   UNL     1       1.148   3.240   6.819  0.00  0.00    -0.152 NA
ATOM     33  N   UNL     1       1.055   4.078   7.719  0.00  0.00    -0.070 NA
ATOM     34  N   UNL     1       1.012   5.386   7.239  0.00  0.00    -0.179 N 
ATOM     35  N   UNL     1       1.090   5.369   5.869  0.00  0.00    -0.183 NA
ATOM     36  H   UNL     1       0.940   6.184   7.787  0.00  0.00    +0.191 HD
BRANCH  35  37
ATOM     37  C   UNL     1       2.273   6.101   5.397  0.00  0.00    +0.035 C 
ATOM     38  C   UNL     1       2.383   5.967   3.877  0.00  0.00    +0.029 C 
ATOM     39  C   UNL     1       2.141   7.579   5.770  0.00  0.00    +0.029 C 
ATOM     40  C   UNL     1       3.527   5.519   6.052  0.00  0.00    +0.029 C 
ENDBRANCH  35  37
ENDBRANCH   1  31
TORSDOF 6
