REMARK  Name = ZINC39632055
REMARK  13 active torsions:
REMARK  status: ('A' for Active; 'I' for Inactive)
REMARK    1  A    between atoms: C_1  and  C_2
REMARK    2  A    between atoms: C_3  and  C_13
REMARK    3  A    between atoms: C_4  and  C_7
REMARK    4  A    between atoms: C_17  and  C_26
REMARK    5  A    between atoms: N_28  and  C_29
REMARK    6  A    between atoms: C_29  and  C_31
REMARK    7  A    between atoms: C_29  and  C_32
REMARK    8  A    between atoms: C_32  and  C_33
REMARK    9  A    between atoms: C_33  and  C_34
REMARK   10  A    between atoms: C_34  and  C_35
REMARK   11  A    between atoms: C_35  and  C_36
REMARK   12  A    between atoms: C_35  and  C_37
REMARK   13  A    between atoms: C_35  and  O_38
REMARK                            x       y       z     vdW  Elec       q    Type
REMARK                         _______ _______ _______ _____ _____    ______ ____
ROOT
ATOM      1  C   UNL     1      -2.620  -0.386  -0.014  0.00  0.00    +0.252 C 
ATOM      2  O   UNL     1      -3.214  -0.162  -1.051  0.00  0.00    -0.270 OA
ATOM      3  N   UNL     1      -3.230  -0.180   1.170  0.00  0.00    -0.296 N 
ATOM      4  C   UNL     1      -2.673  -0.387   2.527  0.00  0.00    +0.121 C 
ATOM      5  C   UNL     1      -3.211   0.801   3.356  0.00  0.00    +0.100 C 
ATOM      6  C   UNL     1      -4.483   1.250   2.618  0.00  0.00    -0.004 C 
ATOM      7  C   UNL     1      -4.608   0.312   1.409  0.00  0.00    +0.115 C 
ATOM      8  C   UNL     1      -4.338   2.693   2.146  0.00  0.00    -0.010 C 
ATOM      9  C   UNL     1      -5.637   3.136   1.465  0.00  0.00    -0.082 C 
ATOM     10  N   UNL     1      -6.752   3.019   2.413  0.00  0.00    +0.379 N 
ATOM     11  C   UNL     1      -6.943   1.614   2.791  0.00  0.00    -0.082 C 
ATOM     12  C   UNL     1      -5.700   1.107   3.527  0.00  0.00    -0.010 C 
ATOM     13  H   UNL     1      -6.549   3.563   3.238  0.00  0.00    -0.086 HD
ATOM     14  H   UNL     1      -7.595   3.368   1.982  0.00  0.00    -0.086 HD
ENDROOT
BRANCH   1  17
ATOM     15  C   UNL     1      -0.041   1.379  -0.034  0.00  0.00    +0.090 C 
ATOM     16  C   UNL     1      -0.099  -0.127  -0.061  0.00  0.00    +0.147 A 
ATOM     17  C   UNL     1      -1.234  -0.883  -0.052  0.00  0.00    +0.106 A 
ATOM     18  C   UNL     1      -0.807  -2.290  -0.086  0.00  0.00    +0.126 A 
ATOM     19  N   UNL     1       0.501  -2.290  -0.113  0.00  0.00    -0.077 NA
ATOM     20  O   UNL     1       0.952  -0.950  -0.104  0.00  0.00    -0.359 OA
BRANCH  18  21
ATOM     21  C   UNL     1      -1.691  -3.481  -0.090  0.00  0.00    +0.004 A 
ATOM     22  C   UNL     1      -2.889  -3.466   0.622  0.00  0.00    +0.010 A 
ATOM     23  C   UNL     1      -3.708  -4.577   0.614  0.00  0.00    +0.001 A 
ATOM     24  C   UNL     1      -3.340  -5.705  -0.098  0.00  0.00    +0.000 A 
ATOM     25  C   UNL     1      -2.152  -5.726  -0.806  0.00  0.00    +0.001 A 
ATOM     26  C   UNL     1      -1.329  -4.618  -0.810  0.00  0.00    +0.010 A 
ENDBRANCH  18  21
ENDBRANCH   1  17
BRANCH   5  27
ATOM     27  C   UNL     1      -3.543   0.355   4.757  0.00  0.00    +0.218 C 
ATOM     28  O   UNL     1      -3.934  -0.775   4.957  0.00  0.00    -0.275 OA
ATOM     29  N   UNL     1      -3.406   1.214   5.787  0.00  0.00    -0.312 N 
ATOM     30  H   UNL     1      -3.094   2.118   5.627  0.00  0.00    +0.149 HD
BRANCH  29  31
ATOM     31  C   UNL     1      -3.730   0.781   7.149  0.00  0.00    +0.070 C 
ATOM     32  C   UNL     1      -2.517   0.080   7.763  0.00  0.00    +0.028 C 
BRANCH  31  33
ATOM     33  C   UNL     1      -4.098   1.999   7.997  0.00  0.00    +0.022 C 
BRANCH  33  34
ATOM     34  C   UNL     1      -5.384   2.628   7.456  0.00  0.00    +0.005 C 
BRANCH  34  35
ATOM     35  C   UNL     1      -5.752   3.847   8.305  0.00  0.00    +0.034 C 
BRANCH  35  36
ATOM     36  C   UNL     1      -7.038   4.475   7.764  0.00  0.00    +0.061 C 
ATOM     37  C   UNL     1      -7.338   5.764   8.533  0.00  0.00    +0.041 C 
ATOM     38  C   UNL     1      -6.862   4.797   6.279  0.00  0.00    +0.041 C 
BRANCH  36  39
ATOM     39  O   UNL     1      -8.122   3.559   7.928  0.00  0.00    -0.389 OA
ATOM     40  H   UNL     1      -8.290   3.310   8.847  0.00  0.00    +0.210 HD
ENDBRANCH  36  39
ENDBRANCH  35  36
ENDBRANCH  34  35
ENDBRANCH  33  34
ENDBRANCH  31  33
ENDBRANCH  29  31
ENDBRANCH   5  27
TORSDOF 9
