REMARK  Name = ZINC60549044
REMARK  6 active torsions:
REMARK  status: ('A' for Active; 'I' for Inactive)
REMARK    1  A    between atoms: C_3  and  C_19
REMARK    2  A    between atoms: C_5  and  N_7
REMARK    3  A    between atoms: C_8  and  C_10
REMARK    4  A    between atoms: C_11  and  C_12
REMARK    5  A    between atoms: C_19  and  N_20
REMARK    6  A    between atoms: C_24  and  C_25
REMARK                            x       y       z     vdW  Elec       q    Type
REMARK                         _______ _______ _______ _____ _____    ______ ____
ROOT
ATOM      1  C   UNL     1      -0.028   1.373  -0.013  0.00  0.00    +0.002 A 
ATOM      2  C   UNL     1       1.157   2.086  -0.018  0.00  0.00    +0.002 A 
ATOM      3  C   UNL     1       2.368   1.419  -0.023  0.00  0.00    -0.062 A 
ATOM      4  C   UNL     1       2.399   0.038  -0.025  0.00  0.00    +0.025 A 
ATOM      5  C   UNL     1       1.211  -0.681  -0.020  0.00  0.00    +0.034 A 
ATOM      6  C   UNL     1      -0.005  -0.008  -0.014  0.00  0.00    +0.023 A 
ENDROOT
BRANCH   5   7
ATOM      7  N   UNL     1       1.238  -2.079  -0.022  0.00  0.00    -0.282 N 
ATOM      8  C   UNL     1       0.299  -2.772   0.653  0.00  0.00    +0.241 C 
ATOM      9  O   UNL     1      -0.620  -2.184   1.194  0.00  0.00    -0.270 OA
ATOM     10  H   UNL     1       1.932  -2.550  -0.508  0.00  0.00    +0.155 HD
BRANCH   8  11
ATOM     11  C   UNL     1       0.385  -4.230   0.736  0.00  0.00    +0.068 C 
ATOM     12  C   UNL     1      -0.554  -4.923   1.411  0.00  0.00    +0.013 C 
BRANCH  12  13
ATOM     13  C   UNL     1      -0.468  -6.390   1.494  0.00  0.00    -0.025 A 
ATOM     14  C   UNL     1       0.590  -7.067   0.879  0.00  0.00    +0.011 A 
ATOM     15  C   UNL     1       0.665  -8.441   0.961  0.00  0.00    +0.039 A 
ATOM     16  C   UNL     1      -0.305  -9.151   1.651  0.00  0.00    +0.123 A 
ATOM     17  C   UNL     1      -1.357  -8.486   2.263  0.00  0.00    +0.039 A 
ATOM     18  C   UNL     1      -1.441  -7.112   2.194  0.00  0.00    +0.011 A 
ATOM     19  F   UNL     1      -0.226 -10.498   1.728  0.00  0.00    -0.205 F 
ENDBRANCH  12  13
ENDBRANCH   8  11
ENDBRANCH   5   7
BRANCH   3  20
ATOM     20  C   UNL     1       3.657   2.201  -0.029  0.00  0.00    -0.042 C 
BRANCH  20  21
ATOM     21  N   UNL     1       4.082   2.454   1.355  0.00  0.00    +0.390 N 
ATOM     22  C   UNL     1       4.494   1.183   2.005  0.00  0.00    -0.077 C 
ATOM     23  C   UNL     1       5.405   1.657   3.165  0.00  0.00    -0.020 C 
ATOM     24  C   UNL     1       6.160   2.854   2.543  0.00  0.00    -0.008 C 
ATOM     25  C   UNL     1       5.279   3.321   1.370  0.00  0.00    +0.019 C 
ATOM     26  H   UNL     1       3.333   2.885   1.876  0.00  0.00    -0.080 HD
BRANCH  25  27
ATOM     27  C   UNL     1       4.870   4.757   1.575  0.00  0.00    +0.197 C 
ATOM     28  O   UNL     1       3.698   5.042   1.697  0.00  0.00    -0.278 OA
ATOM     29  N   UNL     1       5.808   5.725   1.621  0.00  0.00    -0.331 N 
ATOM     30  H   UNL     1       6.745   5.497   1.523  0.00  0.00    +0.145 HD
ATOM     31  H   UNL     1       5.545   6.649   1.753  0.00  0.00    +0.145 HD
ENDBRANCH  25  27
ENDBRANCH  20  21
ENDBRANCH   3  20
TORSDOF 6
