REMARK  Name = ZINC44516072
REMARK  6 active torsions:
REMARK  status: ('A' for Active; 'I' for Inactive)
REMARK    1  A    between atoms: C_1  and  N_2
REMARK    2  A    between atoms: C_5  and  C_8
REMARK    3  A    between atoms: C_8  and  N_9
REMARK    4  A    between atoms: N_9  and  S_10
REMARK    5  A    between atoms: S_10  and  C_13
REMARK    6  A    between atoms: C_18  and  N_19
REMARK                            x       y       z     vdW  Elec       q    Type
REMARK                         _______ _______ _______ _____ _____    ______ ____
ROOT
ATOM      1  S   UNL     1       1.681  -6.226   1.670  0.00  0.00    +0.060 S 
ATOM      2  O   UNL     1       2.443  -6.535   2.829  0.00  0.00    -0.153 OA
ATOM      3  O   UNL     1       0.261  -6.263   1.659  0.00  0.00    -0.153 OA
ENDROOT
BRANCH   1   4
ATOM      4  C   UNL     1       2.224  -7.325   0.404  0.00  0.00    +0.126 A 
ATOM      5  C   UNL     1       1.300  -8.042  -0.332  0.00  0.00    +0.031 A 
ATOM      6  C   UNL     1       1.724  -8.905  -1.326  0.00  0.00    +0.017 A 
ATOM      7  C   UNL     1       3.075  -9.052  -1.587  0.00  0.00    +0.020 A 
ATOM      8  C   UNL     1       4.004  -8.338  -0.856  0.00  0.00    +0.040 A 
ATOM      9  C   UNL     1       3.580  -7.467   0.140  0.00  0.00    +0.052 A 
ATOM     10 BR   UNL     1       3.649 -10.233  -2.948  0.00  0.00    -0.050 Br
BRANCH   9  11
ATOM     11  N   UNL     1       4.516  -6.739   0.878  0.00  0.00    -0.356 N 
ATOM     12  H   UNL     1       4.218  -6.068   1.512  0.00  0.00    +0.142 HD
ATOM     13  H   UNL     1       5.464  -6.904   0.756  0.00  0.00    +0.142 HD
ENDBRANCH   9  11
ENDBRANCH   1   4
BRANCH   1  14
ATOM     14  N   UNL     1       2.119  -4.697   1.210  0.00  0.00    -0.190 NA
ATOM     15  H   UNL     1       2.767  -4.200   1.733  0.00  0.00    +0.148 HD
BRANCH  14  16
ATOM     16  C   UNL     1       1.525  -4.093   0.015  0.00  0.00    +0.109 C 
BRANCH  16  21
ATOM     17  C   UNL     1       0.824   1.565  -0.109  0.00  0.00    -0.096 C 
ATOM     18  N   UNL     1       0.704   0.101  -0.106  0.00  0.00    +0.378 N 
ATOM     19  C   UNL     1       1.460  -0.453  -1.235  0.00  0.00    -0.079 C 
ATOM     20  C   UNL     1       1.273  -1.971  -1.284  0.00  0.00    -0.014 C 
ATOM     21  C   UNL     1       1.782  -2.585   0.023  0.00  0.00    +0.001 C 
ATOM     22  C   UNL     1       1.038  -1.946   1.200  0.00  0.00    -0.014 C 
ATOM     23  C   UNL     1       1.234  -0.429   1.156  0.00  0.00    -0.079 C 
ATOM     24  H   UNL     1      -0.268  -0.156  -0.195  0.00  0.00    -0.082 HD
ENDBRANCH  16  21
ENDBRANCH  14  16
ENDBRANCH   1  14
TORSDOF 5
