REMARK  Name = ZINC38686629
REMARK  10 active torsions:
REMARK  status: ('A' for Active; 'I' for Inactive)
REMARK    1  A    between atoms: C_1  and  C_2
REMARK    2  A    between atoms: C_5  and  C_8
REMARK    3  A    between atoms: C_8  and  O_9
REMARK    4  A    between atoms: O_9  and  C_10
REMARK    5  A    between atoms: C_14  and  C_16
REMARK    6  A    between atoms: C_21  and  O_30
REMARK    7  A    between atoms: C_25  and  N_29
REMARK    8  A    between atoms: C_26  and  C_27
REMARK    9  A    between atoms: O_30  and  C_31
REMARK   10  A    between atoms: C_31  and  C_33
REMARK                            x       y       z     vdW  Elec       q    Type
REMARK                         _______ _______ _______ _____ _____    ______ ____
ROOT
ATOM      1  C   UNL     1       4.468  -8.473  -0.094  0.00  0.00    +0.098 C 
ATOM      2  C   UNL     1       4.676  -9.316  -1.324  0.00  0.00    +0.008 A 
ATOM      3  C   UNL     1       4.790  -8.703  -2.559  0.00  0.00    +0.012 A 
ATOM      4  C   UNL     1       4.981  -9.460  -3.697  0.00  0.00    +0.047 A 
ATOM      5  C   UNL     1       5.059 -10.843  -3.605  0.00  0.00    +0.135 A 
ATOM      6  C   UNL     1       4.946 -11.460  -2.370  0.00  0.00    +0.093 A 
ATOM      7  C   UNL     1       4.753 -10.697  -1.226  0.00  0.00    +0.138 A 
ATOM      8  O   UNL     1       4.644 -11.316  -0.025  0.00  0.00    -0.441 OA
ATOM      9  C   UNL     1       4.845 -10.622   1.107  0.00  0.00    +0.199 C 
ATOM     10  C   UNL     1       4.775  -9.273   1.140  0.00  0.00    +0.098 C 
ENDROOT
BRANCH   1  15
ATOM     11  C   UNL     1       1.427  -6.230  -0.009  0.00  0.00    +0.121 A 
ATOM     12  C   UNL     1       0.401  -7.162   0.049  0.00  0.00    +0.045 A 
ATOM     13  C   UNL     1       0.695  -8.511   0.060  0.00  0.00    +0.004 A 
ATOM     14  C   UNL     1       2.010  -8.934   0.013  0.00  0.00    +0.005 A 
ATOM     15  C   UNL     1       3.035  -8.008  -0.044  0.00  0.00    -0.031 A 
ATOM     16  C   UNL     1       2.746  -6.657  -0.061  0.00  0.00    +0.050 A 
BRANCH  11  17
ATOM     17  O   UNL     1       1.141  -4.902  -0.020  0.00  0.00    -0.487 OA
BRANCH  17  18
ATOM     18  C   UNL     1      -0.239  -4.535   0.036  0.00  0.00    +0.264 C 
BRANCH  18  23
ATOM     19  C   UNL     1      -0.710   1.224  -0.047  0.00  0.00    +0.044 C 
ATOM     20  C   UNL     1      -0.587  -0.278  -0.025  0.00  0.00    -0.050 A 
ATOM     21  C   UNL     1      -0.584  -0.988  -1.211  0.00  0.00    +0.004 A 
ATOM     22  C   UNL     1      -0.471  -2.366  -1.191  0.00  0.00    +0.007 A 
ATOM     23  C   UNL     1      -0.361  -3.033   0.015  0.00  0.00    -0.010 A 
ATOM     24  C   UNL     1      -0.363  -2.322   1.200  0.00  0.00    +0.007 A 
ATOM     25  C   UNL     1      -0.471  -0.945   1.180  0.00  0.00    +0.004 A 
ENDBRANCH  18  23
ENDBRANCH  17  18
ENDBRANCH  11  17
ENDBRANCH   1  15
BRANCH   9  26
ATOM     26  N   UNL     1       5.130 -11.304   2.264  0.00  0.00    -0.328 N 
ATOM     27  H   UNL     1       5.183 -12.272   2.256  0.00  0.00    +0.145 HD
ATOM     28  H   UNL     1       5.278 -10.817   3.090  0.00  0.00    +0.145 HD
ENDBRANCH   9  26
BRANCH  10  29
ATOM     29  C   UNL     1       5.000  -8.593   2.380  0.00  0.00    +0.101 C 
ATOM     30  N   UNL     1       5.178  -8.054   3.364  0.00  0.00    -0.191 NA
ENDBRANCH  10  29
BRANCH   5  31
ATOM     31  O   UNL     1       5.247 -11.590  -4.725  0.00  0.00    -0.422 OA
BRANCH  31  32
ATOM     32  C   UNL     1       6.442 -11.515  -5.342  0.00  0.00    +0.346 C 
ATOM     33  O   UNL     1       7.347 -10.879  -4.840  0.00  0.00    -0.244 OA
BRANCH  32  34
ATOM     34  C   UNL     1       6.653 -12.207  -6.629  0.00  0.00    +0.078 A 
ATOM     35  C   UNL     1       5.614 -12.935  -7.213  0.00  0.00    +0.016 A 
ATOM     36  C   UNL     1       5.817 -13.579  -8.415  0.00  0.00    +0.001 A 
ATOM     37  C   UNL     1       7.048 -13.506  -9.044  0.00  0.00    +0.001 A 
ATOM     38  C   UNL     1       8.082 -12.788  -8.473  0.00  0.00    +0.021 A 
ATOM     39  C   UNL     1       7.891 -12.132  -7.272  0.00  0.00    +0.055 A 
ATOM     40 CL   UNL     1       9.188 -11.224  -6.560  0.00  0.00    -0.083 Cl
ENDBRANCH  32  34
ENDBRANCH  31  32
ENDBRANCH   5  31
TORSDOF 9
