REMARK  Name = ZINC08768939
REMARK  11 active torsions:
REMARK  status: ('A' for Active; 'I' for Inactive)
REMARK    1  A    between atoms: C_1  and  C_2
REMARK    2  A    between atoms: C_2  and  C_3
REMARK    3  A    between atoms: C_2  and  C_4
REMARK    4  A    between atoms: C_7  and  N_10
REMARK    5  A    between atoms: C_11  and  C_13
REMARK    6  A    between atoms: C_13  and  C_15
REMARK    7  A    between atoms: C_13  and  N_19
REMARK    8  A    between atoms: C_15  and  C_16
REMARK    9  A    between atoms: C_16  and  S_17
REMARK   10  A    between atoms: S_17  and  C_18
REMARK   11  A    between atoms: C_20  and  C_22
REMARK                            x       y       z     vdW  Elec       q    Type
REMARK                         _______ _______ _______ _____ _____    ______ ____
ROOT
ATOM      1  C   UNL     1      -6.699  -0.493   1.026  0.00  0.00    +0.160 C 
ENDROOT
BRANCH   1   3
ATOM      2  N   UNL     1      -7.667  -2.710   1.543  0.00  0.00    -0.284 N 
ATOM      3  C   UNL     1      -6.680  -1.816   1.749  0.00  0.00    +0.238 C 
ATOM      4  O   UNL     1      -5.777  -2.075   2.516  0.00  0.00    -0.273 OA
ATOM      5  H   UNL     1      -8.428  -2.474   0.990  0.00  0.00    +0.155 HD
BRANCH   2   9
ATOM      6  C   UNL     1      -7.448  -6.490   3.281  0.00  0.00    -0.045 A 
ATOM      7  C   UNL     1      -8.677  -5.882   3.104  0.00  0.00    +0.006 A 
ATOM      8  C   UNL     1      -8.753  -4.629   2.529  0.00  0.00    +0.023 A 
ATOM      9  C   UNL     1      -7.593  -3.980   2.127  0.00  0.00    +0.033 A 
ATOM     10  C   UNL     1      -6.361  -4.595   2.301  0.00  0.00    +0.023 A 
ATOM     11  C   UNL     1      -6.291  -5.846   2.882  0.00  0.00    +0.006 A 
BRANCH   6  13
ATOM     12  C   UNL     1      -6.721  -8.834   2.926  0.00  0.00    +0.012 C 
ATOM     13  C   UNL     1      -7.369  -7.858   3.910  0.00  0.00    +0.013 C 
ATOM     14  C   UNL     1      -6.527  -7.785   5.185  0.00  0.00    +0.012 C 
ENDBRANCH   6  13
ENDBRANCH   2   9
ENDBRANCH   1   3
BRANCH   1  15
ATOM     15  N   UNL     1      -5.527   0.294   1.418  0.00  0.00    -0.305 N 
ATOM     16  C   UNL     1      -5.044   1.241   0.590  0.00  0.00    +0.200 C 
ATOM     17  O   UNL     1      -5.579   1.441  -0.480  0.00  0.00    -0.278 OA
ATOM     18  H   UNL     1      -5.099   0.134   2.274  0.00  0.00    +0.149 HD
BRANCH  16  19
ATOM     19  C   UNL     1      -3.839   2.051   0.993  0.00  0.00    +0.021 C 
ATOM     20  C   UNL     1      -2.566   1.249   0.719  0.00  0.00    +0.028 C 
ATOM     21  C   UNL     1      -1.355   2.131   0.882  0.00  0.00    -0.047 A 
ATOM     22  C   UNL     1      -0.115   1.530   1.033  0.00  0.00    +0.004 A 
ATOM     23  C   UNL     1       1.020   2.301   1.183  0.00  0.00    +0.000 A 
ATOM     24  C   UNL     1       0.919   3.680   1.188  0.00  0.00    +0.000 A 
ATOM     25  C   UNL     1      -0.316   4.279   1.047  0.00  0.00    +0.002 A 
ATOM     26  C   UNL     1      -1.458   3.506   0.898  0.00  0.00    -0.061 A 
ATOM     27  C   UNL     1      -2.784   4.205   0.753  0.00  0.00    -0.045 C 
ATOM     28  N   UNL     1      -3.792   3.292   0.197  0.00  0.00    +0.389 N 
ATOM     29  H   UNL     1      -4.713   3.746   0.221  0.00  0.00    -0.084 HD
ATOM     30  H   UNL     1      -3.548   3.064  -0.774  0.00  0.00    -0.084 HD
ENDBRANCH  16  19
ENDBRANCH   1  15
BRANCH   1  31
ATOM     31  C   UNL     1      -7.973   0.270   1.394  0.00  0.00    +0.042 C 
BRANCH  31  32
ATOM     32  C   UNL     1      -8.054   1.555   0.567  0.00  0.00    +0.071 C 
BRANCH  32  33
ATOM     33  S   UNL     1      -9.564   2.461   1.003  0.00  0.00    -0.164 S 
ATOM     34  C   UNL     1      -9.510   3.937  -0.050  0.00  0.00    +0.084 C 
ENDBRANCH  32  33
ENDBRANCH  31  32
ENDBRANCH   1  31
TORSDOF 8
