REMARK  Name = ZINC37174173
REMARK  8 active torsions:
REMARK  status: ('A' for Active; 'I' for Inactive)
REMARK    1  A    between atoms: C_1  and  N_2
REMARK    2  A    between atoms: N_2  and  C_3
REMARK    3  A    between atoms: N_2  and  C_17
REMARK    4  A    between atoms: C_3  and  C_4
REMARK    5  A    between atoms: C_4  and  C_5
REMARK    6  A    between atoms: C_5  and  C_6
REMARK    7  A    between atoms: N_8  and  C_9
REMARK    8  A    between atoms: C_11  and  N_16
REMARK                            x       y       z     vdW  Elec       q    Type
REMARK                         _______ _______ _______ _____ _____    ______ ____
ROOT
ATOM      1  C   UNL     1       4.365  -0.147   2.290  0.00  0.00    +0.217 C 
ATOM      2  O   UNL     1       4.766   0.490   1.339  0.00  0.00    -0.275 OA
ATOM      3  N   UNL     1       5.216  -0.491   3.277  0.00  0.00    -0.283 N 
ATOM      4  H   UNL     1       4.883  -0.945   4.068  0.00  0.00    +0.155 HD
ENDROOT
BRANCH   3   5
ATOM      5  C   UNL     1       6.579  -0.194   3.162  0.00  0.00    +0.071 A 
ATOM      6  C   UNL     1       6.985   0.969   2.523  0.00  0.00    +0.049 A 
ATOM      7  C   UNL     1       8.337   1.260   2.412  0.00  0.00    +0.026 A 
ATOM      8  C   UNL     1       9.281   0.388   2.938  0.00  0.00    +0.025 A 
ATOM      9  C   UNL     1       8.875  -0.770   3.574  0.00  0.00    +0.042 A 
ATOM     10  C   UNL     1       7.528  -1.061   3.692  0.00  0.00    +0.145 A 
ATOM     11  F   UNL     1       7.134  -2.191   4.319  0.00  0.00    -0.204 F 
BRANCH   7  12
ATOM     12  N   UNL     1       8.749   2.431   1.768  0.00  0.00    -0.358 N 
ATOM     13  H   UNL     1       8.090   3.040   1.400  0.00  0.00    +0.142 HD
ATOM     14  H   UNL     1       9.694   2.635   1.690  0.00  0.00    +0.142 HD
ENDBRANCH   7  12
ENDBRANCH   3   5
BRANCH   1  15
ATOM     15  C   UNL     1       2.917  -0.556   2.367  0.00  0.00    +0.094 C 
BRANCH  15  16
ATOM     16  C   UNL     1       2.176  -0.043   1.130  0.00  0.00    -0.009 C 
BRANCH  16  17
ATOM     17  C   UNL     1       0.705  -0.458   1.208  0.00  0.00    -0.078 C 
BRANCH  17  19
ATOM     18  C   UNL     1      -0.015   1.503   0.029  0.00  0.00    -0.096 C 
ATOM     19  N   UNL     1      -0.006   0.034   0.021  0.00  0.00    +0.380 N 
ATOM     20  H   UNL     1       0.461  -0.295  -0.811  0.00  0.00    -0.082 HD
BRANCH  19  21
ATOM     21  C   UNL     1      -1.388  -0.464   0.036  0.00  0.00    -0.058 C 
ATOM     22  C   UNL     1      -2.137   0.070  -1.196  0.00  0.00    -0.004 C 
ATOM     23  C   UNL     1      -3.476  -0.711  -1.325  0.00  0.00    +0.067 C 
ATOM     24  S   UNL     1      -2.913  -2.416  -0.909  0.00  0.00    -0.162 S 
ATOM     25  C   UNL     1      -1.376  -2.012   0.015  0.00  0.00    +0.054 C 
ENDBRANCH  19  21
ENDBRANCH  17  19
ENDBRANCH  16  17
ENDBRANCH  15  16
ENDBRANCH   1  15
TORSDOF 7
