REMARK  Name = ZINC43209491
REMARK  7 active torsions:
REMARK  status: ('A' for Active; 'I' for Inactive)
REMARK    1  A    between atoms: C_3  and  N_29
REMARK    2  A    between atoms: C_6  and  C_7
REMARK    3  A    between atoms: C_7  and  C_8
REMARK    4  A    between atoms: C_8  and  C_9
REMARK    5  A    between atoms: C_12  and  N_15
REMARK    6  A    between atoms: C_16  and  C_18
REMARK    7  A    between atoms: C_21  and  C_23
REMARK                            x       y       z     vdW  Elec       q    Type
REMARK                         _______ _______ _______ _____ _____    ______ ____
ROOT
ATOM      1  C   UNL     1      -3.046  -1.789  -1.404  0.00  0.00    -0.047 A 
ATOM      2  C   UNL     1      -3.032  -3.160  -1.585  0.00  0.00    +0.005 A 
ATOM      3  C   UNL     1      -4.216  -3.870  -1.583  0.00  0.00    +0.023 A 
ATOM      4  C   UNL     1      -5.422  -3.207  -1.399  0.00  0.00    +0.034 A 
ATOM      5  C   UNL     1      -5.433  -1.830  -1.217  0.00  0.00    +0.023 A 
ATOM      6  C   UNL     1      -4.244  -1.126  -1.215  0.00  0.00    +0.005 A 
ENDROOT
BRANCH   4   7
ATOM      7  N   UNL     1      -6.624  -3.923  -1.397  0.00  0.00    -0.280 N 
ATOM      8  C   UNL     1      -7.747  -3.356  -1.882  0.00  0.00    +0.267 C 
ATOM      9  O   UNL     1      -7.697  -2.260  -2.408  0.00  0.00    -0.268 OA
ATOM     10  H   UNL     1      -6.649  -4.827  -1.048  0.00  0.00    +0.155 HD
BRANCH   8  11
ATOM     11  C   UNL     1      -9.033  -4.064  -1.774  0.00  0.00    +0.133 A 
ATOM     12  C   UNL     1     -10.197  -3.529  -2.257  0.00  0.00    +0.079 A 
ATOM     13  S   UNL     1     -11.325  -4.717  -1.883  0.00  0.00    -0.081 S 
ATOM     14  C   UNL     1     -10.309  -5.830  -1.143  0.00  0.00    +0.065 A 
ATOM     15  N   UNL     1      -9.133  -5.269  -1.204  0.00  0.00    -0.241 NA
BRANCH  14  16
ATOM     16  C   UNL     1     -10.671  -7.168  -0.551  0.00  0.00    -0.015 C 
ATOM     17  C   UNL     1     -11.460  -6.979   0.769  0.00  0.00    -0.011 C 
ATOM     18  C   UNL     1     -12.245  -8.313   0.860  0.00  0.00    -0.020 C 
ATOM     19  C   UNL     1     -12.576  -8.623  -0.615  0.00  0.00    -0.082 C 
ATOM     20  N   UNL     1     -11.598  -7.893  -1.446  0.00  0.00    +0.385 N 
ATOM     21  H   UNL     1     -12.081  -7.236  -2.040  0.00  0.00    -0.085 HD
ATOM     22  H   UNL     1     -11.080  -8.546  -2.015  0.00  0.00    -0.085 HD
ENDBRANCH  14  16
ENDBRANCH   8  11
ENDBRANCH   4   7
BRANCH   1  23
ATOM     23  C   UNL     1      -1.752  -1.017  -1.407  0.00  0.00    +0.040 C 
BRANCH  23  24
ATOM     24  C   UNL     1      -1.195  -0.949   0.017  0.00  0.00    +0.040 C 
BRANCH  24  30
ATOM     25  C   UNL     1       0.086   1.193   0.200  0.00  0.00    +0.005 A 
ATOM     26  C   UNL     1       1.270   1.903   0.198  0.00  0.00    +0.023 A 
ATOM     27  C   UNL     1       2.476   1.240   0.009  0.00  0.00    +0.025 A 
ATOM     28  C   UNL     1       2.486  -0.136  -0.178  0.00  0.00    +0.023 A 
ATOM     29  C   UNL     1       1.298  -0.841  -0.175  0.00  0.00    +0.005 A 
ATOM     30  C   UNL     1       0.099  -0.177   0.013  0.00  0.00    -0.047 A 
BRANCH  27  31
ATOM     31  N   UNL     1       3.675   1.955   0.006  0.00  0.00    -0.358 N 
ATOM     32  H   UNL     1       3.667   2.917   0.137  0.00  0.00    +0.142 HD
ATOM     33  H   UNL     1       4.516   1.491  -0.126  0.00  0.00    +0.142 HD
ENDBRANCH  27  31
ENDBRANCH  24  30
ENDBRANCH  23  24
ENDBRANCH   1  23
TORSDOF 7
