REMARK  Name = ZINC06301356
REMARK  9 active torsions:
REMARK  status: ('A' for Active; 'I' for Inactive)
REMARK    1  A    between atoms: C_1  and  C_2
REMARK    2  A    between atoms: C_4  and  C_34
REMARK    3  A    between atoms: C_7  and  C_14
REMARK    4  A    between atoms: C_14  and  N_15
REMARK    5  A    between atoms: N_15  and  C_16
REMARK    6  A    between atoms: N_15  and  S_24
REMARK    7  A    between atoms: C_16  and  C_17
REMARK    8  A    between atoms: C_17  and  C_18
REMARK    9  A    between atoms: S_24  and  C_27
REMARK                            x       y       z     vdW  Elec       q    Type
REMARK                         _______ _______ _______ _____ _____    ______ ____
ROOT
ATOM      1  N   UNL     1       0.886   4.225   1.496  0.00  0.00    -0.172 NA
ENDROOT
BRANCH   1   2
ATOM      2  S   UNL     1       0.761   4.001  -0.141  0.00  0.00    +0.061 S 
ATOM      3  O   UNL     1       1.885   4.646  -0.726  0.00  0.00    -0.153 OA
ATOM      4  O   UNL     1      -0.575   4.330  -0.494  0.00  0.00    -0.153 OA
BRANCH   2   5
ATOM      5  C   UNL     1       0.954   2.277  -0.447  0.00  0.00    +0.106 A 
ATOM      6  C   UNL     1      -0.137   1.433  -0.356  0.00  0.00    +0.030 A 
ATOM      7  C   UNL     1       0.014   0.080  -0.596  0.00  0.00    +0.022 A 
ATOM      8  C   UNL     1       1.257  -0.429  -0.928  0.00  0.00    +0.041 A 
ATOM      9  C   UNL     1       2.348   0.416  -1.020  0.00  0.00    +0.022 A 
ATOM     10  C   UNL     1       2.196   1.769  -0.779  0.00  0.00    +0.030 A 
ATOM     11 CL   UNL     1       1.447  -2.128  -1.230  0.00  0.00    -0.084 Cl
ENDBRANCH   2   5
ENDBRANCH   1   2
BRANCH   1  12
ATOM     12  C   UNL     1      -0.292   4.058   2.350  0.00  0.00    +0.150 C 
BRANCH  12  19
ATOM     13  C   UNL     1      -3.944  11.082   3.314  0.00  0.00    +0.044 C 
ATOM     14  C   UNL     1      -3.396   9.727   2.949  0.00  0.00    -0.048 A 
ATOM     15  C   UNL     1      -3.917   9.047   1.856  0.00  0.00    +0.007 A 
ATOM     16  C   UNL     1      -3.435   7.818   1.508  0.00  0.00    -0.041 A 
ATOM     17  C   UNL     1      -2.407   7.238   2.259  0.00  0.00    +0.002 A 
ATOM     18  C   UNL     1      -1.863   5.924   1.911  0.00  0.00    +0.020 A 
ATOM     19  C   UNL     1      -0.871   5.410   2.678  0.00  0.00    +0.033 A 
ATOM     20  C   UNL     1      -0.373   6.139   3.780  0.00  0.00    +0.254 A 
ATOM     21  O   UNL     1       0.522   5.660   4.453  0.00  0.00    -0.268 OA
ATOM     22  N   UNL     1      -0.863   7.348   4.104  0.00  0.00    -0.322 N 
ATOM     23  H   UNL     1      -0.498   7.822   4.867  0.00  0.00    +0.169 HD
ATOM     24  C   UNL     1      -1.876   7.924   3.367  0.00  0.00    +0.050 A 
ATOM     25  C   UNL     1      -2.383   9.175   3.703  0.00  0.00    +0.029 A 
ATOM     26  C   UNL     1      -4.008   7.089   0.320  0.00  0.00    +0.044 C 
ENDBRANCH  12  19
ENDBRANCH   1  12
BRANCH   1  27
ATOM     27  C   UNL     1       2.175   4.590   2.088  0.00  0.00    +0.114 C 
BRANCH  27  28
ATOM     28  C   UNL     1       2.289   6.114   2.163  0.00  0.00    +0.052 C 
BRANCH  28  29
ATOM     29  C   UNL     1       3.663   6.492   2.653  0.00  0.00    -0.046 A 
ATOM     30  C   UNL     1       3.896   6.645   4.006  0.00  0.00    +0.003 A 
ATOM     31  C   UNL     1       5.158   6.988   4.456  0.00  0.00    +0.000 A 
ATOM     32  C   UNL     1       6.184   7.186   3.551  0.00  0.00    +0.000 A 
ATOM     33  C   UNL     1       5.949   7.039   2.196  0.00  0.00    +0.000 A 
ATOM     34  C   UNL     1       4.688   6.692   1.747  0.00  0.00    +0.003 A 
ENDBRANCH  28  29
ENDBRANCH  27  28
ENDBRANCH   1  27
TORSDOF 7
