REMARK  Name = ZINC63157006
REMARK  5 active torsions:
REMARK  status: ('A' for Active; 'I' for Inactive)
REMARK    1  A    between atoms: C_1  and  C_2
REMARK    2  A    between atoms: C_2  and  C_4
REMARK    3  A    between atoms: C_2  and  N_21
REMARK    4  A    between atoms: C_4  and  C_5
REMARK    5  A    between atoms: C_7  and  C_10
REMARK                            x       y       z     vdW  Elec       q    Type
REMARK                         _______ _______ _______ _____ _____    ______ ____
ROOT
ATOM      1  C   UNL     1       0.657  -2.014   1.298  0.00  0.00    +0.226 A 
ATOM      2  N   UNL     1       1.508  -2.849   0.769  0.00  0.00    -0.196 NA
ATOM      3  C   UNL     1       1.127  -4.108   1.009  0.00  0.00    +0.179 A 
ATOM      4  N   UNL     1       0.022  -4.090   1.698  0.00  0.00    -0.061 NA
ATOM      5  O   UNL     1      -0.303  -2.724   1.904  0.00  0.00    -0.338 OA
ENDROOT
BRANCH   3   6
ATOM      6  C   UNL     1       1.857  -5.346   0.556  0.00  0.00    +0.090 C 
ATOM      7  C   UNL     1       2.271  -6.162   1.779  0.00  0.00    +0.016 C 
ATOM      8  C   UNL     1       2.814  -7.513   1.297  0.00  0.00    +0.006 C 
ATOM      9  C   UNL     1       1.648  -8.332   0.746  0.00  0.00    +0.035 C 
ATOM     10  C   UNL     1       0.863  -7.526  -0.255  0.00  0.00    -0.044 A 
ATOM     11  C   UNL     1       0.955  -6.155  -0.339  0.00  0.00    -0.034 A 
ATOM     12  C   UNL     1       0.198  -5.472  -1.281  0.00  0.00    +0.004 A 
ATOM     13  C   UNL     1      -0.644  -6.156  -2.134  0.00  0.00    +0.000 A 
ATOM     14  C   UNL     1      -0.734  -7.533  -2.051  0.00  0.00    +0.000 A 
ATOM     15  C   UNL     1       0.017  -8.212  -1.117  0.00  0.00    +0.004 A 
ENDBRANCH   3   6
BRANCH   1  16
ATOM     16  C   UNL     1       0.742  -0.511   1.242  0.00  0.00    +0.082 C 
BRANCH  16  18
ATOM     17  C   UNL     1      -0.019   1.526   0.010  0.00  0.00    -0.014 C 
ATOM     18  C   UNL     1       0.002  -0.004   0.002  0.00  0.00    -0.069 C 
BRANCH  18  19
ATOM     19  N   UNL     1       0.690  -0.478  -1.207  0.00  0.00    +0.380 N 
ATOM     20  H   UNL     1       1.636  -0.129  -1.214  0.00  0.00    -0.090 HD
ATOM     21  H   UNL     1       0.703  -1.487  -1.212  0.00  0.00    -0.090 HD
ATOM     22  H   UNL     1       0.202  -0.144  -2.024  0.00  0.00    -0.090 HD
ENDBRANCH  18  19
ENDBRANCH  16  18
ENDBRANCH   1  16
TORSDOF 4
