REMARK  Name = ZINC38786944
REMARK  7 active torsions:
REMARK  status: ('A' for Active; 'I' for Inactive)
REMARK    1  A    between atoms: C_1  and  O_2
REMARK    2  A    between atoms: O_2  and  C_3
REMARK    3  A    between atoms: C_7  and  N_17
REMARK    4  A    between atoms: C_8  and  C_13
REMARK    5  A    between atoms: C_13  and  O_15
REMARK    6  A    between atoms: O_15  and  C_16
REMARK    7  A    between atoms: N_17  and  C_18
REMARK                            x       y       z     vdW  Elec       q    Type
REMARK                         _______ _______ _______ _____ _____    ______ ____
ROOT
ATOM      1  C   UNL     1      -0.914  -1.097  -1.042  0.00  0.00    +0.122 A 
ATOM      2  C   UNL     1      -2.047  -0.267  -1.027  0.00  0.00    +0.046 A 
ATOM      3  C   UNL     1      -3.256  -0.725  -0.625  0.00  0.00    +0.015 A 
ATOM      4  C   UNL     1      -3.394  -2.072  -0.205  0.00  0.00    +0.018 A 
ATOM      5  C   UNL     1      -4.478  -2.799   0.247  0.00  0.00    +0.051 C 
ATOM      6  C   UNL     1      -3.953  -4.189   0.531  0.00  0.00    +0.234 C 
ATOM      7  N   UNL     1      -2.525  -4.157   0.202  0.00  0.00    -0.367 N 
ATOM      8  C   UNL     1      -2.208  -2.948  -0.218  0.00  0.00    +0.048 A 
ATOM      9  C   UNL     1      -0.978  -2.402  -0.657  0.00  0.00    +0.071 A 
ATOM     10  H   UNL     1      -1.912  -4.904   0.280  0.00  0.00    +0.161 HD
ENDROOT
BRANCH   1  12
ATOM     11  C   UNL     1       0.287   0.787  -1.847  0.00  0.00    +0.277 C 
ATOM     12  O   UNL     1       0.273  -0.587  -1.454  0.00  0.00    -0.495 OA
ENDBRANCH   1  12
BRANCH   6  13
ATOM     13  C   UNL     1      -4.144  -4.529   1.987  0.00  0.00    +0.335 C 
ATOM     14  O   UNL     1      -3.314  -4.196   2.799  0.00  0.00    -0.248 OA
BRANCH  13  15
ATOM     15  O   UNL     1      -5.236  -5.202   2.381  0.00  0.00    -0.466 OA
ATOM     16  C   UNL     1      -5.352  -5.490   3.776  0.00  0.00    +0.280 C 
ENDBRANCH  13  15
ENDBRANCH   6  13
BRANCH   5  17
ATOM     17  N   UNL     1      -5.757  -2.355   0.406  0.00  0.00    -0.320 N 
ATOM     18  H   UNL     1      -5.966  -1.418   0.268  0.00  0.00    +0.151 HD
BRANCH  17  19
ATOM     19  C   UNL     1      -6.733  -3.220   0.756  0.00  0.00    +0.090 C 
ATOM     20  C   UNL     1      -8.010  -2.749   1.036  0.00  0.00    +0.119 C 
ATOM     21  C   UNL     1      -8.305  -1.309   1.104  0.00  0.00    +0.278 C 
ATOM     22  N   UNL     1      -9.553  -0.941   1.378  0.00  0.00    -0.120 NA
ATOM     23  C   UNL     1     -10.510  -1.829   1.585  0.00  0.00    +0.364 C 
ATOM     24  N   UNL     1     -10.325  -3.137   1.542  0.00  0.00    -0.154 NA
ATOM     25  C   UNL     1      -9.135  -3.667   1.275  0.00  0.00    +0.288 C 
ATOM     26  O   UNL     1      -8.965  -4.994   1.229  0.00  0.00    -0.265 OA
ATOM     27  O   UNL     1     -11.752  -1.371   1.859  0.00  0.00    -0.245 OA
ATOM     28  O   UNL     1      -7.346  -0.398   0.896  0.00  0.00    -0.268 OA
ENDBRANCH  17  19
ENDBRANCH   5  17
TORSDOF 5
