REMARK  Name = ZINC17093275
REMARK  3 active torsions:
REMARK  status: ('A' for Active; 'I' for Inactive)
REMARK    1  A    between atoms: C_13  and  C_15
REMARK    2  A    between atoms: C_15  and  O_16
REMARK    3  A    between atoms: O_16  and  C_17
REMARK                            x       y       z     vdW  Elec       q    Type
REMARK                         _______ _______ _______ _____ _____    ______ ____
ROOT
ATOM      1  C   UNL     1       2.614  -2.679  -0.036  0.00  0.00    +0.001 A 
ATOM      2  C   UNL     1       3.776  -1.916  -0.043  0.00  0.00    +0.002 A 
ATOM      3  C   UNL     1       3.718  -0.551  -0.036  0.00  0.00    +0.028 A 
ATOM      4  C   UNL     1       2.474   0.087  -0.021  0.00  0.00    +0.079 A 
ATOM      5  C   UNL     1       1.292  -0.691  -0.014  0.00  0.00    +0.067 A 
ATOM      6  C   UNL     1       1.385  -2.085  -0.022  0.00  0.00    +0.015 A 
ATOM      7  C   UNL     1       0.002  -0.004   0.002  0.00  0.00    +0.283 A 
ATOM      8  O   UNL     1      -1.038  -0.638   0.008  0.00  0.00    -0.265 OA
ATOM      9  N   UNL     1      -0.017   1.364   0.009  0.00  0.00    -0.170 N 
ATOM     10  C   UNL     1       1.194   2.011   0.002  0.00  0.00    +0.199 A 
ATOM     11  N   UNL     1       2.360   1.427  -0.013  0.00  0.00    -0.221 NA
ATOM     12  S   UNL     1       0.709   3.726   0.016  0.00  0.00    -0.029 S 
ATOM     13  C   UNL     1      -1.058   3.470   0.032  0.00  0.00    +0.140 A 
ATOM     14  N   UNL     1      -1.147   2.177   0.030  0.00  0.00    -0.156 NA
ENDROOT
BRANCH  13  15
ATOM     15  C   UNL     1      -2.162   4.496   0.048  0.00  0.00    +0.293 C 
BRANCH  15  16
ATOM     16  O   UNL     1      -3.428   3.832   0.056  0.00  0.00    -0.484 OA
BRANCH  16  17
ATOM     17  C   UNL     1      -4.537   4.619   0.071  0.00  0.00    +0.139 A 
ATOM     18  C   UNL     1      -4.409   6.000   0.079  0.00  0.00    +0.048 A 
ATOM     19  C   UNL     1      -5.537   6.797   0.094  0.00  0.00    +0.019 A 
ATOM     20  C   UNL     1      -6.794   6.219   0.102  0.00  0.00    +0.019 A 
ATOM     21  C   UNL     1      -6.925   4.842   0.095  0.00  0.00    +0.039 A 
ATOM     22  C   UNL     1      -5.798   4.040   0.074  0.00  0.00    +0.084 A 
ATOM     23 CL   UNL     1      -5.963   2.312   0.058  0.00  0.00    -0.080 Cl
ATOM     24 BR   UNL     1      -8.336   7.314   0.124  0.00  0.00    -0.050 Br
ENDBRANCH  16  17
ENDBRANCH  15  16
ENDBRANCH  13  15
TORSDOF 3
