REMARK  Name = ZINC65061853
REMARK  8 active torsions:
REMARK  status: ('A' for Active; 'I' for Inactive)
REMARK    1  A    between atoms: C_1  and  C_2
REMARK    2  A    between atoms: C_2  and  C_4
REMARK    3  A    between atoms: C_2  and  C_18
REMARK    4  A    between atoms: N_7  and  S_10
REMARK    5  A    between atoms: S_10  and  C_13
REMARK    6  A    between atoms: N_20  and  C_21
REMARK    7  A    between atoms: C_21  and  C_22
REMARK    8  A    between atoms: C_22  and  C_23
REMARK                            x       y       z     vdW  Elec       q    Type
REMARK                         _______ _______ _______ _____ _____    ______ ____
ROOT
ATOM      1  C   UNL     1       0.707  -0.490  -1.238  0.00  0.00    +0.216 C 
ATOM      2  O   UNL     1       1.704  -1.174  -1.140  0.00  0.00    -0.276 OA
ATOM      3  N   UNL     1       0.231  -0.164  -2.456  0.00  0.00    -0.315 N 
ATOM      4  H   UNL     1      -0.566   0.383  -2.534  0.00  0.00    +0.149 HD
ENDROOT
BRANCH   1   6
ATOM      5  C   UNL     1      -0.019   1.526   0.010  0.00  0.00    +0.017 C 
ATOM      6  C   UNL     1       0.002  -0.004   0.002  0.00  0.00    +0.075 C 
BRANCH   6   7
ATOM      7  C   UNL     1       0.742  -0.511   1.242  0.00  0.00    +0.003 C 
ATOM      8  C   UNL     1       0.026  -0.016   2.501  0.00  0.00    +0.021 C 
ATOM      9  C   UNL     1       0.790  -0.496   3.739  0.00  0.00    +0.110 C 
ATOM     10  N   UNL     1       0.940  -1.956   3.665  0.00  0.00    -0.176 NA
ATOM     11  C   UNL     1       1.534  -2.544   2.457  0.00  0.00    +0.110 C 
ATOM     12  C   UNL     1       0.763  -2.041   1.233  0.00  0.00    +0.021 C 
BRANCH  10  13
ATOM     13  S   UNL     1       0.450  -2.919   4.920  0.00  0.00    +0.067 S 
ATOM     14  O   UNL     1       1.197  -4.124   4.822  0.00  0.00    -0.152 OA
ATOM     15  O   UNL     1       0.464  -2.106   6.085  0.00  0.00    -0.152 OA
BRANCH  13  16
ATOM     16  C   UNL     1      -1.234  -3.345   4.623  0.00  0.00    +0.143 A 
ATOM     17  C   UNL     1      -1.739  -4.407   3.950  0.00  0.00    +0.036 A 
ATOM     18  C   UNL     1      -3.111  -4.541   3.842  0.00  0.00    +0.010 A 
ATOM     19  C   UNL     1      -3.909  -3.606   4.413  0.00  0.00    +0.047 A 
ATOM     20  S   UNL     1      -2.716  -2.494   5.137  0.00  0.00    -0.077 S 
ENDBRANCH  13  16
ENDBRANCH  10  13
ENDBRANCH   6   7
ENDBRANCH   1   6
BRANCH   3  21
ATOM     21  C   UNL     1       0.917  -0.637  -3.661  0.00  0.00    +0.108 C 
BRANCH  21  22
ATOM     22  C   UNL     1       0.177  -0.130  -4.901  0.00  0.00    +0.052 C 
BRANCH  22  23
ATOM     23  C   UNL     1       0.882  -0.616  -6.141  0.00  0.00    -0.040 C 
ATOM     24  C   UNL     1       0.586  -1.719  -6.865  0.00  0.00    +0.000 A 
ATOM     25  C   UNL     1      -0.442  -2.756  -6.721  0.00  0.00    +0.030 A 
ATOM     26  C   UNL     1      -0.491  -3.763  -7.625  0.00  0.00    +0.042 A 
ATOM     27  C   UNL     1       0.415  -3.838  -8.693  0.00  0.00    +0.022 A 
ATOM     28  C   UNL     1       1.387  -2.922  -8.891  0.00  0.00    +0.027 A 
ATOM     29  C   UNL     1       1.529  -1.821  -8.001  0.00  0.00    +0.043 A 
ATOM     30  N   UNL     1       2.376  -0.820  -7.980  0.00  0.00    -0.380 N 
ATOM     31  C   UNL     1       2.060   0.035  -6.830  0.00  0.00    +0.144 C 
ATOM     32 CL   UNL     1      -1.705  -4.992  -7.457  0.00  0.00    -0.084 Cl
ATOM     33  H   UNL     1       3.089  -0.668  -8.620  0.00  0.00    +0.160 HD
ENDBRANCH  22  23
ENDBRANCH  21  22
ENDBRANCH   3  21
TORSDOF 7
