REMARK  Name = ZINC22792023
REMARK  7 active torsions:
REMARK  status: ('A' for Active; 'I' for Inactive)
REMARK    1  A    between atoms: C_1  and  C_2
REMARK    2  A    between atoms: C_2  and  C_4
REMARK    3  A    between atoms: C_2  and  N_18
REMARK    4  A    between atoms: N_6  and  C_7
REMARK    5  A    between atoms: C_8  and  C_15
REMARK    6  A    between atoms: N_21  and  C_24
REMARK    7  A    between atoms: C_24  and  C_25
REMARK                            x       y       z     vdW  Elec       q    Type
REMARK                         _______ _______ _______ _____ _____    ______ ____
ROOT
ATOM      1  C   UNL     1      -2.883   3.331   2.193  0.00  0.00    +0.034 C 
ATOM      2  C   UNL     1      -1.399   3.565   2.482  0.00  0.00    +0.140 C 
ENDROOT
BRANCH   2   3
ATOM      3  N   UNL     1      -0.593   3.004   1.389  0.00  0.00    -0.295 NA
ATOM      4  C   UNL     1      -0.522   1.540   1.485  0.00  0.00    +0.066 C 
ATOM      5  C   UNL     1       0.388   1.002   0.378  0.00  0.00    -0.063 C 
ATOM      6  N   UNL     1      -0.137   1.417  -0.930  0.00  0.00    +0.387 N 
ATOM      7  C   UNL     1      -0.207   2.882  -1.025  0.00  0.00    -0.063 C 
ATOM      8  C   UNL     1      -1.118   3.420   0.081  0.00  0.00    +0.066 C 
ATOM      9  H   UNL     1      -1.158   1.021  -1.027  0.00  0.00    -0.081 HD
BRANCH   6  10
ATOM     10  C   UNL     1       0.669   0.857  -2.023  0.00  0.00    +0.019 C 
BRANCH  10  11
ATOM     11  C   UNL     1      -0.031   1.094  -3.336  0.00  0.00    +0.199 C 
ATOM     12  O   UNL     1      -1.097   1.673  -3.359  0.00  0.00    -0.278 OA
ATOM     13  N   UNL     1       0.527   0.663  -4.485  0.00  0.00    -0.303 N 
ATOM     14  C   UNL     1       1.800  -0.019  -4.424  0.00  0.00    +0.107 C 
ATOM     15  C   UNL     1       2.950   1.006  -4.523  0.00  0.00    +0.019 C 
ATOM     16  C   UNL     1       3.031   1.551  -5.887  0.00  0.00    +0.002 C 
ATOM     17  C   UNL     1       1.793   2.326  -6.329  0.00  0.00    +0.002 C 
ATOM     18  C   UNL     1       0.769   1.362  -6.875  0.00  0.00    +0.019 C 
ATOM     19  C   UNL     1      -0.185   0.912  -5.754  0.00  0.00    +0.107 C 
ENDBRANCH  10  11
ENDBRANCH   6  10
ENDBRANCH   2   3
BRANCH   2  20
ATOM     20  C   UNL     1      -1.136   5.045   2.593  0.00  0.00    +0.235 C 
ATOM     21  O   UNL     1      -0.577   5.630   1.689  0.00  0.00    -0.274 OA
ATOM     22  N   UNL     1      -1.521   5.717   3.695  0.00  0.00    -0.278 N 
ATOM     23  H   UNL     1      -2.027   5.186   4.515  0.00  0.00    +0.155 HD
BRANCH  22  24
ATOM     24  C   UNL     1      -1.278   7.079   3.797  0.00  0.00    +0.084 A 
ATOM     25  C   UNL     1      -1.600   7.934   4.836  0.00  0.00    +0.068 A 
ATOM     26  C   UNL     1      -1.226   9.341   4.696  0.00  0.00    -0.023 A 
ATOM     27  C   UNL     1      -0.606   9.655   3.544  0.00  0.00    -0.004 A 
ATOM     28  S   UNL     1      -0.507   8.122   2.652  0.00  0.00    -0.077 S 
ATOM     29  C   UNL     1      -0.256  11.117   3.472  0.00  0.00    +0.043 C 
ATOM     30  C   UNL     1      -0.355  11.613   4.931  0.00  0.00    +0.010 C 
ATOM     31  C   UNL     1      -1.359  10.612   5.536  0.00  0.00    +0.037 C 
BRANCH  25  32
ATOM     32  C   UNL     1      -2.288   7.447   6.036  0.00  0.00    +0.244 C 
ATOM     33  O   UNL     1      -1.642   7.046   6.987  0.00  0.00    -0.270 OA
ATOM     34  N   UNL     1      -3.634   7.444   6.087  0.00  0.00    -0.325 N 
ATOM     35  H   UNL     1      -4.150   7.078   6.987  0.00  0.00    +0.145 HD
ATOM     36  H   UNL     1      -4.218   7.806   5.228  0.00  0.00    +0.145 HD
ENDBRANCH  25  32
ENDBRANCH  22  24
ENDBRANCH   2  20
TORSDOF 6
