REMARK  Name = ZINC50031875
REMARK  4 active torsions:
REMARK  status: ('A' for Active; 'I' for Inactive)
REMARK    1  A    between atoms: C_2  and  C_18
REMARK    2  A    between atoms: C_3  and  N_17
REMARK    3  A    between atoms: C_6  and  N_7
REMARK    4  A    between atoms: C_10  and  C_13
REMARK                            x       y       z     vdW  Elec       q    Type
REMARK                         _______ _______ _______ _____ _____    ______ ____
ROOT
ATOM      1  C   UNL     1      -0.223   1.112  -0.083  0.00  0.00    +0.041 A 
ATOM      2  C   UNL     1       0.755   2.110  -0.149  0.00  0.00    +0.059 A 
ATOM      3  C   UNL     1       2.112   1.756  -0.135  0.00  0.00    +0.040 A 
ATOM      4  C   UNL     1       2.476   0.418  -0.055  0.00  0.00    +0.063 A 
ATOM      5  C   UNL     1       1.504  -0.562   0.009  0.00  0.00    +0.146 A 
ATOM      6  C   UNL     1       0.153  -0.215  -0.004  0.00  0.00    +0.069 A 
ATOM      7  F   UNL     1       1.864  -1.862   0.086  0.00  0.00    -0.203 F 
ENDROOT
BRANCH   6   8
ATOM      8  N   UNL     1      -0.826  -1.216   0.063  0.00  0.00    -0.291 N 
ATOM      9  C   UNL     1      -2.078  -0.927   0.582  0.00  0.00    +0.163 A 
ATOM     10  N   UNL     1      -3.149  -1.693   0.610  0.00  0.00    -0.229 NA
ATOM     11  C   UNL     1      -4.278  -1.266   1.146  0.00  0.00    +0.054 A 
ATOM     12  C   UNL     1      -4.281  -0.013   1.661  0.00  0.00    +0.072 A 
ATOM     13  S   UNL     1      -2.598   0.485   1.336  0.00  0.00    -0.060 S 
ATOM     14  H   UNL     1      -0.627  -2.111  -0.253  0.00  0.00    +0.154 HD
BRANCH  11  15
ATOM     15  C   UNL     1      -5.510  -2.134   1.183  0.00  0.00    +0.038 C 
ATOM     16  C   UNL     1      -6.633  -1.728   2.139  0.00  0.00    +0.010 C 
ATOM     17  C   UNL     1      -5.763  -2.947   2.454  0.00  0.00    +0.010 C 
ENDBRANCH  11  15
ENDBRANCH   6   8
BRANCH   2  18
ATOM     18  C   UNL     1       0.361   3.527  -0.234  0.00  0.00    +0.243 C 
ATOM     19  O   UNL     1       1.208   4.398  -0.181  0.00  0.00    -0.270 OA
ATOM     20  N   UNL     1      -0.939   3.858  -0.371  0.00  0.00    -0.325 N 
ATOM     21  H   UNL     1      -1.614   3.164  -0.413  0.00  0.00    +0.145 HD
ATOM     22  H   UNL     1      -1.198   4.792  -0.427  0.00  0.00    +0.145 HD
ENDBRANCH   2  18
BRANCH   3  23
ATOM     23  N   UNL     1       3.091   2.742  -0.201  0.00  0.00    -0.357 N 
ATOM     24  H   UNL     1       2.840   3.678  -0.172  0.00  0.00    +0.142 HD
ATOM     25  H   UNL     1       4.026   2.493  -0.277  0.00  0.00    +0.142 HD
ENDBRANCH   3  23
TORSDOF 4
