REMARK  Name = ZINC48533272
REMARK  14 active torsions:
REMARK  status: ('A' for Active; 'I' for Inactive)
REMARK    1  A    between atoms: C_1  and  C_2
REMARK    2  A    between atoms: C_2  and  C_3
REMARK    3  A    between atoms: C_2  and  C_4
REMARK    4  A    between atoms: C_2  and  C_5
REMARK    5  A    between atoms: C_7  and  C_16
REMARK    6  A    between atoms: C_9  and  C_12
REMARK    7  A    between atoms: C_10  and  O_11
REMARK    8  A    between atoms: C_12  and  C_13
REMARK    9  A    between atoms: C_12  and  C_14
REMARK   10  A    between atoms: C_12  and  C_15
REMARK   11  A    between atoms: N_17  and  N_18
REMARK   12  A    between atoms: C_19  and  C_21
REMARK   13  A    between atoms: C_24  and  N_27
REMARK   14  A    between atoms: N_30  and  C_31
REMARK                            x       y       z     vdW  Elec       q    Type
REMARK                         _______ _______ _______ _____ _____    ______ ____
ROOT
ATOM      1  N   UNL     1       2.527   1.820  -6.617  0.00  0.00    -0.203 N 
ATOM      2  C   UNL     1       3.406   1.315  -7.504  0.00  0.00    +0.263 C 
ATOM      3  O   UNL     1       3.619   0.117  -7.536  0.00  0.00    -0.268 OA
ATOM      4  H   UNL     1       2.357   2.775  -6.592  0.00  0.00    +0.178 HD
ENDROOT
BRANCH   2   5
ATOM      5  C   UNL     1       4.112   2.214  -8.438  0.00  0.00    +0.038 A 
ATOM      6  C   UNL     1       3.873   3.591  -8.399  0.00  0.00    +0.015 A 
ATOM      7  C   UNL     1       4.532   4.427  -9.271  0.00  0.00    +0.024 A 
ATOM      8  C   UNL     1       5.436   3.903 -10.191  0.00  0.00    +0.035 A 
ATOM      9  C   UNL     1       5.676   2.533 -10.232  0.00  0.00    +0.024 A 
ATOM     10  C   UNL     1       5.024   1.692  -9.358  0.00  0.00    +0.015 A 
BRANCH   8  11
ATOM     11  N   UNL     1       6.101   4.752 -11.073  0.00  0.00    -0.269 N 
ATOM     12  C   UNL     1       6.438   5.998 -10.685  0.00  0.00    +0.308 C 
ATOM     13  O   UNL     1       6.246   6.349  -9.537  0.00  0.00    -0.252 OA
ATOM     14  N   UNL     1       6.987   6.855 -11.569  0.00  0.00    -0.269 N 
ATOM     15  H   UNL     1       6.322   4.447 -11.967  0.00  0.00    +0.156 HD
ATOM     16  H   UNL     1       7.071   6.601 -12.501  0.00  0.00    +0.156 HD
BRANCH  14  17
ATOM     17  C   UNL     1       7.436   8.109 -11.141  0.00  0.00    +0.036 A 
ATOM     18  C   UNL     1       7.352   9.205 -11.991  0.00  0.00    +0.023 A 
ATOM     19  C   UNL     1       7.796  10.442 -11.567  0.00  0.00    +0.003 A 
ATOM     20  C   UNL     1       8.324  10.591 -10.297  0.00  0.00    +0.020 A 
ATOM     21  C   UNL     1       8.409   9.502  -9.448  0.00  0.00    +0.043 A 
ATOM     22  C   UNL     1       7.961   8.262  -9.865  0.00  0.00    +0.043 A 
ATOM     23 CL   UNL     1       9.074   9.693  -7.856  0.00  0.00    -0.083 Cl
ENDBRANCH  14  17
ENDBRANCH   8  11
ENDBRANCH   2   5
BRANCH   1  25
ATOM     24  C   UNL     1       1.010   1.452  -4.876  0.00  0.00    +0.138 C 
ATOM     25  N   UNL     1       1.857   0.966  -5.731  0.00  0.00    -0.187 NA
BRANCH  24  28
ATOM     26  C   UNL     1      -1.264   0.232  -2.153  0.00  0.00    +0.000 A 
ATOM     27  C   UNL     1      -0.607   1.075  -3.022  0.00  0.00    +0.017 A 
ATOM     28  C   UNL     1       0.306   0.554  -3.943  0.00  0.00    -0.005 A 
ATOM     29  C   UNL     1       0.548  -0.822  -3.978  0.00  0.00    +0.017 A 
ATOM     30  C   UNL     1      -0.113  -1.658  -3.105  0.00  0.00    +0.000 A 
ATOM     31  C   UNL     1      -1.016  -1.135  -2.188  0.00  0.00    +0.124 A 
BRANCH  26  33
ATOM     32  C   UNL     1      -2.335   2.311  -1.329  0.00  0.00    +0.015 C 
ATOM     33  C   UNL     1      -2.247   0.793  -1.159  0.00  0.00    -0.009 C 
ATOM     34  C   UNL     1      -1.781   0.465   0.261  0.00  0.00    +0.015 C 
ATOM     35  C   UNL     1      -3.625   0.173  -1.399  0.00  0.00    +0.015 C 
ENDBRANCH  26  33
BRANCH  30  36
ATOM     36  C   UNL     1       0.147  -3.142  -3.141  0.00  0.00    -0.009 C 
ATOM     37  C   UNL     1       1.177  -3.452  -4.229  0.00  0.00    +0.015 C 
ATOM     38  C   UNL     1       0.685  -3.599  -1.784  0.00  0.00    +0.015 C 
ATOM     39  C   UNL     1      -1.157  -3.881  -3.448  0.00  0.00    +0.015 C 
ENDBRANCH  30  36
BRANCH  31  40
ATOM     40  O   UNL     1      -1.661  -1.962  -1.325  0.00  0.00    -0.506 OA
ATOM     41  H   UNL     1      -2.500  -2.305  -1.663  0.00  0.00    +0.292 HD
ENDBRANCH  31  40
ENDBRANCH  24  28
ENDBRANCH   1  25
TORSDOF 8
