REMARK  Name = ZINC45338725
REMARK  10 active torsions:
REMARK  status: ('A' for Active; 'I' for Inactive)
REMARK    1  A    between atoms: C_1  and  C_2
REMARK    2  A    between atoms: C_6  and  C_8
REMARK    3  A    between atoms: C_11  and  C_13
REMARK    4  A    between atoms: C_13  and  C_14
REMARK    5  A    between atoms: C_16  and  C_21
REMARK    6  A    between atoms: C_23  and  O_36
REMARK    7  A    between atoms: C_25  and  O_35
REMARK    8  A    between atoms: C_27  and  O_34
REMARK    9  A    between atoms: C_29  and  C_32
REMARK   10  A    between atoms: C_32  and  O_33
REMARK                            x       y       z     vdW  Elec       q    Type
REMARK                         _______ _______ _______ _____ _____    ______ ____
ROOT
ATOM      1  C   UNL     1       1.501  -3.803   6.942  0.00  0.00    -0.022 A 
ATOM      2  C   UNL     1       2.062  -2.706   7.569  0.00  0.00    +0.011 A 
ATOM      3  C   UNL     1       3.368  -2.761   8.021  0.00  0.00    -0.016 A 
ATOM      4  C   UNL     1       4.113  -3.912   7.845  0.00  0.00    +0.008 A 
ATOM      5  C   UNL     1       3.553  -5.009   7.218  0.00  0.00    +0.020 A 
ATOM      6  C   UNL     1       2.245  -4.957   6.771  0.00  0.00    +0.045 A 
ATOM      7 CL   UNL     1       1.539  -6.337   5.989  0.00  0.00    -0.083 Cl
ENDROOT
BRANCH   3   8
ATOM      8  C   UNL     1       3.979  -1.565   8.704  0.00  0.00    +0.180 C 
ATOM      9  C   UNL     1       3.946  -1.772  10.221  0.00  0.00    +0.179 C 
ATOM     10  C   UNL     1       4.623  -0.580  10.905  0.00  0.00    +0.177 C 
ATOM     11  C   UNL     1       6.051  -0.440  10.368  0.00  0.00    +0.176 C 
ATOM     12  C   UNL     1       6.002  -0.285   8.846  0.00  0.00    +0.175 C 
ATOM     13  O   UNL     1       5.333  -1.411   8.275  0.00  0.00    -0.361 OA
BRANCH  11  14
ATOM     14  O   UNL     1       6.668   0.711  10.948  0.00  0.00    -0.386 OA
ATOM     15  H   UNL     1       6.728   0.682  11.912  0.00  0.00    +0.210 HD
ENDBRANCH  11  14
BRANCH  10  16
ATOM     16  O   UNL     1       4.661  -0.799  12.317  0.00  0.00    -0.386 OA
ATOM     17  H   UNL     1       5.077  -0.082  12.815  0.00  0.00    +0.210 HD
ENDBRANCH  10  16
BRANCH   9  18
ATOM     18  O   UNL     1       2.590  -1.870  10.661  0.00  0.00    -0.386 OA
ATOM     19  H   UNL     1       2.494  -2.002  11.614  0.00  0.00    +0.210 HD
ENDBRANCH   9  18
BRANCH  12  20
ATOM     20  C   UNL     1       7.427  -0.204   8.295  0.00  0.00    +0.190 C 
BRANCH  20  21
ATOM     21  O   UNL     1       7.381   0.058   6.891  0.00  0.00    -0.392 OA
ATOM     22  H   UNL     1       8.251   0.122   6.474  0.00  0.00    +0.210 HD
ENDBRANCH  20  21
ENDBRANCH  12  20
ENDBRANCH   3   8
BRANCH   1  23
ATOM     23  C   UNL     1       0.078  -3.743   6.450  0.00  0.00    +0.101 C 
BRANCH  23  27
ATOM     24  C   UNL     1       0.050  -2.681   2.490  0.00  0.00    +0.150 A 
ATOM     25  N   UNL     1       0.075  -3.981   2.765  0.00  0.00    -0.140 NA
ATOM     26  N   UNL     1       0.084  -4.346   3.974  0.00  0.00    -0.146 NA
ATOM     27  C   UNL     1       0.070  -3.483   4.965  0.00  0.00    +0.107 A 
ATOM     28  S   UNL     1       0.049  -2.010   4.147  0.00  0.00    -0.049 S 
BRANCH  24  34
ATOM     29  C   UNL     1      -0.018   1.503   0.010  0.00  0.00    +0.065 C 
ATOM     30  C   UNL     1       0.002  -0.004   0.002  0.00  0.00    +0.039 A 
ATOM     31  C   UNL     1       0.005  -0.680  -1.205  0.00  0.00    +0.023 A 
ATOM     32  C   UNL     1       0.024  -2.067  -1.209  0.00  0.00    +0.004 A 
ATOM     33  C   UNL     1       0.039  -2.731   0.005  0.00  0.00    +0.030 A 
ATOM     34  C   UNL     1       0.035  -1.987   1.184  0.00  0.00    +0.098 A 
ATOM     35  N   UNL     1       0.022  -0.659   1.144  0.00  0.00    -0.250 NA
ENDBRANCH  24  34
ENDBRANCH  23  27
ENDBRANCH   1  23
TORSDOF 9
