REMARK  Name = ZINC65967303
REMARK  8 active torsions:
REMARK  status: ('A' for Active; 'I' for Inactive)
REMARK    1  A    between atoms: C_1  and  C_2
REMARK    2  A    between atoms: C_2  and  C_3
REMARK    3  A    between atoms: C_2  and  N_4
REMARK    4  A    between atoms: N_7  and  C_8
REMARK    5  A    between atoms: C_11  and  C_14
REMARK    6  A    between atoms: C_14  and  N_15
REMARK    7  A    between atoms: C_16  and  C_18
REMARK    8  A    between atoms: C_18  and  N_19
REMARK                            x       y       z     vdW  Elec       q    Type
REMARK                         _______ _______ _______ _____ _____    ______ ____
ROOT
ATOM      1  N   UNL     1      -5.617  -3.300  -6.592  0.00  0.00    -0.313 N 
ATOM      2  C   UNL     1      -6.129  -3.724  -7.764  0.00  0.00    +0.197 C 
ATOM      3  O   UNL     1      -6.791  -2.969  -8.444  0.00  0.00    -0.278 OA
ATOM      4  H   UNL     1      -5.087  -3.904  -6.048  0.00  0.00    +0.149 HD
ENDROOT
BRANCH   1   5
ATOM      5  C   UNL     1      -5.861  -1.929  -6.139  0.00  0.00    +0.139 C 
BRANCH   5   9
ATOM      6  C   UNL     1      -3.943  -1.311  -2.369  0.00  0.00    +0.035 A 
ATOM      7  C   UNL     1      -3.260  -1.047  -3.549  0.00  0.00    +0.023 A 
ATOM      8  C   UNL     1      -3.882  -1.248  -4.766  0.00  0.00    +0.007 A 
ATOM      9  C   UNL     1      -5.185  -1.711  -4.809  0.00  0.00    -0.030 A 
ATOM     10  C   UNL     1      -5.868  -1.974  -3.636  0.00  0.00    +0.007 A 
ATOM     11  C   UNL     1      -5.249  -1.781  -2.417  0.00  0.00    +0.023 A 
BRANCH   6  15
ATOM     12  N   UNL     1      -2.902  -1.800   1.056  0.00  0.00    -0.297 N 
ATOM     13  C   UNL     1      -3.575  -1.937  -0.103  0.00  0.00    +0.304 C 
ATOM     14  O   UNL     1      -4.417  -2.806  -0.219  0.00  0.00    -0.253 OA
ATOM     15  N   UNL     1      -3.315  -1.109  -1.135  0.00  0.00    -0.269 N 
ATOM     16  H   UNL     1      -2.230  -1.106   1.148  0.00  0.00    +0.151 HD
ATOM     17  H   UNL     1      -2.693  -0.374  -1.022  0.00  0.00    +0.156 HD
BRANCH  12  19
ATOM     18  C   UNL     1      -2.364  -3.982   2.022  0.00  0.00    +0.027 C 
ATOM     19  C   UNL     1      -3.184  -2.700   2.177  0.00  0.00    +0.068 C 
ATOM     20  C   UNL     1      -2.810  -2.010   3.491  0.00  0.00    +0.027 C 
ENDBRANCH  12  19
ENDBRANCH   6  15
ENDBRANCH   5   9
ENDBRANCH   1   5
BRANCH   2  21
ATOM     21  C   UNL     1      -5.878  -5.135  -8.230  0.00  0.00    +0.019 C 
BRANCH  21  22
ATOM     22  N   UNL     1      -6.537  -5.347  -9.526  0.00  0.00    +0.387 N 
ATOM     23  C   UNL     1      -7.936  -5.086  -9.361  0.00  0.00    -0.074 C 
ATOM     24  C   UNL     1      -8.835  -5.716 -10.378  0.00  0.00    -0.027 C 
ATOM     25  C   UNL     1      -8.323  -5.651 -11.800  0.00  0.00    +0.005 C 
ATOM     26  C   UNL     1      -7.392  -6.791 -12.174  0.00  0.00    -0.012 C 
ATOM     27  C   UNL     1      -7.998  -8.142 -11.784  0.00  0.00    +0.007 C 
ATOM     28  C   UNL     1      -8.262  -8.126 -10.278  0.00  0.00    -0.012 C 
ATOM     29  C   UNL     1      -9.348  -7.085  -9.992  0.00  0.00    +0.005 C 
ATOM     30  C   UNL     1      -7.007  -7.805  -9.494  0.00  0.00    -0.012 C 
ATOM     31  C   UNL     1      -6.181  -6.659  -9.998  0.00  0.00    -0.067 C 
ATOM     32  C   UNL     1      -6.023  -6.660 -11.515  0.00  0.00    -0.012 C 
ATOM     33  H   UNL     1      -6.167  -4.670 -10.177  0.00  0.00    -0.081 HD
ENDBRANCH  21  22
ENDBRANCH   2  21
TORSDOF 6
