REMARK  Name = ZINC16021781
REMARK  9 active torsions:
REMARK  status: ('A' for Active; 'I' for Inactive)
REMARK    1  A    between atoms: C_1  and  C_2
REMARK    2  A    between atoms: C_2  and  C_3
REMARK    3  A    between atoms: C_2  and  C_4
REMARK    4  A    between atoms: C_4  and  C_5
REMARK    5  A    between atoms: C_5  and  C_7
REMARK    6  A    between atoms: C_5  and  N_17
REMARK    7  A    between atoms: N_9  and  C_10
REMARK    8  A    between atoms: C_10  and  C_11
REMARK    9  A    between atoms: C_18  and  C_20
REMARK                            x       y       z     vdW  Elec       q    Type
REMARK                         _______ _______ _______ _____ _____    ______ ____
ROOT
ATOM      1  N   UNL     1      -0.402   1.430  -4.942  0.00  0.00    -0.305 N 
ATOM      2  C   UNL     1      -0.594   2.216  -6.020  0.00  0.00    +0.200 C 
ATOM      3  O   UNL     1      -1.213   3.252  -5.912  0.00  0.00    -0.278 OA
ATOM      4  H   UNL     1       0.154   0.638  -5.012  0.00  0.00    +0.149 HD
ENDROOT
BRANCH   2   5
ATOM      5  C   UNL     1      -0.038   1.806  -7.360  0.00  0.00    +0.021 C 
ATOM      6  C   UNL     1      -0.973   0.787  -8.014  0.00  0.00    +0.028 C 
ATOM      7  C   UNL     1      -0.560   0.554  -9.444  0.00  0.00    -0.047 A 
ATOM      8  C   UNL     1      -1.042  -0.570 -10.097  0.00  0.00    +0.004 A 
ATOM      9  C   UNL     1      -0.696  -0.817 -11.410  0.00  0.00    +0.000 A 
ATOM     10  C   UNL     1       0.137   0.062 -12.078  0.00  0.00    +0.000 A 
ATOM     11  C   UNL     1       0.620   1.180 -11.428  0.00  0.00    +0.002 A 
ATOM     12  C   UNL     1       0.273   1.428 -10.108  0.00  0.00    -0.061 A 
ATOM     13  C   UNL     1       0.828   2.659  -9.441  0.00  0.00    -0.045 C 
ATOM     14  N   UNL     1       0.053   2.988  -8.236  0.00  0.00    +0.389 N 
ATOM     15  H   UNL     1       0.518   3.752  -7.731  0.00  0.00    -0.084 HD
ATOM     16  H   UNL     1      -0.892   3.284  -8.509  0.00  0.00    -0.084 HD
ENDBRANCH   2   5
BRANCH   1  17
ATOM     17  C   UNL     1      -1.033   1.771  -3.665  0.00  0.00    +0.159 C 
BRANCH  17  18
ATOM     18  C   UNL     1      -0.186   1.254  -2.532  0.00  0.00    +0.233 C 
ATOM     19  O   UNL     1       0.772   0.547  -2.764  0.00  0.00    -0.274 OA
ATOM     20  N   UNL     1      -0.491   1.577  -1.260  0.00  0.00    -0.311 N 
ATOM     21  H   UNL     1      -1.222   2.188  -1.077  0.00  0.00    +0.149 HD
BRANCH  20  22
ATOM     22  C   UNL     1       0.280   1.006  -0.153  0.00  0.00    +0.135 C 
BRANCH  22  23
ATOM     23  C   UNL     1      -0.268   1.532   1.175  0.00  0.00    +0.135 C 
ATOM     24  C   UNL     1       0.613   1.032   2.340  0.00  0.00    +0.035 C 
ATOM     25  C   UNL     1      -0.442   0.712   3.436  0.00  0.00    +0.031 C 
ATOM     26  C   UNL     1      -1.627   0.216   2.569  0.00  0.00    +0.160 C 
ATOM     27  O   UNL     1      -1.593   1.031   1.387  0.00  0.00    -0.375 OA
ENDBRANCH  22  23
ENDBRANCH  20  22
ENDBRANCH  17  18
BRANCH  17  28
ATOM     28  C   UNL     1      -2.422   1.132  -3.596  0.00  0.00    +0.034 C 
BRANCH  28  30
ATOM     29  C   UNL     1      -3.444   3.124  -2.487  0.00  0.00    +0.007 C 
ATOM     30  C   UNL     1      -3.150   1.629  -2.346  0.00  0.00    -0.015 C 
ATOM     31  C   UNL     1      -4.465   0.864  -2.183  0.00  0.00    +0.007 C 
ENDBRANCH  28  30
ENDBRANCH  17  28
ENDBRANCH   1  17
TORSDOF 7
