REMARK  Name = ZINC62626466
REMARK  3 active torsions:
REMARK  status: ('A' for Active; 'I' for Inactive)
REMARK    1  A    between atoms: C_4  and  N_12
REMARK    2  A    between atoms: C_5  and  C_7
REMARK    3  A    between atoms: C_13  and  C_15
REMARK                            x       y       z     vdW  Elec       q    Type
REMARK                         _______ _______ _______ _____ _____    ______ ____
ROOT
ATOM      1  C   UNL     1      -0.008   1.410  -0.077  0.00  0.00    +0.001 A 
ATOM      2  C   UNL     1       1.178   2.043  -0.414  0.00  0.00    +0.002 A 
ATOM      3  C   UNL     1       2.374   1.356  -0.366  0.00  0.00    +0.024 A 
ATOM      4  C   UNL     1       2.396   0.022   0.021  0.00  0.00    +0.044 A 
ATOM      5  C   UNL     1       1.198  -0.621   0.362  0.00  0.00    +0.034 A 
ATOM      6  C   UNL     1      -0.005   0.087   0.310  0.00  0.00    +0.013 A 
ENDROOT
BRANCH   5   7
ATOM      7  C   UNL     1       1.208  -2.039   0.775  0.00  0.00    +0.101 C 
ATOM      8  N   UNL     1       2.324  -2.736   0.911  0.00  0.00    -0.371 N 
ATOM      9  C   UNL     1       1.992  -4.107   1.330  0.00  0.00    +0.132 C 
ATOM     10  C   UNL     1       0.452  -4.092   1.418  0.00  0.00    +0.124 C 
ATOM     11  N   UNL     1       0.101  -2.713   1.043  0.00  0.00    -0.329 N 
ATOM     12  H   UNL     1      -0.800  -2.356   0.998  0.00  0.00    +0.147 HD
ATOM     13  H   UNL     1       3.220  -2.397   0.758  0.00  0.00    +0.161 HD
ENDBRANCH   5   7
BRANCH   4  14
ATOM     14  N   UNL     1       3.602  -0.673   0.069  0.00  0.00    -0.278 N 
ATOM     15  C   UNL     1       3.961  -1.472  -0.956  0.00  0.00    +0.321 C 
ATOM     16  O   UNL     1       3.276  -1.520  -1.956  0.00  0.00    -0.266 OA
ATOM     17  H   UNL     1       4.184  -0.582   0.840  0.00  0.00    +0.155 HD
BRANCH  15  18
ATOM     18  C   UNL     1       5.213  -2.305  -0.859  0.00  0.00    +0.470 C 
ATOM     19  F   UNL     1       5.373  -3.045  -2.036  0.00  0.00    -0.162 F 
ATOM     20  F   UNL     1       6.318  -1.467  -0.681  0.00  0.00    -0.162 F 
ATOM     21  F   UNL     1       5.109  -3.178   0.229  0.00  0.00    -0.162 F 
ENDBRANCH  15  18
ENDBRANCH   4  14
TORSDOF 3
