REMARK  Name = ZINC44552077
REMARK  7 active torsions:
REMARK  status: ('A' for Active; 'I' for Inactive)
REMARK    1  A    between atoms: C_1  and  C_2
REMARK    2  A    between atoms: C_7  and  C_9
REMARK    3  A    between atoms: C_7  and  C_10
REMARK    4  A    between atoms: C_17  and  C_19
REMARK    5  A    between atoms: N_20  and  N_21
REMARK    6  A    between atoms: N_21  and  C_22
REMARK    7  A    between atoms: C_22  and  N_24
REMARK                            x       y       z     vdW  Elec       q    Type
REMARK                         _______ _______ _______ _____ _____    ______ ____
ROOT
ATOM      1  C   UNL     1      -0.134   1.773  -0.271  0.00  0.00    +0.013 C 
ATOM      2  C   UNL     1      -0.066   0.247  -0.106  0.00  0.00    -0.014 C 
ATOM      3  C   UNL     1       0.667  -0.443  -1.288  0.00  0.00    +0.030 C 
ATOM      4  C   UNL     1       0.151  -1.892  -1.101  0.00  0.00    +0.076 C 
ATOM      5  C   UNL     1       0.903  -2.491   0.085  0.00  0.00    +0.029 C 
ATOM      6  C   UNL     1       0.794  -1.674   1.360  0.00  0.00    -0.033 C 
ATOM      7  C   UNL     1       0.645  -0.175   1.178  0.00  0.00    +0.014 C 
ATOM      8  C   UNL     1       2.097  -1.909   2.164  0.00  0.00    +0.011 C 
ATOM      9  C   UNL     1      -0.353  -2.215   2.226  0.00  0.00    +0.011 C 
ATOM     10  N   UNL     1      -1.274  -1.745  -0.745  0.00  0.00    -0.310 N 
ATOM     11  C   UNL     1      -1.463  -0.411  -0.154  0.00  0.00    +0.113 C 
ATOM     12  C   UNL     1      -2.268  -2.696  -0.943  0.00  0.00    +0.141 A 
ATOM     13  C   UNL     1      -1.938  -3.962  -1.425  0.00  0.00    +0.154 A 
ATOM     14  N   UNL     1      -2.880  -4.867  -1.613  0.00  0.00    -0.258 NA
ATOM     15  C   UNL     1      -4.141  -4.578  -1.347  0.00  0.00    +0.142 A 
ATOM     16  C   UNL     1      -4.481  -3.314  -0.865  0.00  0.00    +0.123 A 
ATOM     17  N   UNL     1      -3.531  -2.401  -0.669  0.00  0.00    -0.226 NA
ENDROOT
BRANCH  16  18
ATOM     18  C   UNL     1      -5.893  -2.990  -0.568  0.00  0.00    +0.134 C 
ATOM     19  N   UNL     1      -6.271  -1.747  -0.480  0.00  0.00    -0.291 N 
ATOM     20  N   UNL     1      -6.817  -4.014  -0.381  0.00  0.00    -0.342 N 
ATOM     21  H   UNL     1      -6.535  -4.940  -0.446  0.00  0.00    +0.144 HD
ATOM     22  H   UNL     1      -7.743  -3.801  -0.186  0.00  0.00    +0.144 HD
ATOM     23  H   UNL     1      -7.160  -1.532  -0.158  0.00  0.00    +0.186 HD
BRANCH  19  24
ATOM     24  N   UNL     1      -5.393  -0.720  -0.851  0.00  0.00    -0.240 N 
ATOM     25  H   UNL     1      -4.536  -0.935  -1.251  0.00  0.00    +0.174 HD
BRANCH  24  26
ATOM     26  C   UNL     1      -5.739   0.567  -0.650  0.00  0.00    +0.151 C 
ATOM     27  S   UNL     1      -4.604   1.815  -0.944  0.00  0.00    -0.017 S 
BRANCH  26  28
ATOM     28  N   UNL     1      -6.979   0.873  -0.218  0.00  0.00    -0.311 N 
ATOM     29  C   UNL     1      -8.019  -0.097   0.155  0.00  0.00    +0.107 C 
ATOM     30  C   UNL     1      -9.272   0.708   0.559  0.00  0.00    +0.020 C 
ATOM     31  C   UNL     1      -9.053   2.071  -0.150  0.00  0.00    +0.020 C 
ATOM     32  C   UNL     1      -7.514   2.234  -0.036  0.00  0.00    +0.107 C 
ENDBRANCH  26  28
ENDBRANCH  24  26
ENDBRANCH  19  24
ENDBRANCH  16  18
TORSDOF 4
