REMARK  Name = ZINC58456775
REMARK  4 active torsions:
REMARK  status: ('A' for Active; 'I' for Inactive)
REMARK    1  A    between atoms: C_1  and  C_2
REMARK    2  A    between atoms: C_2  and  C_3
REMARK    3  A    between atoms: C_2  and  C_4
REMARK    4  A    between atoms: C_14  and  C_16
REMARK                            x       y       z     vdW  Elec       q    Type
REMARK                         _______ _______ _______ _____ _____    ______ ____
ROOT
ATOM      1  C   UNL     1      -1.234  -1.187   0.155  0.00  0.00    -0.044 A 
ATOM      2  C   UNL     1      -2.230  -0.358   0.638  0.00  0.00    +0.006 A 
ATOM      3  C   UNL     1      -3.525  -0.826   0.740  0.00  0.00    +0.024 A 
ATOM      4  C   UNL     1      -3.827  -2.128   0.357  0.00  0.00    +0.040 A 
ATOM      5  C   UNL     1      -2.829  -2.957  -0.130  0.00  0.00    -0.026 A 
ATOM      6  C   UNL     1      -1.533  -2.479  -0.232  0.00  0.00    +0.009 A 
ATOM      7  C   UNL     1      -3.120  -4.369  -0.564  0.00  0.00    +0.038 C 
ATOM      8  C   UNL     1      -4.421  -4.865   0.067  0.00  0.00    +0.024 C 
ATOM      9  C   UNL     1      -5.526  -3.835  -0.199  0.00  0.00    +0.114 C 
ATOM     10  N   UNL     1      -5.146  -2.585   0.473  0.00  0.00    -0.267 N 
ATOM     11  C   UNL     1      -6.051  -1.890   1.190  0.00  0.00    +0.252 C 
ATOM     12  O   UNL     1      -5.699  -0.928   1.844  0.00  0.00    -0.270 OA
ENDROOT
BRANCH  11  13
ATOM     13  C   UNL     1      -7.472  -2.298   1.181  0.00  0.00    +0.057 A 
ATOM     14  C   UNL     1      -8.041  -2.868   0.036  0.00  0.00    +0.016 A 
ATOM     15  C   UNL     1      -9.375  -3.233   0.079  0.00  0.00    +0.022 A 
ATOM     16  C   UNL     1     -10.098  -3.025   1.241  0.00  0.00    +0.133 A 
ATOM     17  N   UNL     1      -9.535  -2.485   2.306  0.00  0.00    -0.146 N 
ATOM     18  O   UNL     1     -10.314  -2.291   3.472  0.00  0.00    -0.164 OA
ATOM     19  C   UNL     1      -8.266  -2.125   2.315  0.00  0.00    +0.146 A 
ENDBRANCH  11  13
BRANCH   1  21
ATOM     20  C   UNL     1       0.213   0.535  -0.889  0.00  0.00    +0.012 C 
ATOM     21  C   UNL     1       0.180  -0.677   0.044  0.00  0.00    +0.013 C 
ATOM     22  C   UNL     1       0.684  -0.268   1.430  0.00  0.00    +0.012 C 
ENDBRANCH   1  21
TORSDOF 2
