REMARK  Name = ZINC59170932
REMARK  4 active torsions:
REMARK  status: ('A' for Active; 'I' for Inactive)
REMARK    1  A    between atoms: C_3  and  N_9
REMARK    2  A    between atoms: C_11  and  C_21
REMARK    3  A    between atoms: C_16  and  O_20
REMARK    4  A    between atoms: C_21  and  N_23
REMARK                            x       y       z     vdW  Elec       q    Type
REMARK                         _______ _______ _______ _____ _____    ______ ____
ROOT
ATOM      1  N   UNL     1       3.606   2.326  -0.437  0.00  0.00    -0.324 N 
ATOM      2  C   UNL     1       3.688   3.265   0.481  0.00  0.00    +0.209 A 
ATOM      3  C   UNL     1       4.978   3.904   0.807  0.00  0.00    +0.064 A 
ATOM      4  C   UNL     1       4.939   5.185   1.339  0.00  0.00    +0.027 A 
ATOM      5  C   UNL     1       3.670   5.779   1.564  0.00  0.00    +0.018 A 
ATOM      6  C   UNL     1       3.572   7.135   1.908  0.00  0.00    +0.015 A 
ATOM      7  C   UNL     1       2.346   7.706   2.081  0.00  0.00    +0.046 A 
ATOM      8  C   UNL     1       1.186   6.949   1.926  0.00  0.00    +0.120 A 
ATOM      9  C   UNL     1       1.263   5.602   1.605  0.00  0.00    +0.092 A 
ATOM     10  C   UNL     1       2.501   5.005   1.433  0.00  0.00    +0.141 A 
ATOM     11  O   UNL     1       2.588   3.683   1.159  0.00  0.00    -0.439 OA
ATOM     12  H   UNL     1       4.386   2.094  -0.964  0.00  0.00    +0.169 HD
ENDROOT
BRANCH   1  15
ATOM     13  C   UNL     1       0.025   1.728  -0.835  0.00  0.00    +0.004 A 
ATOM     14  C   UNL     1       1.218   2.387  -0.621  0.00  0.00    +0.027 A 
ATOM     15  C   UNL     1       2.420   1.677  -0.648  0.00  0.00    +0.062 A 
ATOM     16  C   UNL     1       2.406   0.301  -0.892  0.00  0.00    +0.083 A 
ATOM     17  C   UNL     1       1.205  -0.346  -1.105  0.00  0.00    +0.061 A 
ATOM     18  C   UNL     1       0.017   0.365  -1.076  0.00  0.00    +0.021 A 
ATOM     19 CL   UNL     1       1.184  -2.055  -1.409  0.00  0.00    -0.082 Cl
ATOM     20 CL   UNL     1       3.895  -0.592  -0.929  0.00  0.00    -0.080 Cl
ENDBRANCH   1  15
BRANCH   8  21
ATOM     21  O   UNL     1      -0.028   7.534   2.091  0.00  0.00    -0.507 OA
ATOM     22  H   UNL     1      -0.398   7.907   1.279  0.00  0.00    +0.292 HD
ENDBRANCH   8  21
BRANCH   3  23
ATOM     23  C   UNL     1       6.254   3.212   0.576  0.00  0.00    +0.082 C 
ATOM     24  S   UNL     1       6.261   1.577   0.068  0.00  0.00    -0.035 S 
BRANCH  23  25
ATOM     25  N   UNL     1       7.418   3.864   0.764  0.00  0.00    -0.352 N 
ATOM     26  H   UNL     1       7.415   4.790   1.052  0.00  0.00    +0.143 HD
ATOM     27  H   UNL     1       8.260   3.407   0.611  0.00  0.00    +0.143 HD
ENDBRANCH  23  25
ENDBRANCH   3  23
TORSDOF 4
