REMARK  Name = ZINC12519926
REMARK  13 active torsions:
REMARK  status: ('A' for Active; 'I' for Inactive)
REMARK    1  A    between atoms: C_1  and  C_2
REMARK    2  A    between atoms: C_2  and  O_3
REMARK    3  A    between atoms: O_3  and  C_4
REMARK    4  A    between atoms: C_4  and  C_6
REMARK    5  A    between atoms: C_10  and  N_11
REMARK    6  A    between atoms: C_12  and  C_14
REMARK    7  A    between atoms: C_14  and  S_15
REMARK    8  A    between atoms: S_15  and  C_16
REMARK    9  A    between atoms: C_21  and  C_25
REMARK   10  A    between atoms: C_26  and  C_32
REMARK   11  A    between atoms: C_26  and  C_33
REMARK   12  A    between atoms: C_28  and  C_30
REMARK   13  A    between atoms: C_28  and  C_31
REMARK                            x       y       z     vdW  Elec       q    Type
REMARK                         _______ _______ _______ _____ _____    ______ ____
ROOT
ATOM      1  C   UNL     1       1.449  -2.344  -2.516  0.00  0.00    +0.091 A 
ATOM      2  C   UNL     1       2.869  -2.615  -2.533  0.00  0.00    -0.024 A 
ATOM      3  C   UNL     1       3.335  -3.111  -3.703  0.00  0.00    -0.016 A 
ATOM      4  S   UNL     1       1.904  -3.216  -4.736  0.00  0.00    -0.079 S 
ATOM      5  C   UNL     1       0.742  -2.622  -3.680  0.00  0.00    +0.086 A 
ATOM      6  C   UNL     1       4.751  -3.465  -4.014  0.00  0.00    -0.041 C 
ATOM      7  N   UNL     1       5.609  -3.406  -2.832  0.00  0.00    +0.389 N 
ATOM      8  C   UNL     1       4.944  -3.475  -1.538  0.00  0.00    -0.069 C 
ATOM      9  C   UNL     1       3.853  -2.407  -1.392  0.00  0.00    +0.024 C 
ATOM     10  C   UNL     1       4.336  -4.860  -1.302  0.00  0.00    -0.010 C 
ATOM     11  C   UNL     1       5.995  -3.227  -0.439  0.00  0.00    -0.010 C 
ATOM     12  C   UNL     1       4.802  -4.866  -4.639  0.00  0.00    -0.005 C 
ATOM     13  C   UNL     1       5.281  -2.462  -5.058  0.00  0.00    -0.005 C 
ATOM     14  H   UNL     1       6.291  -4.165  -2.887  0.00  0.00    -0.084 HD
ATOM     15  H   UNL     1       6.156  -2.544  -2.870  0.00  0.00    -0.084 HD
ENDROOT
BRANCH   5  16
ATOM     16  N   UNL     1      -0.613  -2.447  -3.913  0.00  0.00    -0.279 N 
ATOM     17  C   UNL     1      -1.138  -2.772  -5.112  0.00  0.00    +0.228 C 
ATOM     18  O   UNL     1      -0.425  -3.217  -5.986  0.00  0.00    -0.275 OA
ATOM     19  H   UNL     1      -1.184  -2.091  -3.215  0.00  0.00    +0.155 HD
BRANCH  17  20
ATOM     20  C   UNL     1      -2.611  -2.581  -5.366  0.00  0.00    +0.173 C 
BRANCH  20  21
ATOM     21  S   UNL     1      -3.006  -3.105  -7.057  0.00  0.00    -0.079 S 
BRANCH  21  22
ATOM     22  C   UNL     1      -4.740  -2.825  -7.196  0.00  0.00    +0.168 A 
ATOM     23  N   UNL     1      -5.503  -2.338  -6.248  0.00  0.00    -0.222 NA
ATOM     24  C   UNL     1      -6.784  -2.253  -6.692  0.00  0.00    +0.090 A 
ATOM     25  C   UNL     1      -7.975  -1.815  -6.108  0.00  0.00    +0.030 A 
ATOM     26  C   UNL     1      -9.146  -1.851  -6.831  0.00  0.00    +0.005 A 
ATOM     27  C   UNL     1      -9.152  -2.320  -8.136  0.00  0.00    -0.048 A 
ATOM     28  C   UNL     1      -7.985  -2.757  -8.728  0.00  0.00    +0.031 A 
ATOM     29  C   UNL     1      -6.796  -2.726  -8.014  0.00  0.00    +0.067 A 
ATOM     30  N   UNL     1      -5.489  -3.077  -8.310  0.00  0.00    -0.333 N 
ATOM     31  C   UNL     1     -10.443  -2.354  -8.914  0.00  0.00    +0.044 C 
ATOM     32  H   UNL     1      -5.167  -3.437  -9.152  0.00  0.00    +0.168 HD
ENDBRANCH  21  22
ENDBRANCH  20  21
ENDBRANCH  17  20
ENDBRANCH   5  16
BRANCH   1  33
ATOM     33  C   UNL     1       0.776  -1.800  -1.335  0.00  0.00    +0.342 C 
ATOM     34  O   UNL     1       0.312  -2.552  -0.499  0.00  0.00    -0.245 OA
BRANCH  33  35
ATOM     35  O   UNL     1       0.671  -0.465  -1.174  0.00  0.00    -0.461 OA
BRANCH  35  37
ATOM     36  C   UNL     1      -0.019   1.526   0.010  0.00  0.00    +0.048 C 
ATOM     37  C   UNL     1       0.002  -0.004   0.002  0.00  0.00    +0.229 C 
ENDBRANCH  35  37
ENDBRANCH  33  35
ENDBRANCH   1  33
TORSDOF 7
