REMARK  Name = ZINC27579923
REMARK  14 active torsions:
REMARK  status: ('A' for Active; 'I' for Inactive)
REMARK    1  A    between atoms: C_1  and  C_2
REMARK    2  A    between atoms: C_2  and  N_3
REMARK    3  A    between atoms: N_3  and  C_4
REMARK    4  A    between atoms: N_3  and  C_6
REMARK    5  A    between atoms: C_4  and  C_5
REMARK    6  A    between atoms: C_6  and  C_8
REMARK    7  A    between atoms: C_6  and  C_26
REMARK    8  A    between atoms: C_8  and  N_9
REMARK    9  A    between atoms: C_10  and  C_12
REMARK   10  A    between atoms: C_14  and  O_24
REMARK   11  A    between atoms: C_15  and  O_19
REMARK   12  A    between atoms: O_19  and  C_20
REMARK   13  A    between atoms: C_20  and  C_21
REMARK   14  A    between atoms: O_24  and  C_25
REMARK                            x       y       z     vdW  Elec       q    Type
REMARK                         _______ _______ _______ _____ _____    ______ ____
ROOT
ATOM      1  N   UNL     1       0.292  -1.271   5.984  0.00  0.00    -0.313 N 
ATOM      2  C   UNL     1       0.711  -0.059   5.571  0.00  0.00    +0.244 C 
ATOM      3  O   UNL     1       1.264   0.692   6.351  0.00  0.00    -0.270 OA
ATOM      4  H   UNL     1      -0.164  -1.969   5.267  0.00  0.00    +0.149 HD
ENDROOT
BRANCH   2   5
ATOM      5  C   UNL     1       0.498   0.358   4.171  0.00  0.00    +0.042 A 
ATOM      6  C   UNL     1       0.833   1.654   3.768  0.00  0.00    +0.062 A 
ATOM      7  C   UNL     1       0.632   2.040   2.457  0.00  0.00    +0.164 A 
ATOM      8  C   UNL     1       0.097   1.137   1.539  0.00  0.00    +0.181 A 
ATOM      9  C   UNL     1      -0.241  -0.148   1.940  0.00  0.00    +0.087 A 
ATOM     10  C   UNL     1      -0.038  -0.541   3.247  0.00  0.00    +0.037 A 
ATOM     11 CL   UNL     1      -0.914  -1.265   0.794  0.00  0.00    -0.080 Cl
BRANCH   7  12
ATOM     12  O   UNL     1       0.958   3.300   2.061  0.00  0.00    -0.491 OA
ATOM     13  C   UNL     1       1.502   4.171   3.055  0.00  0.00    +0.277 C 
ENDBRANCH   7  12
BRANCH   8  14
ATOM     14  O   UNL     1      -0.099   1.518   0.250  0.00  0.00    -0.478 OA
BRANCH  14  15
ATOM     15  C   UNL     1       0.981   1.305  -0.662  0.00  0.00    +0.324 C 
BRANCH  15  16
ATOM     16  C   UNL     1       0.583   1.785  -2.033  0.00  0.00    +0.248 C 
ATOM     17  O   UNL     1      -0.517   2.263  -2.213  0.00  0.00    -0.272 OA
ATOM     18  N   UNL     1       1.449   1.684  -3.061  0.00  0.00    -0.327 N 
ATOM     19  H   UNL     1       1.159   2.034  -4.062  0.00  0.00    +0.145 HD
ATOM     20  H   UNL     1       2.447   1.250  -2.898  0.00  0.00    +0.145 HD
ENDBRANCH  15  16
ENDBRANCH  14  15
ENDBRANCH   8  14
ENDBRANCH   2   5
BRANCH   1  21
ATOM     21  C   UNL     1       0.443  -1.659   7.389  0.00  0.00    +0.094 C 
BRANCH  21  22
ATOM     22  C   UNL     1      -0.167  -3.046   7.603  0.00  0.00    -0.019 C 
BRANCH  22  23
ATOM     23  C   UNL     1      -0.573  -3.198   9.047  0.00  0.00    -0.041 A 
ATOM     24  C   UNL     1       0.390  -3.201  10.039  0.00  0.00    +0.003 A 
ATOM     25  C   UNL     1       0.017  -3.342  11.363  0.00  0.00    +0.000 A 
ATOM     26  C   UNL     1      -1.318  -3.478  11.695  0.00  0.00    +0.001 A 
ATOM     27  C   UNL     1      -2.281  -3.474  10.704  0.00  0.00    +0.020 A 
ATOM     28  C   UNL     1      -1.909  -3.329   9.379  0.00  0.00    +0.043 A 
ATOM     29 CL   UNL     1      -3.119  -3.318   8.134  0.00  0.00    -0.083 Cl
ENDBRANCH  22  23
BRANCH  22  30
ATOM     30  N   UNL     1       0.825  -4.074   7.263  0.00  0.00    +0.385 N 
ATOM     31  H   UNL     1       1.617  -4.046   8.025  0.00  0.00    -0.081 HD
BRANCH  30  33
ATOM     32  C   UNL     1       0.280  -5.974   8.709  0.00  0.00    -0.017 C 
ATOM     33  C   UNL     1       0.223  -5.414   7.286  0.00  0.00    -0.081 C 
ENDBRANCH  30  33
BRANCH  30  34
ATOM     34  C   UNL     1       1.444  -3.798   5.959  0.00  0.00    -0.081 C 
ATOM     35  C   UNL     1       2.967  -3.818   6.104  0.00  0.00    -0.017 C 
ENDBRANCH  30  34
ENDBRANCH  22  30
ENDBRANCH  21  22
ENDBRANCH   1  21
TORSDOF 11
