REMARK  Name = ZINC43261414
REMARK  8 active torsions:
REMARK  status: ('A' for Active; 'I' for Inactive)
REMARK    1  A    between atoms: C_1  and  C_2
REMARK    2  A    between atoms: C_2  and  C_4
REMARK    3  A    between atoms: C_2  and  N_22
REMARK    4  A    between atoms: C_4  and  C_6
REMARK    5  A    between atoms: C_4  and  N_12
REMARK    6  A    between atoms: N_12  and  C_13
REMARK    7  A    between atoms: N_12  and  C_14
REMARK    8  A    between atoms: C_14  and  C_15
REMARK                            x       y       z     vdW  Elec       q    Type
REMARK                         _______ _______ _______ _____ _____    ______ ____
ROOT
ATOM      1  C   UNL     1      -1.317  -0.409   0.360  0.00  0.00    +0.079 C 
ENDROOT
BRANCH   1   2
ATOM      2  C   UNL     1      -0.805  -1.800   0.634  0.00  0.00    +0.006 A 
ATOM      3  C   UNL     1      -0.806  -2.885  -0.177  0.00  0.00    +0.014 A 
ATOM      4  C   UNL     1      -0.277  -4.073   0.291  0.00  0.00    +0.023 A 
ATOM      5  C   UNL     1       0.227  -4.117   1.550  0.00  0.00    +0.055 A 
ATOM      6  S   UNL     1      -0.033  -2.442   2.110  0.00  0.00    -0.085 S 
ATOM      7 BR   UNL     1       1.009  -5.573   2.469  0.00  0.00    -0.043 Br
ENDBRANCH   1   2
BRANCH   1   9
ATOM      8  C   UNL     1      -0.659   1.984   0.077  0.00  0.00    -0.012 C 
ATOM      9  C   UNL     1      -0.136   0.558   0.256  0.00  0.00    -0.056 C 
BRANCH   9  10
ATOM     10  N   UNL     1       0.669   0.482   1.482  0.00  0.00    +0.381 N 
ATOM     11  H   UNL     1       0.073   0.616   2.285  0.00  0.00    -0.090 HD
ATOM     12  H   UNL     1       1.111  -0.424   1.539  0.00  0.00    -0.090 HD
ATOM     13  H   UNL     1       1.377   1.200   1.465  0.00  0.00    -0.090 HD
ENDBRANCH   9  10
ENDBRANCH   1   9
BRANCH   1  14
ATOM     14  N   UNL     1      -2.200   0.013   1.456  0.00  0.00    -0.295 NA
ATOM     15  C   UNL     1      -3.155   1.031   1.000  0.00  0.00    +0.105 C 
BRANCH  14  16
ATOM     16  C   UNL     1      -2.898  -1.139   2.043  0.00  0.00    +0.119 C 
BRANCH  16  17
ATOM     17  C   UNL     1      -3.659  -0.696   3.266  0.00  0.00    -0.033 A 
ATOM     18  C   UNL     1      -3.048  -0.721   4.506  0.00  0.00    +0.006 A 
ATOM     19  C   UNL     1      -3.745  -0.314   5.628  0.00  0.00    +0.015 A 
ATOM     20  C   UNL     1      -5.054   0.119   5.510  0.00  0.00    +0.018 A 
ATOM     21  C   UNL     1      -5.664   0.144   4.269  0.00  0.00    +0.015 A 
ATOM     22  C   UNL     1      -4.965  -0.258   3.147  0.00  0.00    +0.006 A 
ATOM     23 BR   UNL     1      -6.008   0.675   7.045  0.00  0.00    -0.050 Br
ENDBRANCH  16  17
ENDBRANCH  14  16
ENDBRANCH   1  14
TORSDOF 6
