REMARK  Name = ZINC15005300
REMARK  11 active torsions:
REMARK  status: ('A' for Active; 'I' for Inactive)
REMARK    1  A    between atoms: C_1  and  C_2
REMARK    2  A    between atoms: C_9  and  C_21
REMARK    3  A    between atoms: C_10  and  N_12
REMARK    4  A    between atoms: N_12  and  C_13
REMARK    5  A    between atoms: N_12  and  C_14
REMARK    6  A    between atoms: C_14  and  C_15
REMARK    7  A    between atoms: C_21  and  N_22
REMARK    8  A    between atoms: N_22  and  C_23
REMARK    9  A    between atoms: C_23  and  C_24
REMARK   10  A    between atoms: C_30  and  C_32
REMARK   11  A    between atoms: C_35  and  C_37
REMARK                            x       y       z     vdW  Elec       q    Type
REMARK                         _______ _______ _______ _____ _____    ______ ____
ROOT
ATOM      1  C   UNL     1       0.810  -0.255  -1.950  0.00  0.00    +0.044 C 
ATOM      2  C   UNL     1       0.517  -1.597  -1.329  0.00  0.00    -0.050 A 
ATOM      3  C   UNL     1       0.275  -2.696  -2.150  0.00  0.00    +0.005 A 
ATOM      4  C   UNL     1       0.006  -3.921  -1.621  0.00  0.00    +0.026 A 
ATOM      5  C   UNL     1      -0.027  -4.086  -0.225  0.00  0.00    +0.048 A 
ATOM      6  C   UNL     1       0.220  -2.967   0.607  0.00  0.00    -0.001 A 
ATOM      7  C   UNL     1       0.498  -1.720   0.027  0.00  0.00    +0.013 A 
ATOM      8  C   UNL     1       0.186  -3.132   2.007  0.00  0.00    +0.018 A 
ATOM      9  C   UNL     1      -0.085  -4.371   2.504  0.00  0.00    +0.008 A 
ATOM     10  C   UNL     1      -0.321  -5.440   1.628  0.00  0.00    +0.104 A 
ATOM     11  N   UNL     1      -0.288  -5.279   0.321  0.00  0.00    -0.343 N 
ATOM     12  H   UNL     1      -0.456  -6.040  -0.257  0.00  0.00    +0.167 HD
ENDROOT
BRANCH  10  13
ATOM     13  N   UNL     1      -0.596  -6.695   2.149  0.00  0.00    -0.314 N 
ATOM     14  C   UNL     1       0.498  -7.633   2.416  0.00  0.00    +0.131 C 
BRANCH  13  15
ATOM     15  C   UNL     1      -1.979  -7.084   2.433  0.00  0.00    +0.163 C 
BRANCH  15  16
ATOM     16  C   UNL     1      -2.578  -7.737   1.214  0.00  0.00    +0.080 A 
ATOM     17  C   UNL     1      -2.637  -9.112   0.965  0.00  0.00    +0.045 A 
ATOM     18  C   UNL     1      -3.247  -9.293  -0.229  0.00  0.00    +0.105 A 
ATOM     19  N   UNL     1      -3.564  -8.076  -0.718  0.00  0.00    -0.284 N 
ATOM     20  N   UNL     1      -3.138  -7.115   0.208  0.00  0.00    -0.177 NA
ATOM     21  H   UNL     1      -4.010  -7.898  -1.561  0.00  0.00    +0.188 HD
ENDBRANCH  15  16
ENDBRANCH  13  15
ENDBRANCH  10  13
BRANCH   9  22
ATOM     22  C   UNL     1      -0.130  -4.593   3.994  0.00  0.00    +0.146 C 
BRANCH  22  23
ATOM     23  N   UNL     1       0.004  -3.307   4.684  0.00  0.00    -0.290 N 
ATOM     24  C   UNL     1       1.228  -2.819   4.967  0.00  0.00    +0.254 C 
ATOM     25  O   UNL     1       1.339  -1.802   5.626  0.00  0.00    -0.269 OA
BRANCH  24  26
ATOM     26  C   UNL     1       2.424  -3.513   4.483  0.00  0.00    +0.074 A 
ATOM     27  C   UNL     1       3.758  -3.252   4.758  0.00  0.00    +0.021 A 
ATOM     28  C   UNL     1       4.667  -4.084   4.150  0.00  0.00    +0.011 A 
ATOM     29  C   UNL     1       4.216  -5.077   3.345  0.00  0.00    -0.013 A 
ATOM     30  S   UNL     1       2.544  -4.919   3.393  0.00  0.00    -0.089 S 
ATOM     31  C   UNL     1       5.028  -6.095   2.586  0.00  0.00    +0.051 C 
ENDBRANCH  24  26
BRANCH  23  32
ATOM     32  C   UNL     1      -1.192  -2.552   5.064  0.00  0.00    +0.140 C 
BRANCH  32  33
ATOM     33  C   UNL     1      -1.677  -3.022   6.438  0.00  0.00    +0.136 C 
ATOM     34  C   UNL     1      -2.987  -2.295   6.808  0.00  0.00    +0.035 C 
ATOM     35  C   UNL     1      -2.796  -2.026   8.326  0.00  0.00    +0.031 C 
ATOM     36  C   UNL     1      -1.267  -1.785   8.392  0.00  0.00    +0.160 C 
ATOM     37  O   UNL     1      -0.701  -2.696   7.434  0.00  0.00    -0.375 OA
ENDBRANCH  32  33
ENDBRANCH  23  32
ENDBRANCH  22  23
ENDBRANCH   9  22
TORSDOF 8
