REMARK  Name = ZINC36157321
REMARK  10 active torsions:
REMARK  status: ('A' for Active; 'I' for Inactive)
REMARK    1  A    between atoms: C_4  and  C_7
REMARK    2  A    between atoms: C_7  and  N_8
REMARK    3  A    between atoms: N_8  and  C_9
REMARK    4  A    between atoms: N_8  and  C_27
REMARK    5  A    between atoms: C_9  and  C_10
REMARK    6  A    between atoms: C_13  and  C_15
REMARK    7  A    between atoms: C_15  and  C_16
REMARK    8  A    between atoms: C_15  and  C_21
REMARK    9  A    between atoms: C_15  and  O_26
REMARK   10  A    between atoms: C_27  and  C_28
REMARK                            x       y       z     vdW  Elec       q    Type
REMARK                         _______ _______ _______ _____ _____    ______ ____
ROOT
ATOM      1  C   UNL     1       6.248  -1.842   2.793  0.00  0.00    +0.089 A 
ATOM      2  C   UNL     1       6.141  -3.054   3.367  0.00  0.00    +0.043 A 
ATOM      3  C   UNL     1       6.707  -2.947   4.658  0.00  0.00    +0.048 A 
ATOM      4  C   UNL     1       7.126  -1.676   4.796  0.00  0.00    +0.147 A 
ATOM      5  O   UNL     1       6.851  -1.013   3.661  0.00  0.00    -0.463 OA
ENDROOT
BRANCH   1   6
ATOM      6  C   UNL     1       5.778  -1.478   1.408  0.00  0.00    -0.003 C 
BRANCH   6   7
ATOM      7  N   UNL     1       4.438  -0.880   1.488  0.00  0.00    +0.389 N 
ATOM      8  H   UNL     1       4.460  -0.089   2.113  0.00  0.00    -0.081 HD
BRANCH   7   9
ATOM      9  C   UNL     1       4.020  -0.436   0.151  0.00  0.00    -0.042 C 
BRANCH   9  13
ATOM     10  C   UNL     1       0.276   1.601   0.431  0.00  0.00    +0.000 A 
ATOM     11  C   UNL     1       1.454   2.282   0.677  0.00  0.00    +0.000 A 
ATOM     12  C   UNL     1       2.665   1.623   0.587  0.00  0.00    +0.002 A 
ATOM     13  C   UNL     1       2.700   0.282   0.251  0.00  0.00    -0.064 A 
ATOM     14  C   UNL     1       1.522  -0.399   0.005  0.00  0.00    +0.002 A 
ATOM     15  C   UNL     1       0.310   0.261   0.095  0.00  0.00    +0.000 A 
ENDBRANCH   9  13
ENDBRANCH   7   9
BRANCH   7  16
ATOM     16  C   UNL     1       3.486  -1.879   1.992  0.00  0.00    -0.046 C 
BRANCH  16  17
ATOM     17  C   UNL     1       3.588  -3.152   1.149  0.00  0.00    +0.102 C 
ATOM     18  C   UNL     1       2.667  -4.255   1.730  0.00  0.00    +0.032 C 
ATOM     19  C   UNL     1       2.418  -5.125   0.467  0.00  0.00    +0.030 C 
ATOM     20  C   UNL     1       2.402  -4.069  -0.660  0.00  0.00    +0.160 C 
ATOM     21  O   UNL     1       3.097  -2.911  -0.179  0.00  0.00    -0.378 OA
ENDBRANCH  16  17
ENDBRANCH   7  16
ENDBRANCH   6   7
ENDBRANCH   1   6
BRANCH   4  22
ATOM     22  C   UNL     1       7.796  -1.097   6.015  0.00  0.00    +0.186 C 
BRANCH  22  23
ATOM     23  C   UNL     1       8.733   0.007   5.597  0.00  0.00    +0.034 A 
ATOM     24  C   UNL     1       9.886   0.415   6.180  0.00  0.00    +0.015 A 
ATOM     25  C   UNL     1      10.590   1.461   5.614  0.00  0.00    +0.008 A 
ATOM     26  C   UNL     1      10.106   2.049   4.492  0.00  0.00    +0.045 A 
ATOM     27  S   UNL     1       8.615   1.112   4.199  0.00  0.00    -0.098 S 
ENDBRANCH  22  23
BRANCH  22  28
ATOM     28  C   UNL     1       6.750  -0.541   6.947  0.00  0.00    +0.034 A 
ATOM     29  C   UNL     1       6.780  -0.436   8.298  0.00  0.00    +0.015 A 
ATOM     30  C   UNL     1       5.693   0.114   8.951  0.00  0.00    +0.008 A 
ATOM     31  C   UNL     1       4.629   0.531   8.222  0.00  0.00    +0.045 A 
ATOM     32  S   UNL     1       5.153   0.155   6.557  0.00  0.00    -0.098 S 
ENDBRANCH  22  28
BRANCH  22  33
ATOM     33  O   UNL     1       8.535  -2.120   6.684  0.00  0.00    -0.371 OA
ATOM     34  H   UNL     1       9.228  -2.523   6.143  0.00  0.00    +0.212 HD
ENDBRANCH  22  33
ENDBRANCH   4  22
TORSDOF 10
