REMARK  Name = ZINC43535257
REMARK  4 active torsions:
REMARK  status: ('A' for Active; 'I' for Inactive)
REMARK    1  A    between atoms: C_2  and  S_9
REMARK    2  A    between atoms: S_9  and  C_10
REMARK    3  A    between atoms: C_13  and  C_18
REMARK    4  A    between atoms: N_14  and  C_15
REMARK                            x       y       z     vdW  Elec       q    Type
REMARK                         _______ _______ _______ _____ _____    ______ ____
ROOT
ATOM      1  S   UNL     1       1.297   3.861  -0.623  0.00  0.00    -0.030 S 
ENDROOT
BRANCH   1   3
ATOM      2  C   UNL     1       0.089   1.449  -1.145  0.00  0.00    +0.075 A 
ATOM      3  C   UNL     1       1.278   2.112  -0.835  0.00  0.00    +0.111 A 
ATOM      4  N   UNL     1       2.396   1.404  -0.702  0.00  0.00    -0.208 NA
ATOM      5  C   UNL     1       2.386   0.089  -0.861  0.00  0.00    +0.215 A 
ATOM      6  N   UNL     1       1.273  -0.567  -1.156  0.00  0.00    -0.203 NA
ATOM      7  C   UNL     1       0.122   0.076  -1.303  0.00  0.00    +0.135 A 
ATOM      8 CL   UNL     1      -1.327  -0.798  -1.689  0.00  0.00    -0.062 Cl
ATOM      9  N   UNL     1       3.567  -0.617  -0.716  0.00  0.00    -0.327 N 
ATOM     10  H   UNL     1       4.389  -0.149  -0.500  0.00  0.00    +0.145 HD
ATOM     11  H   UNL     1       3.573  -1.580  -0.830  0.00  0.00    +0.145 HD
ENDBRANCH   1   3
BRANCH   1  12
ATOM     12  C   UNL     1       2.980   4.227  -0.252  0.00  0.00    +0.198 A 
ATOM     13  N   UNL     1       3.966   3.365  -0.169  0.00  0.00    -0.122 NA
ATOM     14  N   UNL     1       5.058   3.978   0.119  0.00  0.00    -0.133 NA
ATOM     15  C   UNL     1       4.836   5.257   0.235  0.00  0.00    +0.137 A 
ATOM     16  N   UNL     1       3.506   5.462  -0.003  0.00  0.00    -0.302 N 
BRANCH  16  17
ATOM     17  C   UNL     1       2.792   6.742   0.010  0.00  0.00    +0.091 C 
ATOM     18  C   UNL     1       1.266   6.698   0.109  0.00  0.00    +0.027 C 
ATOM     19  C   UNL     1       1.936   7.085  -1.211  0.00  0.00    +0.027 C 
ENDBRANCH  16  17
BRANCH  15  20
ATOM     20  C   UNL     1       5.858   6.315   0.565  0.00  0.00    +0.057 C 
ATOM     21  C   UNL     1       7.328   5.894   0.588  0.00  0.00    +0.012 C 
ATOM     22  C   UNL     1       6.597   6.191   1.899  0.00  0.00    +0.012 C 
ENDBRANCH  15  20
ENDBRANCH   1  12
TORSDOF 4
