REMARK  Name = ZINC43287265
REMARK  12 active torsions:
REMARK  status: ('A' for Active; 'I' for Inactive)
REMARK    1  A    between atoms: C_1  and  C_2
REMARK    2  A    between atoms: C_2  and  C_4
REMARK    3  A    between atoms: C_2  and  N_22
REMARK    4  A    between atoms: C_4  and  C_6
REMARK    5  A    between atoms: C_4  and  N_12
REMARK    6  A    between atoms: N_12  and  C_13
REMARK    7  A    between atoms: N_12  and  C_14
REMARK    8  A    between atoms: C_14  and  C_15
REMARK    9  A    between atoms: N_17  and  C_18
REMARK   10  A    between atoms: C_18  and  C_19
REMARK   11  A    between atoms: C_19  and  O_20
REMARK   12  A    between atoms: O_20  and  C_21
REMARK                            x       y       z     vdW  Elec       q    Type
REMARK                         _______ _______ _______ _____ _____    ______ ____
ROOT
ATOM      1  C   UNL     1       0.744  -0.392   1.034  0.00  0.00    +0.079 C 
ENDROOT
BRANCH   1   2
ATOM      2  C   UNL     1       0.861  -1.894   1.049  0.00  0.00    +0.006 A 
ATOM      3  C   UNL     1      -0.013  -2.813   1.527  0.00  0.00    +0.028 A 
ATOM      4  C   UNL     1       0.308  -4.155   1.432  0.00  0.00    +0.025 A 
ATOM      5  C   UNL     1       1.487  -4.511   0.865  0.00  0.00    +0.060 A 
ATOM      6  S   UNL     1       2.183  -2.925   0.434  0.00  0.00    -0.099 S 
ATOM      7 BR   UNL     1      -0.880  -5.474   2.086  0.00  0.00    -0.050 Br
ENDBRANCH   1   2
BRANCH   1   9
ATOM      8  C   UNL     1      -1.052  -0.579  -0.692  0.00  0.00    -0.012 C 
ATOM      9  C   UNL     1       0.290   0.071  -0.351  0.00  0.00    -0.056 C 
BRANCH   9  10
ATOM     10  N   UNL     1       1.292  -0.321  -1.351  0.00  0.00    +0.381 N 
ATOM     11  H   UNL     1       0.993  -0.015  -2.265  0.00  0.00    -0.090 HD
ATOM     12  H   UNL     1       2.178   0.108  -1.127  0.00  0.00    -0.090 HD
ATOM     13  H   UNL     1       1.395  -1.324  -1.349  0.00  0.00    -0.090 HD
ENDBRANCH   9  10
ENDBRANCH   1   9
BRANCH   1  14
ATOM     14  N   UNL     1       2.050   0.204   1.346  0.00  0.00    -0.291 NA
ATOM     15  C   UNL     1       2.595  -0.346   2.595  0.00  0.00    +0.106 C 
BRANCH  14  16
ATOM     16  C   UNL     1       1.959   1.669   1.412  0.00  0.00    +0.180 C 
BRANCH  16  17
ATOM     17  C   UNL     1       3.341   2.263   1.329  0.00  0.00    +0.227 C 
ATOM     18  O   UNL     1       4.308   1.538   1.226  0.00  0.00    -0.274 OA
ATOM     19  N   UNL     1       3.504   3.600   1.371  0.00  0.00    -0.312 N 
ATOM     20  H   UNL     1       2.731   4.180   1.454  0.00  0.00    +0.149 HD
BRANCH  19  21
ATOM     21  C   UNL     1       4.848   4.178   1.290  0.00  0.00    +0.132 C 
BRANCH  21  22
ATOM     22  C   UNL     1       4.752   5.703   1.359  0.00  0.00    +0.178 C 
BRANCH  22  23
ATOM     23  O   UNL     1       4.250   6.092   2.639  0.00  0.00    -0.381 OA
ATOM     24  C   UNL     1       4.121   7.505   2.808  0.00  0.00    +0.194 C 
ENDBRANCH  22  23
ENDBRANCH  21  22
ENDBRANCH  19  21
ENDBRANCH  16  17
ENDBRANCH  14  16
ENDBRANCH   1  14
TORSDOF 9
