REMARK  Name = ZINC08791040
REMARK  5 active torsions:
REMARK  status: ('A' for Active; 'I' for Inactive)
REMARK    1  A    between atoms: C_1  and  C_2
REMARK    2  A    between atoms: C_18  and  C_20
REMARK    3  A    between atoms: C_20  and  N_66
REMARK    4  A    between atoms: C_23  and  C_26
REMARK    5  A    between atoms: C_23  and  O_33
REMARK                            x       y       z     vdW  Elec       q    Type
REMARK                         _______ _______ _______ _____ _____    ______ ____
ROOT
ATOM      1  C   UNL     1      -1.153   3.619  -4.833  0.00  0.00    +0.011 C 
ATOM      2  C   UNL     1      -0.169   2.502  -5.188  0.00  0.00    -0.023 C 
ATOM      3  C   UNL     1       0.252   2.610  -6.653  0.00  0.00    +0.007 C 
ATOM      4  C   UNL     1      -0.983   2.548  -7.554  0.00  0.00    +0.003 C 
ATOM      5  C   UNL     1      -1.668   1.187  -7.388  0.00  0.00    +0.037 C 
ATOM      6  C   UNL     1      -2.003   0.978  -5.910  0.00  0.00    +0.096 C 
ATOM      7  C   UNL     1      -0.827   1.136  -4.946  0.00  0.00    +0.030 C 
ATOM      8  C   UNL     1      -1.314   1.085  -3.519  0.00  0.00    +0.014 C 
ATOM      9  C   UNL     1      -0.161   1.219  -2.522  0.00  0.00    +0.042 C 
ATOM     10  C   UNL     1       0.694   2.462  -2.831  0.00  0.00    +0.181 C 
ATOM     11  C   UNL     1       1.064   2.596  -4.288  0.00  0.00    +0.052 C 
ATOM     12  O   UNL     1      -0.127   3.568  -2.359  0.00  0.00    -0.461 OA
ATOM     13  C   UNL     1      -0.684   3.179  -1.190  0.00  0.00    +0.309 C 
ATOM     14  O   UNL     1      -1.037   3.919  -0.302  0.00  0.00    -0.251 OA
ATOM     15  C   UNL     1      -0.797   1.666  -1.171  0.00  0.00    +0.088 C 
ATOM     16  C   UNL     1      -3.085  -0.042  -5.559  0.00  0.00    +0.196 C 
ATOM     17  O   UNL     1      -3.298   1.367  -5.456  0.00  0.00    -0.368 OA
ENDROOT
BRANCH  15  18
ATOM     18  C   UNL     1      -0.013   1.086   0.008  0.00  0.00    -0.064 C 
BRANCH  18  24
ATOM     19  C   UNL     1      -2.087   1.156   1.254  0.00  0.00    -0.076 C 
ATOM     20  C   UNL     1      -2.752   1.714   2.515  0.00  0.00    +0.021 C 
ATOM     21  C   UNL     1      -2.081   1.106   3.750  0.00  0.00    +0.088 C 
ATOM     22  C   UNL     1      -0.583   1.421   3.715  0.00  0.00    +0.021 C 
ATOM     23  C   UNL     1       0.018   0.872   2.419  0.00  0.00    -0.076 C 
ATOM     24  N   UNL     1      -0.653   1.514   1.269  0.00  0.00    +0.380 N 
ATOM     25  H   UNL     1      -0.565   2.533   1.358  0.00  0.00    -0.082 HD
BRANCH  21  26
ATOM     26  C   UNL     1      -2.691   1.697   4.995  0.00  0.00    -0.016 A 
ATOM     27  C   UNL     1      -2.153   2.842   5.552  0.00  0.00    +0.008 A 
ATOM     28  C   UNL     1      -2.715   3.387   6.691  0.00  0.00    +0.020 A 
ATOM     29  C   UNL     1      -3.809   2.780   7.280  0.00  0.00    +0.041 A 
ATOM     30  C   UNL     1      -4.344   1.630   6.726  0.00  0.00    +0.020 A 
ATOM     31  C   UNL     1      -3.784   1.089   5.584  0.00  0.00    +0.008 A 
ATOM     32 CL   UNL     1      -4.511   3.460   8.715  0.00  0.00    -0.084 Cl
ENDBRANCH  21  26
BRANCH  21  33
ATOM     33  O   UNL     1      -2.271  -0.310   3.749  0.00  0.00    -0.384 OA
ATOM     34  H   UNL     1      -3.199  -0.582   3.771  0.00  0.00    +0.211 HD
ENDBRANCH  21  33
ENDBRANCH  18  24
ENDBRANCH  15  18
TORSDOF 4
