REMARK  Name = ZINC66907454
REMARK  10 active torsions:
REMARK  status: ('A' for Active; 'I' for Inactive)
REMARK    1  A    between atoms: C_1  and  C_2
REMARK    2  A    between atoms: N_8  and  C_9
REMARK    3  A    between atoms: C_9  and  C_10
REMARK    4  A    between atoms: C_10  and  N_11
REMARK    5  A    between atoms: N_14  and  C_15
REMARK    6  A    between atoms: C_20  and  S_21
REMARK    7  A    between atoms: S_21  and  C_22
REMARK    8  A    between atoms: C_22  and  C_24
REMARK    9  A    between atoms: C_22  and  C_25
REMARK   10  A    between atoms: C_25  and  C_26
REMARK                            x       y       z     vdW  Elec       q    Type
REMARK                         _______ _______ _______ _____ _____    ______ ____
ROOT
ATOM      1  N   UNL     1       4.102   0.219   2.547  0.00  0.00    -0.301 N 
ATOM      2  C   UNL     1       4.808   0.094   3.688  0.00  0.00    +0.304 C 
ATOM      3  O   UNL     1       4.320  -0.472   4.647  0.00  0.00    -0.253 OA
ATOM      4  N   UNL     1       6.056   0.597   3.766  0.00  0.00    -0.268 N 
ATOM      5  H   UNL     1       4.491   0.671   1.782  0.00  0.00    +0.150 HD
ATOM      6  H   UNL     1       6.468   0.997   2.984  0.00  0.00    +0.156 HD
ENDROOT
BRANCH   4   7
ATOM      7  C   UNL     1       6.760   0.542   4.978  0.00  0.00    +0.048 A 
ATOM      8  C   UNL     1       6.560  -0.516   5.850  0.00  0.00    +0.024 A 
ATOM      9  C   UNL     1       7.254  -0.568   7.045  0.00  0.00    +0.002 A 
ATOM     10  C   UNL     1       8.149   0.434   7.374  0.00  0.00    +0.001 A 
ATOM     11  C   UNL     1       8.354   1.493   6.511  0.00  0.00    +0.016 A 
ATOM     12  C   UNL     1       7.666   1.550   5.307  0.00  0.00    +0.029 A 
BRANCH  12  13
ATOM     13  S   UNL     1       7.931   2.896   4.200  0.00  0.00    -0.119 S 
BRANCH  13  14
ATOM     14  C   UNL     1       9.274   3.840   4.972  0.00  0.00    +0.062 C 
ATOM     15  C   UNL     1      10.568   3.026   4.915  0.00  0.00    +0.020 C 
BRANCH  14  16
ATOM     16  C   UNL     1       9.467   5.159   4.220  0.00  0.00    +0.132 C 
BRANCH  16  17
ATOM     17  C   UNL     1       8.265   5.994   4.376  0.00  0.00    +0.064 C 
ATOM     18  N   UNL     1       7.337   6.638   4.496  0.00  0.00    -0.197 NA
ENDBRANCH  16  17
ENDBRANCH  14  16
ENDBRANCH  13  14
ENDBRANCH  12  13
ENDBRANCH   4   7
BRANCH   1  19
ATOM     19  C   UNL     1       2.745  -0.328   2.462  0.00  0.00    +0.087 C 
BRANCH  19  20
ATOM     20  C   UNL     1       2.171  -0.053   1.071  0.00  0.00    -0.059 C 
BRANCH  20  27
ATOM     21  C   UNL     1       0.237   1.289  -0.460  0.00  0.00    -0.013 C 
ATOM     22  C   UNL     1       0.216  -0.233  -0.305  0.00  0.00    -0.072 C 
ATOM     23  C   UNL     1      -1.229  -0.732  -0.365  0.00  0.00    -0.016 C 
ATOM     24  C   UNL     1      -1.244  -2.256  -0.210  0.00  0.00    -0.003 C 
ATOM     25  C   UNL     1      -0.555  -2.632   1.105  0.00  0.00    -0.019 C 
ATOM     26  C   UNL     1       0.865  -2.062   1.111  0.00  0.00    -0.078 C 
ATOM     27  N   UNL     1       0.810  -0.601   0.986  0.00  0.00    +0.382 N 
ATOM     28  H   UNL     1       0.249  -0.221   1.734  0.00  0.00    -0.081 HD
ENDBRANCH  20  27
ENDBRANCH  19  20
ENDBRANCH   1  19
TORSDOF 8
