REMARK  Name = ZINC19326274
REMARK  9 active torsions:
REMARK  status: ('A' for Active; 'I' for Inactive)
REMARK    1  A    between atoms: C_1  and  C_2
REMARK    2  A    between atoms: C_2  and  C_3
REMARK    3  A    between atoms: C_3  and  C_4
REMARK    4  A    between atoms: C_8  and  C_23
REMARK    5  A    between atoms: C_9  and  O_10
REMARK    6  A    between atoms: C_14  and  C_15
REMARK    7  A    between atoms: C_20  and  O_21
REMARK    8  A    between atoms: C_23  and  C_24
REMARK    9  A    between atoms: C_24  and  C_25
REMARK                            x       y       z     vdW  Elec       q    Type
REMARK                         _______ _______ _______ _____ _____    ______ ____
ROOT
ATOM      1  C   UNL     1       0.739  -2.027  -1.265  0.00  0.00    -0.005 C 
ATOM      2  C   UNL     1      -0.693  -2.572  -1.260  0.00  0.00    -0.065 C 
ATOM      3  N   UNL     1      -0.662  -4.038  -1.241  0.00  0.00    +0.394 N 
ATOM      4  C   UNL     1      -0.016  -4.547  -2.454  0.00  0.00    -0.065 C 
ATOM      5  C   UNL     1       1.440  -4.070  -2.501  0.00  0.00    -0.005 C 
ATOM      6  C   UNL     1       1.455  -2.536  -2.523  0.00  0.00    +0.126 C 
ATOM      7  C   UNL     1       2.154  -4.551  -1.233  0.00  0.00    +0.090 C 
ATOM      8  N   UNL     1       1.434  -4.034  -0.059  0.00  0.00    -0.310 NA
ATOM      9  C   UNL     1       1.485  -2.550  -0.031  0.00  0.00    +0.090 C 
ATOM     10  C   UNL     1       0.046  -4.515  -0.050  0.00  0.00    +0.037 C 
ATOM     11  H   UNL     1      -1.610  -4.384  -1.218  0.00  0.00    -0.079 HD
ENDROOT
BRANCH  10  12
ATOM     12  C   UNL     1      -0.652  -4.004   1.185  0.00  0.00    -0.005 A 
ATOM     13  C   UNL     1      -1.995  -3.684   1.137  0.00  0.00    +0.022 A 
ATOM     14  C   UNL     1      -2.636  -3.215   2.269  0.00  0.00    +0.018 A 
ATOM     15  C   UNL     1      -1.933  -3.064   3.452  0.00  0.00    +0.019 A 
ATOM     16  C   UNL     1      -0.590  -3.382   3.504  0.00  0.00    +0.047 A 
ATOM     17  C   UNL     1       0.053  -3.859   2.370  0.00  0.00    +0.120 A 
ATOM     18 BR   UNL     1      -4.475  -2.778   2.201  0.00  0.00    -0.050 Br
BRANCH  17  19
ATOM     19  O   UNL     1       1.373  -4.177   2.421  0.00  0.00    -0.507 OA
ATOM     20  H   UNL     1       1.964  -3.441   2.210  0.00  0.00    +0.292 HD
ENDBRANCH  17  19
ENDBRANCH  10  12
BRANCH   6  21
ATOM     21  O   UNL     1       2.800  -2.055  -2.539  0.00  0.00    -0.391 OA
ATOM     22  H   UNL     1       3.311  -2.341  -3.309  0.00  0.00    +0.210 HD
ENDBRANCH   6  21
BRANCH   1  23
ATOM     23  C   UNL     1       0.718  -0.497  -1.257  0.00  0.00    +0.008 C 
BRANCH  23  25
ATOM     24  C   UNL     1      -0.019   1.526   0.010  0.00  0.00    +0.004 C 
ATOM     25  C   UNL     1       0.002  -0.004   0.002  0.00  0.00    -0.003 C 
ENDBRANCH  23  25
ENDBRANCH   1  23
BRANCH   5  26
ATOM     26  C   UNL     1       2.131  -4.620  -3.751  0.00  0.00    +0.008 C 
BRANCH  26  27
ATOM     27  C   UNL     1       2.104  -6.149  -3.718  0.00  0.00    -0.003 C 
ATOM     28  C   UNL     1       2.796  -6.698  -4.967  0.00  0.00    +0.004 C 
ENDBRANCH  26  27
ENDBRANCH   5  26
TORSDOF 7
