REMARK  Name = ZINC12075381
REMARK  11 active torsions:
REMARK  status: ('A' for Active; 'I' for Inactive)
REMARK    1  A    between atoms: C_1  and  C_2
REMARK    2  A    between atoms: C_2  and  C_6
REMARK    3  A    between atoms: C_6  and  N_58
REMARK    4  A    between atoms: C_7  and  C_8
REMARK    5  A    between atoms: C_7  and  N_58
REMARK    6  A    between atoms: C_13  and  O_14
REMARK    7  A    between atoms: O_14  and  C_15
REMARK    8  A    between atoms: C_15  and  C_16
REMARK    9  A    between atoms: C_16  and  C_18
REMARK   10  A    between atoms: C_16  and  O_25
REMARK   11  A    between atoms: C_18  and  N_61
REMARK                            x       y       z     vdW  Elec       q    Type
REMARK                         _______ _______ _______ _____ _____    ______ ____
ROOT
ATOM      1  C   UNL     1       0.040   0.158  -4.872  0.00  0.00    -0.021 A 
ATOM      2  C   UNL     1      -0.946  -0.498  -5.583  0.00  0.00    +0.025 A 
ATOM      3  C   UNL     1      -1.525   0.107  -6.684  0.00  0.00    +0.041 A 
ATOM      4  C   UNL     1      -1.117   1.370  -7.077  0.00  0.00    +0.023 A 
ATOM      5  C   UNL     1      -0.131   2.029  -6.369  0.00  0.00    +0.047 A 
ATOM      6  C   UNL     1       0.447   1.426  -5.261  0.00  0.00    +0.122 A 
ATOM      7 CL   UNL     1      -2.766  -0.719  -7.575  0.00  0.00    -0.084 Cl
ENDROOT
BRANCH   1   8
ATOM      8  C   UNL     1       0.670  -0.501  -3.672  0.00  0.00    -0.043 C 
BRANCH   8   9
ATOM      9  N   UNL     1       0.058   0.042  -2.446  0.00  0.00    +0.382 N 
ATOM     10  H   UNL     1       0.215   1.056  -2.409  0.00  0.00    -0.085 HD
ATOM     11  H   UNL     1      -0.952  -0.147  -2.458  0.00  0.00    -0.085 HD
BRANCH   9  12
ATOM     12  C   UNL     1       0.656  -0.586  -1.253  0.00  0.00    -0.071 C 
BRANCH  12  14
ATOM     13  C   UNL     1      -0.019   1.526   0.010  0.00  0.00    +0.014 C 
ATOM     14  C   UNL     1       0.002  -0.004   0.002  0.00  0.00    -0.000 C 
ATOM     15  C   UNL     1      -1.353  -0.646   0.356  0.00  0.00    +0.166 C 
ATOM     16  O   UNL     1      -0.872  -0.640   1.715  0.00  0.00    -0.379 OA
ATOM     17  C   UNL     1       0.513  -0.626   1.315  0.00  0.00    +0.166 C 
ENDBRANCH  12  14
ENDBRANCH   9  12
ENDBRANCH   8   9
ENDBRANCH   1   8
BRANCH   6  18
ATOM     18  O   UNL     1       1.414   2.075  -4.560  0.00  0.00    -0.489 OA
BRANCH  18  19
ATOM     19  C   UNL     1       1.783   3.378  -5.017  0.00  0.00    +0.258 C 
BRANCH  19  20
ATOM     20  C   UNL     1       2.877   3.946  -4.111  0.00  0.00    +0.135 C 
BRANCH  20  21
ATOM     21  O   UNL     1       2.352   4.141  -2.796  0.00  0.00    -0.390 OA
ATOM     22  H   UNL     1       1.604   4.752  -2.758  0.00  0.00    +0.210 HD
ENDBRANCH  20  21
BRANCH  20  23
ATOM     23  C   UNL     1       3.360   5.285  -4.671  0.00  0.00    -0.044 C 
BRANCH  23  30
ATOM     24  C   UNL     1       4.087   5.993  -2.463  0.00  0.00    -0.079 C 
ATOM     25  C   UNL     1       5.122   6.743  -1.670  0.00  0.00    -0.019 C 
ATOM     26  C   UNL     1       4.778   8.246  -1.712  0.00  0.00    -0.002 C 
ATOM     27  C   UNL     1       5.177   8.867  -2.971  0.00  0.00    -0.002 C 
ATOM     28  C   UNL     1       4.459   8.238  -4.184  0.00  0.00    -0.019 C 
ATOM     29  C   UNL     1       5.136   6.936  -4.516  0.00  0.00    -0.079 C 
ATOM     30  N   UNL     1       4.518   5.725  -3.877  0.00  0.00    +0.381 N 
ATOM     31  H   UNL     1       5.217   4.973  -3.865  0.00  0.00    -0.082 HD
ENDBRANCH  23  30
ENDBRANCH  20  23
ENDBRANCH  19  20
ENDBRANCH  18  19
ENDBRANCH   6  18
TORSDOF 10
