REMARK  Name = ZINC36156734
REMARK  8 active torsions:
REMARK  status: ('A' for Active; 'I' for Inactive)
REMARK    1  A    between atoms: C_1  and  C_2
REMARK    2  A    between atoms: C_2  and  C_3
REMARK    3  A    between atoms: C_3  and  C_5
REMARK    4  A    between atoms: C_3  and  O_29
REMARK    5  A    between atoms: C_5  and  N_6
REMARK    6  A    between atoms: N_6  and  C_7
REMARK    7  A    between atoms: N_6  and  C_23
REMARK    8  A    between atoms: C_7  and  C_8
REMARK                            x       y       z     vdW  Elec       q    Type
REMARK                         _______ _______ _______ _____ _____    ______ ____
ROOT
ATOM      1  C   UNL     1      -2.779  -4.010  -0.178  0.00  0.00    -0.003 C 
ENDROOT
BRANCH   1   2
ATOM      2  C   UNL     1      -4.193  -4.531  -0.141  0.00  0.00    +0.094 A 
ATOM      3  N   UNL     1      -4.409  -5.870  -0.104  0.00  0.00    -0.312 N 
ATOM      4  H   UNL     1      -3.650  -6.475  -0.102  0.00  0.00    +0.170 HD
ATOM      5  C   UNL     1      -5.656  -6.378  -0.070  0.00  0.00    +0.260 A 
ATOM      6  O   UNL     1      -5.833  -7.583  -0.035  0.00  0.00    -0.267 OA
ATOM      7  C   UNL     1      -6.771  -5.477  -0.073  0.00  0.00    +0.075 A 
ATOM      8  C   UNL     1      -8.197  -5.796  -0.042  0.00  0.00    -0.023 A 
ATOM      9  C   UNL     1      -9.058  -4.757  -0.053  0.00  0.00    -0.004 A 
ATOM     10  S   UNL     1      -8.032  -3.312  -0.105  0.00  0.00    -0.073 S 
ATOM     11  C   UNL     1      -6.447  -4.111  -0.113  0.00  0.00    +0.116 A 
ATOM     12  N   UNL     1      -5.188  -3.684  -0.140  0.00  0.00    -0.229 NA
ATOM     13  C   UNL     1     -10.555  -4.817  -0.028  0.00  0.00    +0.043 C 
ATOM     14  C   UNL     1     -10.987  -6.252  -0.363  0.00  0.00    +0.005 C 
ATOM     15  C   UNL     1     -10.161  -7.224   0.485  0.00  0.00    +0.005 C 
ATOM     16  C   UNL     1      -8.711  -7.233   0.002  0.00  0.00    +0.037 C 
ENDBRANCH   1   2
BRANCH   1  17
ATOM     17  N   UNL     1      -2.792  -2.548  -0.042  0.00  0.00    +0.388 N 
ATOM     18  H   UNL     1      -3.589  -2.171  -0.532  0.00  0.00    -0.081 HD
BRANCH  17  19
ATOM     19  C   UNL     1      -2.877  -2.189   1.380  0.00  0.00    -0.068 C 
ATOM     20  C   UNL     1      -4.114  -2.845   1.998  0.00  0.00    -0.015 C 
ATOM     21  C   UNL     1      -4.203  -2.472   3.479  0.00  0.00    -0.002 C 
ATOM     22  C   UNL     1      -2.949  -2.963   4.205  0.00  0.00    -0.000 C 
ATOM     23  C   UNL     1      -1.712  -2.307   3.587  0.00  0.00    -0.002 C 
ATOM     24  C   UNL     1      -1.623  -2.680   2.106  0.00  0.00    -0.015 C 
ENDBRANCH  17  19
BRANCH  17  25
ATOM     25  C   UNL     1      -1.558  -1.992  -0.614  0.00  0.00    -0.046 C 
BRANCH  25  26
ATOM     26  C   UNL     1      -1.655  -0.465  -0.648  0.00  0.00    +0.098 C 
BRANCH  26  28
ATOM     27  C   UNL     1      -0.635   1.618  -1.578  0.00  0.00    +0.006 C 
ATOM     28  C   UNL     1      -0.473   0.103  -1.437  0.00  0.00    +0.026 C 
ENDBRANCH  26  28
BRANCH  26  29
ATOM     29  O   UNL     1      -1.625   0.044   0.687  0.00  0.00    -0.394 OA
ATOM     30  H   UNL     1      -0.788  -0.108   1.147  0.00  0.00    +0.210 HD
ENDBRANCH  26  29
ENDBRANCH  25  26
ENDBRANCH  17  25
ENDBRANCH   1  17
TORSDOF 7
