REMARK  Name = ZINC64055452
REMARK  6 active torsions:
REMARK  status: ('A' for Active; 'I' for Inactive)
REMARK    1  A    between atoms: C_1  and  C_2
REMARK    2  A    between atoms: C_2  and  C_4
REMARK    3  A    between atoms: C_2  and  S_10
REMARK    4  A    between atoms: S_10  and  C_11
REMARK    5  A    between atoms: C_15  and  C_24
REMARK    6  A    between atoms: N_16  and  C_17
REMARK                            x       y       z     vdW  Elec       q    Type
REMARK                         _______ _______ _______ _____ _____    ______ ____
ROOT
ATOM      1  C   UNL     1      -2.021   0.035  -1.335  0.00  0.00    +0.242 C 
ATOM      2  N   UNL     1      -2.044   1.469  -1.667  0.00  0.00    -0.237 N 
ATOM      3  N   UNL     1      -1.680   1.571  -3.015  0.00  0.00    -0.169 NA
ATOM      4  C   UNL     1      -1.443   0.395  -3.533  0.00  0.00    +0.151 C 
ATOM      5  N   UNL     1      -1.623  -0.624  -2.590  0.00  0.00    -0.254 N 
ATOM      6  H   UNL     1      -2.268   2.200  -1.070  0.00  0.00    +0.171 HD
ENDROOT
BRANCH   4   7
ATOM      7  C   UNL     1      -1.057   0.181  -4.865  0.00  0.00    +0.022 C 
ATOM      8  C   UNL     1      -0.958   1.135  -5.879  0.00  0.00    +0.006 A 
ATOM      9  C   UNL     1      -1.193   2.526  -5.905  0.00  0.00    +0.010 A 
ATOM     10  C   UNL     1      -1.011   3.218  -7.059  0.00  0.00    +0.001 A 
ATOM     11  C   UNL     1      -0.594   2.587  -8.232  0.00  0.00    +0.002 A 
ATOM     12  C   UNL     1      -0.350   1.254  -8.280  0.00  0.00    +0.026 A 
ATOM     13  C   UNL     1      -0.518   0.464  -7.113  0.00  0.00    +0.043 A 
ATOM     14  N   UNL     1      -0.349  -0.827  -6.902  0.00  0.00    -0.380 N 
ATOM     15  C   UNL     1      -0.656  -1.132  -5.502  0.00  0.00    +0.152 C 
ATOM     16  H   UNL     1      -0.063  -1.472  -7.568  0.00  0.00    +0.160 HD
ENDBRANCH   4   7
BRANCH   5  17
ATOM     17  C   UNL     1      -1.458  -1.996  -2.797  0.00  0.00    +0.038 A 
ATOM     18  C   UNL     1      -0.202  -2.575  -2.663  0.00  0.00    +0.025 A 
ATOM     19  C   UNL     1      -0.042  -3.931  -2.868  0.00  0.00    +0.022 A 
ATOM     20  C   UNL     1      -1.131  -4.714  -3.208  0.00  0.00    +0.041 A 
ATOM     21  C   UNL     1      -2.384  -4.141  -3.343  0.00  0.00    +0.022 A 
ATOM     22  C   UNL     1      -2.551  -2.786  -3.132  0.00  0.00    +0.025 A 
ATOM     23 CL   UNL     1      -0.926  -6.418  -3.465  0.00  0.00    -0.084 Cl
ENDBRANCH   5  17
BRANCH   1  24
ATOM     24  S   UNL     1      -0.804  -0.295  -0.032  0.00  0.00    -0.105 S 
BRANCH  24  26
ATOM     25  C   UNL     1       0.650   1.859  -0.885  0.00  0.00    +0.029 C 
ATOM     26  C   UNL     1       0.752   0.342  -0.713  0.00  0.00    +0.133 C 
BRANCH  26  27
ATOM     27  C   UNL     1       1.883   0.018   0.230  0.00  0.00    +0.233 C 
ATOM     28  O   UNL     1       1.649  -0.243   1.390  0.00  0.00    -0.274 OA
ATOM     29  N   UNL     1       3.154   0.019  -0.218  0.00  0.00    -0.239 N 
ATOM     30  C   UNL     1       4.165  -0.271   0.625  0.00  0.00    +0.303 C 
ATOM     31  O   UNL     1       3.930  -0.532   1.789  0.00  0.00    -0.253 OA
ATOM     32  N   UNL     1       5.436  -0.270   0.178  0.00  0.00    -0.313 N 
ATOM     33  H   UNL     1       3.341   0.228  -1.146  0.00  0.00    +0.159 HD
ATOM     34  H   UNL     1       5.624  -0.061  -0.751  0.00  0.00    +0.146 HD
ATOM     35  H   UNL     1       6.164  -0.478   0.784  0.00  0.00    +0.146 HD
ENDBRANCH  26  27
ENDBRANCH  24  26
ENDBRANCH   1  24
TORSDOF 5
