REMARK  Name = ZINC15987309
REMARK  8 active torsions:
REMARK  status: ('A' for Active; 'I' for Inactive)
REMARK    1  A    between atoms: C_1  and  C_2
REMARK    2  A    between atoms: C_5  and  N_9
REMARK    3  A    between atoms: C_6  and  C_8
REMARK    4  A    between atoms: C_25  and  C_31
REMARK    5  A    between atoms: C_31  and  C_33
REMARK    6  A    between atoms: C_33  and  C_34
REMARK    7  A    between atoms: C_33  and  C_35
REMARK    8  A    between atoms: C_33  and  C_36
REMARK                            x       y       z     vdW  Elec       q    Type
REMARK                         _______ _______ _______ _____ _____    ______ ____
ROOT
ATOM      1  N   UNL     1       0.253  -3.728   0.723  0.00  0.00    -0.210 N 
ATOM      2  C   UNL     1      -0.918  -4.361   0.550  0.00  0.00    +0.232 C 
ATOM      3  O   UNL     1      -2.013  -3.840   0.545  0.00  0.00    -0.274 OA
ATOM      4  C   UNL     1      -0.636  -5.844   0.361  0.00  0.00    +0.116 C 
ATOM      5  C   UNL     1      -0.626  -6.511   1.741  0.00  0.00    +0.136 C 
ATOM      6  C   UNL     1      -1.795  -7.447   1.909  0.00  0.00    -0.016 A 
ATOM      7  C   UNL     1      -3.022  -7.163   1.360  0.00  0.00    +0.006 A 
ATOM      8  C   UNL     1      -4.076  -8.046   1.527  0.00  0.00    +0.000 A 
ATOM      9  C   UNL     1      -3.898  -9.214   2.246  0.00  0.00    +0.001 A 
ATOM     10  C   UNL     1      -2.672  -9.510   2.805  0.00  0.00    +0.010 A 
ATOM     11  C   UNL     1      -1.604  -8.624   2.644  0.00  0.00    -0.000 A 
ATOM     12  C   UNL     1      -0.293  -8.923   3.252  0.00  0.00    +0.138 C 
ATOM     13  N   UNL     1       0.777  -8.296   2.839  0.00  0.00    -0.191 NA
ATOM     14  N   UNL     1       0.606  -7.315   1.838  0.00  0.00    -0.236 N 
ATOM     15  C   UNL     1       1.488  -6.998   0.721  0.00  0.00    +0.172 C 
ATOM     16  C   UNL     1       0.863  -5.817  -0.071  0.00  0.00    +0.119 C 
ATOM     17  C   UNL     1       1.331  -4.497   0.501  0.00  0.00    +0.232 C 
ATOM     18  O   UNL     1       2.482  -4.188   0.722  0.00  0.00    -0.274 OA
ENDROOT
BRANCH   1  23
ATOM     19  C   UNL     1       0.614   1.730   2.236  0.00  0.00    +0.044 C 
ATOM     20  C   UNL     1       0.518   0.281   1.834  0.00  0.00    -0.050 A 
ATOM     21  C   UNL     1       0.466  -0.062   0.495  0.00  0.00    +0.005 A 
ATOM     22  C   UNL     1       0.379  -1.389   0.124  0.00  0.00    +0.024 A 
ATOM     23  C   UNL     1       0.343  -2.380   1.096  0.00  0.00    +0.047 A 
ATOM     24  C   UNL     1       0.395  -2.033   2.439  0.00  0.00    -0.028 A 
ATOM     25  C   UNL     1       0.487  -0.703   2.804  0.00  0.00    +0.008 A 
ATOM     26  C   UNL     1       0.355  -3.104   3.498  0.00  0.00    +0.046 C 
ENDBRANCH   1  23
BRANCH  15  27
ATOM     27  C   UNL     1       2.850  -6.614   1.238  0.00  0.00    +0.161 C 
ATOM     28  O   UNL     1       2.965  -6.139   2.342  0.00  0.00    -0.295 OA
BRANCH  27  29
ATOM     29  C   UNL     1       4.069  -6.822   0.377  0.00  0.00    +0.023 C 
ATOM     30  C   UNL     1       5.291  -6.210   1.066  0.00  0.00    +0.018 C 
ATOM     31  C   UNL     1       4.297  -8.320   0.169  0.00  0.00    +0.018 C 
ATOM     32  C   UNL     1       3.857  -6.145  -0.979  0.00  0.00    +0.018 C 
ENDBRANCH  27  29
ENDBRANCH  15  27
TORSDOF 3
