REMARK  Name = ZINC63229161
REMARK  7 active torsions:
REMARK  status: ('A' for Active; 'I' for Inactive)
REMARK    1  A    between atoms: C_1  and  C_2
REMARK    2  A    between atoms: C_7  and  S_12
REMARK    3  A    between atoms: S_12  and  C_13
REMARK    4  A    between atoms: C_13  and  C_14
REMARK    5  A    between atoms: N_16  and  C_17
REMARK    6  A    between atoms: C_23  and  O_27
REMARK    7  A    between atoms: O_27  and  C_28
REMARK                            x       y       z     vdW  Elec       q    Type
REMARK                         _______ _______ _______ _____ _____    ______ ____
ROOT
ATOM      1  C   UNL     1       4.241  -4.802   1.804  0.00  0.00    +0.225 C 
ATOM      2  O   UNL     1       4.268  -5.870   2.379  0.00  0.00    -0.275 OA
ATOM      3  N   UNL     1       5.393  -4.186   1.474  0.00  0.00    -0.288 N 
ATOM      4  H   UNL     1       5.372  -3.332   1.014  0.00  0.00    +0.151 HD
ENDROOT
BRANCH   3   5
ATOM      5  C   UNL     1       6.678  -4.804   1.810  0.00  0.00    +0.224 C 
ATOM      6  N   UNL     1       7.786  -3.860   1.617  0.00  0.00    -0.316 N 
ATOM      7  C   UNL     1       8.758  -4.190   0.670  0.00  0.00    +0.043 A 
ATOM      8  C   UNL     1       9.885  -3.413   0.349  0.00  0.00    +0.027 A 
ATOM      9  C   UNL     1      10.789  -3.825  -0.602  0.00  0.00    +0.047 A 
ATOM     10  C   UNL     1      10.619  -5.024  -1.279  0.00  0.00    +0.121 A 
ATOM     11  C   UNL     1       9.513  -5.810  -0.982  0.00  0.00    +0.062 A 
ATOM     12  C   UNL     1       8.612  -5.393  -0.028  0.00  0.00    +0.035 A 
ATOM     13  S   UNL     1       7.114  -6.119   0.603  0.00  0.00    -0.082 S 
ATOM     14  H   UNL     1       7.841  -3.037   2.128  0.00  0.00    +0.149 HD
BRANCH  10  15
ATOM     15  O   UNL     1      11.518  -5.422  -2.217  0.00  0.00    -0.495 OA
ATOM     16  C   UNL     1      12.627  -4.554  -2.463  0.00  0.00    +0.277 C 
ENDBRANCH  10  15
ENDBRANCH   3   5
BRANCH   1  17
ATOM     17  C   UNL     1       2.920  -4.166   1.458  0.00  0.00    +0.168 C 
BRANCH  17  18
ATOM     18  S   UNL     1       1.567  -5.231   2.029  0.00  0.00    -0.106 S 
BRANCH  18  25
ATOM     19  C   UNL     1      -0.018   1.503   0.010  0.00  0.00    +0.044 C 
ATOM     20  C   UNL     1       0.002  -0.004   0.002  0.00  0.00    -0.048 A 
ATOM     21  C   UNL     1       0.005  -0.672  -1.235  0.00  0.00    +0.005 A 
ATOM     22  C   UNL     1       0.022  -2.017  -1.335  0.00  0.00    +0.028 A 
ATOM     23  C   UNL     1       0.040  -2.834  -0.114  0.00  0.00    +0.061 A 
ATOM     24  N   UNL     1       0.057  -4.120   0.090  0.00  0.00    -0.355 N 
ATOM     25  C   UNL     1       0.067  -4.335   1.542  0.00  0.00    +0.236 C 
ATOM     26  N   UNL     1       0.053  -3.002   2.159  0.00  0.00    -0.355 N 
ATOM     27  C   UNL     1       0.037  -2.127   1.195  0.00  0.00    +0.061 A 
ATOM     28  C   UNL     1       0.022  -0.657   1.181  0.00  0.00    +0.030 A 
ATOM     29  H   UNL     1       0.062  -4.809  -0.593  0.00  0.00    +0.162 HD
ATOM     30  H   UNL     1       0.055  -2.810   3.109  0.00  0.00    +0.162 HD
ENDBRANCH  18  25
ENDBRANCH  17  18
ENDBRANCH   1  17
TORSDOF 5
