REMARK  Name = ZINC01750181
REMARK  9 active torsions:
REMARK  status: ('A' for Active; 'I' for Inactive)
REMARK    1  A    between atoms: C_3  and  O_16
REMARK    2  A    between atoms: C_6  and  C_7
REMARK    3  A    between atoms: C_7  and  C_8
REMARK    4  A    between atoms: C_8  and  C_9
REMARK    5  A    between atoms: C_9  and  C_14
REMARK    6  A    between atoms: O_16  and  C_17
REMARK    7  A    between atoms: C_17  and  C_18
REMARK    8  A    between atoms: C_19  and  C_26
REMARK    9  A    between atoms: C_20  and  N_25
REMARK                            x       y       z     vdW  Elec       q    Type
REMARK                         _______ _______ _______ _____ _____    ______ ____
ROOT
ATOM      1  C   UNL     1      -1.249   3.328   0.032  0.00  0.00    +0.093 A 
ATOM      2  C   UNL     1      -0.067   4.065   0.025  0.00  0.00    +0.046 A 
ATOM      3  C   UNL     1       1.154   3.366   0.009  0.00  0.00    +0.129 A 
ATOM      4  N   UNL     1       1.133   2.038   0.002  0.00  0.00    -0.199 NA
ATOM      5  C   UNL     1      -0.017   1.379   0.010  0.00  0.00    +0.215 A 
ATOM      6  N   UNL     1      -1.184   2.007   0.019  0.00  0.00    -0.215 NA
ATOM      7  N   UNL     1       0.002  -0.004   0.002  0.00  0.00    -0.327 N 
ATOM      8  H   UNL     1       0.849  -0.478  -0.009  0.00  0.00    +0.145 HD
ATOM      9  H   UNL     1      -0.831  -0.500   0.007  0.00  0.00    +0.145 HD
ENDROOT
BRANCH   2  10
ATOM     10  C   UNL     1      -0.094   5.548   0.033  0.00  0.00    -0.013 A 
ATOM     11  C   UNL     1      -0.612   6.231   1.132  0.00  0.00    +0.010 A 
ATOM     12  C   UNL     1      -0.630   7.611   1.137  0.00  0.00    +0.020 A 
ATOM     13  C   UNL     1      -0.146   8.316   0.049  0.00  0.00    +0.041 A 
ATOM     14  C   UNL     1       0.364   7.642  -1.047  0.00  0.00    +0.020 A 
ATOM     15  C   UNL     1       0.392   6.263  -1.060  0.00  0.00    +0.010 A 
ATOM     16 CL   UNL     1      -0.178  10.052   0.059  0.00  0.00    -0.084 Cl
ENDBRANCH   2  10
BRANCH   3  17
ATOM     17  N   UNL     1       2.357   4.050   0.002  0.00  0.00    -0.343 N 
ATOM     18  H   UNL     1       3.194   3.559  -0.009  0.00  0.00    +0.144 HD
ATOM     19  H   UNL     1       2.363   5.019   0.007  0.00  0.00    +0.144 HD
ENDBRANCH   3  17
BRANCH   1  20
ATOM     20  C   UNL     1      -2.584   4.027   0.048  0.00  0.00    +0.285 C 
BRANCH  20  21
ATOM     21  O   UNL     1      -3.019   4.255  -1.294  0.00  0.00    -0.486 OA
BRANCH  21  24
ATOM     22  C   UNL     1      -5.912   5.769  -2.897  0.00  0.00    +0.007 A 
ATOM     23  C   UNL     1      -4.697   5.133  -2.734  0.00  0.00    +0.046 A 
ATOM     24  C   UNL     1      -4.214   4.880  -1.458  0.00  0.00    +0.121 A 
ATOM     25  C   UNL     1      -4.956   5.262  -0.350  0.00  0.00    +0.046 A 
ATOM     26  C   UNL     1      -6.168   5.903  -0.519  0.00  0.00    +0.007 A 
ATOM     27  C   UNL     1      -6.647   6.154  -1.791  0.00  0.00    -0.047 A 
BRANCH  27  28
ATOM     28  C   UNL     1      -7.972   6.848  -1.973  0.00  0.00    +0.040 C 
BRANCH  28  29
ATOM     29  C   UNL     1      -9.090   5.805  -2.034  0.00  0.00    +0.071 C 
BRANCH  29  30
ATOM     30  C   UNL     1     -10.435   6.509  -2.219  0.00  0.00    +0.184 C 
ATOM     31  O   UNL     1     -10.422   7.265  -3.442  0.00  0.00    -0.345 OA
ATOM     32  C   UNL     1     -11.196   8.453  -3.151  0.00  0.00    +0.191 C 
ATOM     33  C   UNL     1     -10.808   8.730  -1.678  0.00  0.00    +0.191 C 
ATOM     34  O   UNL     1     -10.663   7.406  -1.124  0.00  0.00    -0.345 OA
BRANCH  30  35
ATOM     35  C   UNL     1     -11.557   5.469  -2.273  0.00  0.00    +0.173 C 
ATOM     36 CL   UNL     1     -13.140   6.304  -2.490  0.00  0.00    -0.120 Cl
ENDBRANCH  30  35
ENDBRANCH  29  30
ENDBRANCH  28  29
ENDBRANCH  27  28
ENDBRANCH  21  24
ENDBRANCH  20  21
ENDBRANCH   1  20
TORSDOF 9
