REMARK  Name = ZINC35485126
REMARK  10 active torsions:
REMARK  status: ('A' for Active; 'I' for Inactive)
REMARK    1  A    between atoms: C_1  and  C_2
REMARK    2  A    between atoms: C_2  and  C_3
REMARK    3  A    between atoms: C_3  and  C_5
REMARK    4  A    between atoms: C_3  and  C_6
REMARK    5  A    between atoms: C_6  and  C_8
REMARK    6  A    between atoms: C_6  and  N_20
REMARK    7  A    between atoms: N_10  and  C_11
REMARK    8  A    between atoms: C_11  and  C_13
REMARK    9  A    between atoms: C_11  and  C_14
REMARK   10  A    between atoms: C_21  and  C_23
REMARK                            x       y       z     vdW  Elec       q    Type
REMARK                         _______ _______ _______ _____ _____    ______ ____
ROOT
ATOM      1  C   UNL     1      -0.348  -0.236  -2.730  0.00  0.00    +0.162 C 
ENDROOT
BRANCH   1   2
ATOM      2  C   UNL     1      -0.351   1.255  -2.946  0.00  0.00    +0.234 C 
ATOM      3  O   UNL     1       0.071   1.718  -3.985  0.00  0.00    -0.274 OA
ATOM      4  N   UNL     1      -0.822   2.075  -1.985  0.00  0.00    -0.307 N 
ATOM      5  H   UNL     1      -1.094   1.711  -1.128  0.00  0.00    +0.149 HD
BRANCH   4   6
ATOM      6  C   UNL     1      -0.923   3.515  -2.235  0.00  0.00    +0.100 C 
ATOM      7  C   UNL     1       0.420   4.181  -1.929  0.00  0.00    +0.033 C 
BRANCH   6   8
ATOM      8  C   UNL     1      -1.990   4.105  -1.349  0.00  0.00    -0.027 A 
ATOM      9  C   UNL     1      -2.018   3.796  -0.002  0.00  0.00    +0.005 A 
ATOM     10  C   UNL     1      -2.997   4.337   0.810  0.00  0.00    +0.000 A 
ATOM     11  C   UNL     1      -3.947   5.187   0.276  0.00  0.00    +0.000 A 
ATOM     12  C   UNL     1      -3.917   5.497  -1.071  0.00  0.00    +0.000 A 
ATOM     13  C   UNL     1      -2.936   4.959  -1.883  0.00  0.00    +0.005 A 
ENDBRANCH   6   8
ENDBRANCH   4   6
ENDBRANCH   1   2
BRANCH   1  14
ATOM     14  N   UNL     1      -0.222  -0.916  -4.021  0.00  0.00    -0.302 N 
ATOM     15  C   UNL     1      -0.686  -2.173  -4.169  0.00  0.00    +0.231 C 
ATOM     16  O   UNL     1      -1.206  -2.741  -3.232  0.00  0.00    -0.274 OA
ATOM     17  H   UNL     1       0.195  -0.462  -4.771  0.00  0.00    +0.150 HD
BRANCH  15  18
ATOM     18  C   UNL     1      -0.556  -2.873  -5.497  0.00  0.00    +0.145 C 
ATOM     19  C   UNL     1      -1.670  -2.405  -6.435  0.00  0.00    +0.063 C 
ATOM     20  C   UNL     1      -1.698  -3.267  -7.670  0.00  0.00    -0.041 A 
ATOM     21  C   UNL     1      -2.377  -2.802  -8.786  0.00  0.00    +0.004 A 
ATOM     22  C   UNL     1      -2.432  -3.562  -9.937  0.00  0.00    +0.000 A 
ATOM     23  C   UNL     1      -1.805  -4.794  -9.978  0.00  0.00    +0.000 A 
ATOM     24  C   UNL     1      -1.127  -5.257  -8.868  0.00  0.00    +0.005 A 
ATOM     25  C   UNL     1      -1.070  -4.494  -7.712  0.00  0.00    -0.030 A 
ATOM     26  C   UNL     1      -0.309  -5.037  -6.531  0.00  0.00    +0.117 C 
ATOM     27  N   UNL     1      -0.683  -4.327  -5.304  0.00  0.00    -0.301 NA
ATOM     28  H   UNL     1      -0.128  -4.637  -4.521  0.00  0.00    +0.123 HD
ENDBRANCH  15  18
ENDBRANCH   1  14
BRANCH   1  29
ATOM     29  C   UNL     1       0.832  -0.619  -1.835  0.00  0.00    +0.015 C 
ATOM     30  C   UNL     1       2.143  -0.357  -2.579  0.00  0.00    +0.010 C 
BRANCH  29  32
ATOM     31  C   UNL     1      -0.497  -2.340  -0.604  0.00  0.00    +0.004 C 
ATOM     32  C   UNL     1       0.738  -2.103  -1.475  0.00  0.00    +0.002 C 
ENDBRANCH  29  32
ENDBRANCH   1  29
TORSDOF 7
