REMARK  Name = ZINC26468857
REMARK  8 active torsions:
REMARK  status: ('A' for Active; 'I' for Inactive)
REMARK    1  A    between atoms: C_1  and  C_2
REMARK    2  A    between atoms: C_2  and  C_4
REMARK    3  A    between atoms: C_2  and  N_17
REMARK    4  A    between atoms: N_6  and  C_7
REMARK    5  A    between atoms: C_11  and  S_13
REMARK    6  A    between atoms: S_13  and  N_16
REMARK    7  A    between atoms: N_20  and  C_23
REMARK    8  A    between atoms: C_27  and  C_29
REMARK                            x       y       z     vdW  Elec       q    Type
REMARK                         _______ _______ _______ _____ _____    ______ ____
ROOT
ATOM      1  C   UNL     1       0.056   9.535   0.589  0.00  0.00    -0.004 C 
ATOM      2  C   UNL     1       0.479   9.281  -0.859  0.00  0.00    +0.017 C 
ENDROOT
BRANCH   2   3
ATOM      3  N   UNL     1       0.465   7.837  -1.127  0.00  0.00    +0.389 N 
ATOM      4  C   UNL     1       1.155   7.096  -0.061  0.00  0.00    -0.059 C 
ATOM      5  C   UNL     1       1.188   5.608  -0.416  0.00  0.00    +0.086 C 
ATOM      6  N   UNL     1      -0.187   5.118  -0.589  0.00  0.00    -0.333 N 
ATOM      7  C   UNL     1      -0.877   5.858  -1.655  0.00  0.00    +0.086 C 
ATOM      8  C   UNL     1      -0.910   7.346  -1.300  0.00  0.00    -0.059 C 
ATOM      9  H   UNL     1       1.008   7.663  -2.068  0.00  0.00    -0.081 HD
BRANCH   6  10
ATOM     10  C   UNL     1      -0.200   3.744  -0.844  0.00  0.00    +0.030 A 
ATOM     11  C   UNL     1       0.993   3.036  -0.903  0.00  0.00    +0.023 A 
ATOM     12  C   UNL     1       0.977   1.679  -1.156  0.00  0.00    +0.002 A 
ATOM     13  C   UNL     1      -0.227   1.024  -1.349  0.00  0.00    +0.012 A 
ATOM     14  C   UNL     1      -1.416   1.727  -1.296  0.00  0.00    +0.057 A 
ATOM     15  C   UNL     1      -1.407   3.084  -1.038  0.00  0.00    +0.035 A 
BRANCH  14  16
ATOM     16  C   UNL     1      -2.724   1.012  -1.514  0.00  0.00    +0.417 C 
ATOM     17  F   UNL     1      -2.479  -0.346  -1.750  0.00  0.00    -0.166 F 
ATOM     18  F   UNL     1      -3.526   1.150  -0.376  0.00  0.00    -0.166 F 
ATOM     19  F   UNL     1      -3.381   1.566  -2.618  0.00  0.00    -0.166 F 
ENDBRANCH  14  16
ENDBRANCH   6  10
ENDBRANCH   2   3
BRANCH   2  20
ATOM     20  C   UNL     1       1.869   9.819  -1.079  0.00  0.00    +0.203 C 
ATOM     21  O   UNL     1       2.807   9.056  -1.169  0.00  0.00    -0.277 OA
ATOM     22  N   UNL     1       2.070  11.148  -1.175  0.00  0.00    -0.287 N 
ATOM     23  H   UNL     1       1.234  11.844  -1.007  0.00  0.00    +0.155 HD
BRANCH  22  24
ATOM     24  C   UNL     1       3.340  11.643  -1.490  0.00  0.00    +0.035 A 
ATOM     25  C   UNL     1       4.176  10.926  -2.335  0.00  0.00    +0.023 A 
ATOM     26  C   UNL     1       5.430  11.417  -2.644  0.00  0.00    +0.004 A 
ATOM     27  C   UNL     1       5.853  12.622  -2.111  0.00  0.00    +0.028 A 
ATOM     28  C   UNL     1       5.022  13.338  -1.269  0.00  0.00    +0.107 A 
ATOM     29  C   UNL     1       3.765  12.855  -0.961  0.00  0.00    +0.051 A 
BRANCH  28  30
ATOM     30  S   UNL     1       5.565  14.872  -0.593  0.00  0.00    +0.056 S 
ATOM     31  O   UNL     1       4.817  15.079   0.597  0.00  0.00    -0.153 OA
ATOM     32  O   UNL     1       6.986  14.840  -0.604  0.00  0.00    -0.153 OA
BRANCH  30  33
ATOM     33  N   UNL     1       5.110  16.061  -1.652  0.00  0.00    -0.204 NA
ATOM     34  H   UNL     1       5.432  17.039  -1.265  0.00  0.00    +0.144 HD
ATOM     35  H   UNL     1       4.016  16.053  -1.764  0.00  0.00    +0.144 HD
ENDBRANCH  30  33
ENDBRANCH  28  30
ENDBRANCH  22  24
ENDBRANCH   2  20
TORSDOF 7
