REMARK  Name = ZINC14358002
REMARK  8 active torsions:
REMARK  status: ('A' for Active; 'I' for Inactive)
REMARK    1  A    between atoms: C_1  and  C_2
REMARK    2  A    between atoms: C_7  and  N_63
REMARK    3  A    between atoms: C_9  and  C_11
REMARK    4  A    between atoms: C_12  and  C_13
REMARK    5  A    between atoms: C_12  and  N_63
REMARK    6  A    between atoms: N_15  and  C_16
REMARK    7  A    between atoms: C_18  and  S_23
REMARK    8  A    between atoms: S_23  and  N_26
REMARK                            x       y       z     vdW  Elec       q    Type
REMARK                         _______ _______ _______ _____ _____    ______ ____
ROOT
ATOM      1  C   UNL     1       2.383   1.407  -0.024  0.00  0.00    +0.054 A 
ATOM      2  C   UNL     1       2.315   0.162  -0.635  0.00  0.00    +0.053 A 
ATOM      3  C   UNL     1       1.126  -0.541  -0.637  0.00  0.00    +0.107 A 
ATOM      4  C   UNL     1       0.003  -0.006  -0.031  0.00  0.00    +0.030 A 
ATOM      5  C   UNL     1       0.067   1.233   0.579  0.00  0.00    +0.024 A 
ATOM      6  C   UNL     1       1.254   1.942   0.584  0.00  0.00    +0.062 A 
ATOM      7 CL   UNL     1       1.333   3.498   1.349  0.00  0.00    -0.082 Cl
ENDROOT
BRANCH   1  10
ATOM      8  C   UNL     1       4.760   1.465   0.068  0.00  0.00    +0.200 C 
ATOM      9  O   UNL     1       4.778   0.252   0.061  0.00  0.00    -0.278 OA
ATOM     10  N   UNL     1       3.586   2.122  -0.020  0.00  0.00    -0.286 N 
ATOM     11  H   UNL     1       3.576   3.090  -0.080  0.00  0.00    +0.155 HD
BRANCH   8  12
ATOM     12  C   UNL     1       6.050   2.237   0.174  0.00  0.00    +0.016 C 
BRANCH  12  13
ATOM     13  N   UNL     1       7.176   1.288   0.256  0.00  0.00    +0.387 N 
ATOM     14  H   UNL     1       7.057   0.692   1.083  0.00  0.00    -0.085 HD
ATOM     15  H   UNL     1       7.188   0.703  -0.588  0.00  0.00    -0.085 HD
BRANCH  13  21
ATOM     16  C   UNL     1      10.620   3.147   1.978  0.00  0.00    +0.008 C 
ATOM     17  C   UNL     1      10.818   1.872   1.155  0.00  0.00    -0.013 C 
ATOM     18  C   UNL     1      11.312   2.241  -0.245  0.00  0.00    +0.003 C 
ATOM     19  C   UNL     1      10.277   3.135  -0.931  0.00  0.00    -0.001 C 
ATOM     20  C   UNL     1       8.948   2.386  -1.040  0.00  0.00    -0.015 C 
ATOM     21  C   UNL     1       8.454   2.018   0.360  0.00  0.00    -0.068 C 
ATOM     22  C   UNL     1       9.488   1.123   1.047  0.00  0.00    -0.025 C 
ATOM     23  C   UNL     1       8.994   0.755   2.447  0.00  0.00    +0.006 C 
ENDBRANCH  13  21
ENDBRANCH  12  13
ENDBRANCH   8  12
ENDBRANCH   1  10
BRANCH   3  24
ATOM     24  S   UNL     1       1.039  -2.120  -1.413  0.00  0.00    +0.061 S 
ATOM     25  O   UNL     1       2.363  -2.637  -1.431  0.00  0.00    -0.153 OA
ATOM     26  O   UNL     1      -0.041  -2.813  -0.803  0.00  0.00    -0.153 OA
BRANCH  24  27
ATOM     27  N   UNL     1       0.608  -1.868  -2.991  0.00  0.00    -0.177 NA
ATOM     28  C   UNL     1      -0.797  -1.858  -3.333  0.00  0.00    +0.109 C 
ATOM     29  C   UNL     1      -1.264  -3.287  -3.679  0.00  0.00    +0.017 C 
ATOM     30  C   UNL     1      -0.702  -3.709  -4.971  0.00  0.00    +0.001 C 
ATOM     31  C   UNL     1       0.821  -3.791  -4.997  0.00  0.00    +0.001 C 
ATOM     32  C   UNL     1       1.390  -2.427  -5.302  0.00  0.00    +0.017 C 
ATOM     33  C   UNL     1       1.674  -1.668  -3.993  0.00  0.00    +0.109 C 
ENDBRANCH  24  27
ENDBRANCH   3  24
TORSDOF 6
