REMARK  Name = ZINC12296770
REMARK  12 active torsions:
REMARK  status: ('A' for Active; 'I' for Inactive)
REMARK    1  A    between atoms: C_1  and  N_65
REMARK    2  A    between atoms: C_2  and  N_65
REMARK    3  A    between atoms: C_3  and  C_4
REMARK    4  A    between atoms: C_3  and  N_65
REMARK    5  A    between atoms: C_4  and  C_5
REMARK    6  A    between atoms: C_5  and  N_6
REMARK    7  A    between atoms: C_7  and  C_9
REMARK    8  A    between atoms: C_9  and  C_10
REMARK    9  A    between atoms: C_10  and  C_11
REMARK   10  A    between atoms: C_11  and  C_12
REMARK   11  A    between atoms: C_12  and  C_13
REMARK   12  A    between atoms: C_13  and  N_14
REMARK                            x       y       z     vdW  Elec       q    Type
REMARK                         _______ _______ _______ _____ _____    ______ ____
ROOT
ATOM      1  N   UNL     1      -3.319  -1.565   1.716  0.00  0.00    -0.299 N 
ATOM      2  C   UNL     1      -3.344  -0.334   1.166  0.00  0.00    +0.303 C 
ATOM      3  O   UNL     1      -4.229   0.446   1.461  0.00  0.00    -0.253 OA
ATOM      4  N   UNL     1      -2.388   0.032   0.290  0.00  0.00    -0.280 N 
ATOM      5  C   UNL     1      -2.459   1.325  -0.408  0.00  0.00    +0.114 C 
ATOM      6  C   UNL     1      -1.271   2.192   0.028  0.00  0.00    +0.056 C 
ATOM      7  C   UNL     1      -0.019   1.352   0.010  0.00  0.00    -0.016 A 
ATOM      8  C   UNL     1       1.360   1.798   0.000  0.00  0.00    +0.003 A 
ATOM      9  C   UNL     1       1.946   3.067  -0.005  0.00  0.00    +0.010 A 
ATOM     10  C   UNL     1       3.318   3.118  -0.013  0.00  0.00    +0.001 A 
ATOM     11  C   UNL     1       4.096   1.972  -0.018  0.00  0.00    +0.002 A 
ATOM     12  C   UNL     1       3.543   0.703  -0.015  0.00  0.00    +0.026 A 
ATOM     13  C   UNL     1       2.152   0.621  -0.006  0.00  0.00    +0.047 A 
ATOM     14  N   UNL     1       1.298  -0.444  -0.002  0.00  0.00    -0.356 N 
ATOM     15  H   UNL     1       1.567  -1.376  -0.004  0.00  0.00    +0.166 HD
ATOM     16  C   UNL     1       0.003   0.002   0.006  0.00  0.00    +0.038 A 
ATOM     17  C   UNL     1      -1.245  -0.853   0.006  0.00  0.00    +0.162 C 
ATOM     18  H   UNL     1      -2.575  -2.160   1.537  0.00  0.00    +0.150 HD
ENDROOT
BRANCH   1  19
ATOM     19  C   UNL     1      -4.416  -2.002   2.583  0.00  0.00    +0.106 C 
BRANCH  19  20
ATOM     20  C   UNL     1      -4.143  -3.426   3.071  0.00  0.00    +0.019 C 
BRANCH  20  21
ATOM     21  C   UNL     1      -5.289  -3.882   3.977  0.00  0.00    +0.002 C 
BRANCH  21  22
ATOM     22  C   UNL     1      -5.016  -5.307   4.465  0.00  0.00    +0.009 C 
BRANCH  22  23
ATOM     23  C   UNL     1      -6.162  -5.763   5.371  0.00  0.00    +0.096 C 
BRANCH  23  25
ATOM     24  N   UNL     1      -6.774  -7.778   6.668  0.00  0.00    -0.315 N 
ATOM     25  C   UNL     1      -5.893  -7.166   5.852  0.00  0.00    +0.213 C 
ATOM     26  O   UNL     1      -4.885  -7.744   5.504  0.00  0.00    -0.276 OA
ATOM     27  H   UNL     1      -7.580  -7.316   6.946  0.00  0.00    +0.149 HD
BRANCH  24  28
ATOM     28  C   UNL     1      -6.513  -9.142   7.136  0.00  0.00    +0.102 C 
BRANCH  28  29
ATOM     29  C   UNL     1      -7.658  -9.599   8.041  0.00  0.00    +0.000 C 
BRANCH  29  30
ATOM     30  C   UNL     1      -7.386 -11.023   8.530  0.00  0.00    -0.078 C 
BRANCH  30  33
ATOM     31  C   UNL     1      -9.738 -11.585   8.642  0.00  0.00    -0.097 C 
ATOM     32  C   UNL     1      -8.152 -12.722  10.075  0.00  0.00    -0.097 C 
ATOM     33  N   UNL     1      -8.489 -11.441   9.419  0.00  0.00    +0.376 N 
ATOM     34  H   UNL     1      -8.627 -10.723  10.141  0.00  0.00    -0.083 HD
ENDBRANCH  30  33
ENDBRANCH  29  30
ENDBRANCH  28  29
ENDBRANCH  24  28
ENDBRANCH  23  25
ENDBRANCH  22  23
ENDBRANCH  21  22
ENDBRANCH  20  21
ENDBRANCH  19  20
ENDBRANCH   1  19
TORSDOF 10
