REMARK  Name = ZINC02682661
REMARK  8 active torsions:
REMARK  status: ('A' for Active; 'I' for Inactive)
REMARK    1  A    between atoms: C_3  and  N_27
REMARK    2  A    between atoms: C_6  and  C_7
REMARK    3  A    between atoms: N_9  and  C_10
REMARK    4  A    between atoms: C_10  and  C_12
REMARK    5  A    between atoms: C_10  and  N_16
REMARK    6  A    between atoms: N_16  and  C_17
REMARK    7  A    between atoms: C_20  and  S_23
REMARK    8  A    between atoms: S_23  and  N_26
REMARK                            x       y       z     vdW  Elec       q    Type
REMARK                         _______ _______ _______ _____ _____    ______ ____
ROOT
ATOM      1  C   UNL     1       1.453   1.798   0.067  0.00  0.00    +0.210 C 
ENDROOT
BRANCH   1   4
ATOM      2  C   UNL     1      -0.955   1.815   0.441  0.00  0.00    +0.246 C 
ATOM      3  O   UNL     1      -0.924   3.029   0.391  0.00  0.00    -0.270 OA
ATOM      4  N   UNL     1       0.181   1.106   0.293  0.00  0.00    -0.290 N 
ATOM      5  H   UNL     1       0.157   0.137   0.332  0.00  0.00    +0.151 HD
BRANCH   2  11
ATOM      6  C   UNL     1      -2.278  -0.278   0.714  0.00  0.00    +0.015 A 
ATOM      7  C   UNL     1      -3.478  -0.924   0.928  0.00  0.00    +0.033 A 
ATOM      8  C   UNL     1      -4.643  -0.193   1.079  0.00  0.00    +0.126 A 
ATOM      9  C   UNL     1      -4.612   1.189   1.023  0.00  0.00    +0.033 A 
ATOM     10  C   UNL     1      -3.418   1.847   0.816  0.00  0.00    +0.015 A 
ATOM     11  C   UNL     1      -2.239   1.116   0.663  0.00  0.00    +0.037 A 
BRANCH   8  12
ATOM     12  N   UNL     1      -5.929  -0.892   1.301  0.00  0.00    +0.056 N 
ATOM     13  O   UNL     1      -6.956  -0.252   1.435  0.00  0.00    -0.126 OA
ATOM     14  O   UNL     1      -5.959  -2.109   1.351  0.00  0.00    -0.126 OA
ENDBRANCH   8  12
ENDBRANCH   2  11
ENDBRANCH   1   4
BRANCH   1  15
ATOM     15  C   UNL     1       2.536   1.177   0.952  0.00  0.00    +0.225 C 
ATOM     16 CL   UNL     1       2.721  -0.568   0.541  0.00  0.00    -0.080 Cl
ATOM     17 CL   UNL     1       4.100   2.029   0.673  0.00  0.00    -0.080 Cl
ATOM     18 CL   UNL     1       2.062   1.340   2.684  0.00  0.00    -0.080 Cl
ENDBRANCH   1  15
BRANCH   1  19
ATOM     19  N   UNL     1       1.837   1.665  -1.341  0.00  0.00    -0.323 N 
ATOM     20  H   UNL     1       2.195   0.826  -1.669  0.00  0.00    +0.148 HD
BRANCH  19  21
ATOM     21  C   UNL     1       1.688   2.748  -2.210  0.00  0.00    +0.029 A 
ATOM     22  C   UNL     1       2.161   2.665  -3.514  0.00  0.00    +0.025 A 
ATOM     23  C   UNL     1       2.008   3.736  -4.372  0.00  0.00    +0.030 A 
ATOM     24  C   UNL     1       1.394   4.894  -3.933  0.00  0.00    +0.105 A 
ATOM     25  C   UNL     1       0.926   4.982  -2.634  0.00  0.00    +0.030 A 
ATOM     26  C   UNL     1       1.072   3.913  -1.772  0.00  0.00    +0.025 A 
BRANCH  24  27
ATOM     27  S   UNL     1       1.206   6.260  -5.029  0.00  0.00    +0.056 S 
ATOM     28  O   UNL     1       1.236   5.730  -6.347  0.00  0.00    -0.153 OA
ATOM     29  O   UNL     1       0.112   7.025  -4.541  0.00  0.00    -0.153 OA
BRANCH  27  30
ATOM     30  N   UNL     1       2.555   7.206  -4.869  0.00  0.00    -0.204 NA
ATOM     31  H   UNL     1       3.256   6.950  -4.249  0.00  0.00    +0.144 HD
ATOM     32  H   UNL     1       2.644   8.017  -5.394  0.00  0.00    +0.144 HD
ENDBRANCH  27  30
ENDBRANCH  24  27
ENDBRANCH  19  21
ENDBRANCH   1  19
TORSDOF 8
