REMARK  Name = ZINC40000667
REMARK  6 active torsions:
REMARK  status: ('A' for Active; 'I' for Inactive)
REMARK    1  A    between atoms: C_1  and  C_2
REMARK    2  A    between atoms: C_4  and  C_12
REMARK    3  A    between atoms: C_12  and  C_14
REMARK    4  A    between atoms: C_14  and  C_16
REMARK    5  A    between atoms: C_14  and  N_17
REMARK    6  A    between atoms: C_23  and  C_25
REMARK                            x       y       z     vdW  Elec       q    Type
REMARK                         _______ _______ _______ _____ _____    ______ ____
ROOT
ATOM      1  N   UNL     1      -4.754  -0.314  -1.624  0.00  0.00    -0.290 NA
ATOM      2  C   UNL     1      -4.776   1.141  -1.426  0.00  0.00    +0.104 C 
ATOM      3  C   UNL     1      -5.655   1.787  -2.502  0.00  0.00    +0.123 C 
ATOM      4  N   UNL     1      -6.974   1.136  -2.481  0.00  0.00    -0.296 N 
ATOM      5  C   UNL     1      -7.026  -0.333  -2.537  0.00  0.00    +0.123 C 
ATOM      6  C   UNL     1      -6.093  -0.895  -1.459  0.00  0.00    +0.104 C 
ATOM      7  C   UNL     1      -8.105   1.866  -2.411  0.00  0.00    +0.260 C 
ATOM      8  O   UNL     1      -8.043   3.076  -2.366  0.00  0.00    -0.271 OA
ENDROOT
BRANCH   7   9
ATOM      9  C   UNL     1      -9.445   1.178  -2.390  0.00  0.00    +0.296 C 
ATOM     10  C   UNL     1      -9.681   0.463  -3.727  0.00  0.00    +0.283 C 
ATOM     11  O   UNL     1     -10.966  -0.167  -3.679  0.00  0.00    -0.484 OA
ATOM     12  C   UNL     1     -11.997   0.584  -3.202  0.00  0.00    +0.162 A 
ATOM     13  C   UNL     1     -13.302   0.188  -3.456  0.00  0.00    +0.049 A 
ATOM     14  C   UNL     1     -14.359   0.938  -2.976  0.00  0.00    +0.004 A 
ATOM     15  C   UNL     1     -14.118   2.084  -2.241  0.00  0.00    +0.004 A 
ATOM     16  C   UNL     1     -12.821   2.484  -1.985  0.00  0.00    +0.049 A 
ATOM     17  C   UNL     1     -11.755   1.737  -2.465  0.00  0.00    +0.163 A 
ATOM     18  O   UNL     1     -10.483   2.148  -2.211  0.00  0.00    -0.473 OA
ENDBRANCH   7   9
BRANCH   1  19
ATOM     19  C   UNL     1      -3.787  -0.953  -0.721  0.00  0.00    +0.125 C 
ATOM     20  C   UNL     1      -3.714  -2.450  -1.030  0.00  0.00    +0.032 C 
BRANCH  19  21
ATOM     21  C   UNL     1      -2.428  -0.333  -0.919  0.00  0.00    +0.179 C 
ATOM     22  O   UNL     1      -2.209   0.349  -1.899  0.00  0.00    -0.291 OA
BRANCH  21  25
ATOM     23  C   UNL     1      -0.019   1.526   0.010  0.00  0.00    +0.035 C 
ATOM     24  C   UNL     1       0.002  -0.004   0.002  0.00  0.00    +0.111 C 
ATOM     25  C   UNL     1      -1.411  -0.544   0.036  0.00  0.00    +0.027 C 
ATOM     26  C   UNL     1      -1.496  -1.289   1.198  0.00  0.00    +0.006 A 
ATOM     27  C   UNL     1      -2.543  -2.035   1.788  0.00  0.00    +0.010 A 
ATOM     28  C   UNL     1      -2.344  -2.680   2.960  0.00  0.00    +0.001 A 
ATOM     29  C   UNL     1      -1.116  -2.646   3.640  0.00  0.00    +0.002 A 
ATOM     30  C   UNL     1      -0.053  -1.963   3.162  0.00  0.00    +0.026 A 
ATOM     31  C   UNL     1      -0.185  -1.232   1.891  0.00  0.00    +0.043 A 
ATOM     32  N   UNL     1       0.660  -0.506   1.212  0.00  0.00    -0.377 N 
ATOM     33  H   UNL     1       1.578  -0.327   1.468  0.00  0.00    +0.160 HD
ENDBRANCH  21  25
ENDBRANCH  19  21
ENDBRANCH   1  19
TORSDOF 4
