REMARK  Name = ZINC21264292
REMARK  13 active torsions:
REMARK  status: ('A' for Active; 'I' for Inactive)
REMARK    1  A    between atoms: C_1  and  C_2
REMARK    2  A    between atoms: C_2  and  N_3
REMARK    3  A    between atoms: C_7  and  C_9
REMARK    4  A    between atoms: C_9  and  N_10
REMARK    5  A    between atoms: N_10  and  C_11
REMARK    6  A    between atoms: N_10  and  C_17
REMARK    7  A    between atoms: C_11  and  C_12
REMARK    8  A    between atoms: C_17  and  N_19
REMARK    9  A    between atoms: N_19  and  C_20
REMARK   10  A    between atoms: C_22  and  C_28
REMARK   11  A    between atoms: C_22  and  C_29
REMARK   12  A    between atoms: C_24  and  C_26
REMARK   13  A    between atoms: C_24  and  C_27
REMARK                            x       y       z     vdW  Elec       q    Type
REMARK                         _______ _______ _______ _____ _____    ______ ____
ROOT
ATOM      1  N   UNL     1       1.217   2.370   0.031  0.00  0.00    -0.307 N 
ENDROOT
BRANCH   1   2
ATOM      2  C   UNL     1       1.931   2.556   1.158  0.00  0.00    +0.133 C 
ATOM      3  S   UNL     1       1.355   1.938   2.648  0.00  0.00    -0.019 S 
BRANCH   2   4
ATOM      4  N   UNL     1       3.098   3.228   1.114  0.00  0.00    -0.324 N 
ATOM      5  H   UNL     1       3.468   3.626   0.157  0.00  0.00    +0.148 HD
BRANCH   4   6
ATOM      6  C   UNL     1       3.876   3.431   2.343  0.00  0.00    +0.069 C 
ATOM      7  C   UNL     1       3.367   4.680   3.061  0.00  0.00    +0.009 C 
ATOM      8  C   UNL     1       4.173   4.926   4.334  0.00  0.00    -0.072 C 
ATOM      9  N   UNL     1       5.604   4.881   4.114  0.00  0.00    +0.386 N 
ATOM     10  C   UNL     1       6.176   3.881   3.237  0.00  0.00    -0.072 C 
ATOM     11  C   UNL     1       5.345   3.644   1.979  0.00  0.00    +0.009 C 
ATOM     12  C   UNL     1       6.381   2.551   3.973  0.00  0.00    -0.010 C 
ATOM     13  C   UNL     1       7.570   4.374   2.788  0.00  0.00    -0.010 C 
ATOM     14  C   UNL     1       3.747   3.923   5.413  0.00  0.00    -0.010 C 
ATOM     15  C   UNL     1       3.808   6.336   4.851  0.00  0.00    -0.010 C 
ATOM     16  H   UNL     1       5.938   5.834   3.679  0.00  0.00    -0.084 HD
ATOM     17  H   UNL     1       6.117   4.715   5.073  0.00  0.00    -0.084 HD
ENDBRANCH   4   6
ENDBRANCH   2   4
ENDBRANCH   1   2
BRANCH   1  18
ATOM     18  C   UNL     1      -0.103   1.737   0.095  0.00  0.00    +0.092 C 
BRANCH  18  23
ATOM     19  N   UNL     1      -1.249  -0.432   0.272  0.00  0.00    +0.382 N 
ATOM     20  C   UNL     1      -1.557  -1.242  -0.926  0.00  0.00    -0.078 C 
ATOM     21  C   UNL     1      -0.177  -1.559  -1.555  0.00  0.00    -0.020 C 
ATOM     22  C   UNL     1       0.594  -0.238  -1.299  0.00  0.00    -0.016 C 
ATOM     23  C   UNL     1       0.061   0.215   0.076  0.00  0.00    -0.051 C 
ATOM     24  H   UNL     1      -1.212  -1.079   1.161  0.00  0.00    -0.081 HD
BRANCH  19  26
ATOM     25  C   UNL     1      -3.655  -0.135   0.616  0.00  0.00    -0.017 C 
ATOM     26  C   UNL     1      -2.299   0.566   0.517  0.00  0.00    -0.082 C 
ENDBRANCH  19  26
ENDBRANCH  18  23
ENDBRANCH   1  18
BRANCH   1  27
ATOM     27  C   UNL     1       1.760   2.803  -1.260  0.00  0.00    +0.180 C 
BRANCH  27  28
ATOM     28  C   UNL     1       1.342   4.225  -1.529  0.00  0.00    +0.122 A 
ATOM     29  C   UNL     1       2.022   5.327  -1.166  0.00  0.00    +0.046 A 
ATOM     30  C   UNL     1       1.275   6.438  -1.619  0.00  0.00    +0.041 A 
ATOM     31  C   UNL     1       0.178   5.949  -2.226  0.00  0.00    +0.195 A 
ATOM     32  O   UNL     1       0.224   4.608  -2.168  0.00  0.00    -0.466 OA
ENDBRANCH  27  28
ENDBRANCH   1  27
TORSDOF 8
