REMARK  Name = ZINC39631945
REMARK  11 active torsions:
REMARK  status: ('A' for Active; 'I' for Inactive)
REMARK    1  A    between atoms: C_1  and  C_2
REMARK    2  A    between atoms: C_2  and  C_4
REMARK    3  A    between atoms: C_2  and  N_11
REMARK    4  A    between atoms: C_4  and  C_5
REMARK    5  A    between atoms: C_5  and  C_6
REMARK    6  A    between atoms: C_6  and  C_7
REMARK    7  A    between atoms: C_7  and  C_8
REMARK    8  A    between atoms: C_7  and  C_9
REMARK    9  A    between atoms: C_7  and  O_10
REMARK   10  A    between atoms: C_12  and  C_14
REMARK   11  A    between atoms: C_25  and  C_27
REMARK                            x       y       z     vdW  Elec       q    Type
REMARK                         _______ _______ _______ _____ _____    ______ ____
ROOT
ATOM      1  C   UNL     1       1.073  -0.854   3.972  0.00  0.00    +0.100 C 
ATOM      2  C   UNL     1       1.389  -2.320   3.600  0.00  0.00    +0.121 C 
ATOM      3  N   UNL     1       1.101  -3.090   4.833  0.00  0.00    -0.296 N 
ATOM      4  C   UNL     1      -0.122  -2.459   5.384  0.00  0.00    +0.115 C 
ATOM      5  C   UNL     1       0.081  -0.950   5.143  0.00  0.00    -0.004 C 
ATOM      6  C   UNL     1       0.667  -0.290   6.388  0.00  0.00    -0.010 C 
ATOM      7  C   UNL     1      -0.360  -0.348   7.522  0.00  0.00    -0.082 C 
ATOM      8  N   UNL     1      -1.587   0.345   7.109  0.00  0.00    +0.379 N 
ATOM      9  C   UNL     1      -2.194  -0.350   5.968  0.00  0.00    -0.082 C 
ATOM     10  C   UNL     1      -1.244  -0.293   4.768  0.00  0.00    -0.010 C 
ATOM     11  C   UNL     1       1.794  -4.130   5.338  0.00  0.00    +0.248 C 
ATOM     12  O   UNL     1       1.376  -4.722   6.316  0.00  0.00    -0.270 OA
ATOM     13  H   UNL     1      -2.239   0.359   7.879  0.00  0.00    -0.086 HD
ATOM     14  H   UNL     1      -1.363   1.292   6.844  0.00  0.00    -0.086 HD
ENDROOT
BRANCH  11  15
ATOM     15  C   UNL     1       3.053  -4.548   4.709  0.00  0.00    +0.052 A 
ATOM     16  C   UNL     1       3.227  -4.461   3.365  0.00  0.00    +0.059 A 
ATOM     17  S   UNL     1       4.777  -5.033   3.078  0.00  0.00    -0.096 S 
ATOM     18  C   UNL     1       5.280  -5.420   4.732  0.00  0.00    +0.020 A 
ATOM     19  C   UNL     1       4.162  -5.068   5.513  0.00  0.00    +0.001 A 
ATOM     20  C   UNL     1       4.260  -5.260   6.904  0.00  0.00    +0.010 A 
ATOM     21  C   UNL     1       5.410  -5.766   7.456  0.00  0.00    +0.001 A 
ATOM     22  C   UNL     1       6.500  -6.101   6.665  0.00  0.00    +0.001 A 
ATOM     23  C   UNL     1       6.428  -5.934   5.296  0.00  0.00    +0.015 A 
ENDBRANCH  11  15
BRANCH   1  25
ATOM     24  N   UNL     1       0.606   1.188   2.657  0.00  0.00    -0.312 N 
ATOM     25  C   UNL     1       0.441  -0.141   2.805  0.00  0.00    +0.218 C 
ATOM     26  O   UNL     1      -0.218  -0.763   1.999  0.00  0.00    -0.275 OA
ATOM     27  H   UNL     1       1.133   1.686   3.302  0.00  0.00    +0.149 HD
BRANCH  24  29
ATOM     28  C   UNL     1      -1.452   2.249   1.871  0.00  0.00    +0.028 C 
ATOM     29  C   UNL     1      -0.009   1.882   1.523  0.00  0.00    +0.070 C 
BRANCH  29  30
ATOM     30  C   UNL     1       0.781   3.155   1.214  0.00  0.00    +0.022 C 
BRANCH  30  31
ATOM     31  C   UNL     1       2.189   2.781   0.746  0.00  0.00    +0.005 C 
BRANCH  31  32
ATOM     32  C   UNL     1       2.979   4.055   0.437  0.00  0.00    +0.034 C 
BRANCH  32  33
ATOM     33  C   UNL     1       4.386   3.681  -0.032  0.00  0.00    +0.061 C 
ATOM     34  C   UNL     1       4.292   2.821  -1.294  0.00  0.00    +0.041 C 
ATOM     35  C   UNL     1       5.176   4.955  -0.340  0.00  0.00    +0.041 C 
BRANCH  33  36
ATOM     36  O   UNL     1       5.051   2.946   0.997  0.00  0.00    -0.389 OA
ATOM     37  H   UNL     1       5.147   3.430   1.829  0.00  0.00    +0.210 HD
ENDBRANCH  33  36
ENDBRANCH  32  33
ENDBRANCH  31  32
ENDBRANCH  30  31
ENDBRANCH  29  30
ENDBRANCH  24  29
ENDBRANCH   1  25
TORSDOF 8
