REMARK  Name = ZINC37105980
REMARK  9 active torsions:
REMARK  status: ('A' for Active; 'I' for Inactive)
REMARK    1  A    between atoms: C_1  and  C_2
REMARK    2  A    between atoms: C_2  and  C_4
REMARK    3  A    between atoms: C_2  and  N_11
REMARK    4  A    between atoms: C_8  and  O_10
REMARK    5  A    between atoms: N_11  and  C_12
REMARK    6  A    between atoms: C_12  and  C_14
REMARK    7  A    between atoms: C_12  and  C_15
REMARK    8  A    between atoms: C_18  and  O_22
REMARK    9  A    between atoms: O_22  and  C_23
REMARK                            x       y       z     vdW  Elec       q    Type
REMARK                         _______ _______ _______ _____ _____    ______ ____
ROOT
ATOM      1  N   UNL     1       0.713  -0.491   1.192  0.00  0.00    +0.388 N 
ATOM      2  H   UNL     1       0.798  -1.495   1.145  0.00  0.00    -0.084 HD
ATOM      3  H   UNL     1       1.632  -0.076   1.228  0.00  0.00    -0.084 HD
ENDROOT
BRANCH   1   5
ATOM      4  C   UNL     1      -0.019   1.526   0.010  0.00  0.00    -0.009 C 
ATOM      5  C   UNL     1       0.002  -0.004   0.002  0.00  0.00    -0.043 C 
BRANCH   5   6
ATOM      6  C   UNL     1       0.707  -0.490  -1.238  0.00  0.00    -0.058 A 
ATOM      7  C   UNL     1       2.089  -0.510  -1.283  0.00  0.00    +0.002 A 
ATOM      8  C   UNL     1       2.740  -0.956  -2.419  0.00  0.00    +0.004 A 
ATOM      9  C   UNL     1       2.010  -1.381  -3.512  0.00  0.00    +0.045 A 
ATOM     10  C   UNL     1       0.623  -1.362  -3.469  0.00  0.00    +0.117 A 
ATOM     11  C   UNL     1      -0.027  -0.920  -2.326  0.00  0.00    +0.047 A 
BRANCH  10  12
ATOM     12  O   UNL     1      -0.097  -1.780  -4.543  0.00  0.00    -0.507 OA
ATOM     13  H   UNL     1      -0.307  -2.723  -4.533  0.00  0.00    +0.292 HD
ENDBRANCH  10  12
ENDBRANCH   5   6
ENDBRANCH   1   5
BRANCH   1  14
ATOM     14  C   UNL     1      -0.040  -0.119   2.398  0.00  0.00    -0.043 C 
ATOM     15  C   UNL     1      -1.385  -0.847   2.404  0.00  0.00    -0.009 C 
BRANCH  14  16
ATOM     16  C   UNL     1       0.748  -0.509   3.622  0.00  0.00    -0.060 A 
ATOM     17  C   UNL     1       1.440  -1.706   3.644  0.00  0.00    +0.005 A 
ATOM     18  C   UNL     1       2.163  -2.067   4.765  0.00  0.00    +0.047 A 
ATOM     19  C   UNL     1       2.194  -1.227   5.869  0.00  0.00    +0.134 A 
ATOM     20  C   UNL     1       1.499  -0.026   5.844  0.00  0.00    +0.060 A 
ATOM     21  C   UNL     1       0.782   0.333   4.718  0.00  0.00    +0.021 A 
ATOM     22 BR   UNL     1       1.539   1.122   7.346  0.00  0.00    -0.047 Br
BRANCH  19  23
ATOM     23  O   UNL     1       2.904  -1.579   6.973  0.00  0.00    -0.494 OA
ATOM     24  C   UNL     1       3.594  -2.830   6.928  0.00  0.00    +0.277 C 
ENDBRANCH  19  23
ENDBRANCH  14  16
ENDBRANCH   1  14
TORSDOF 6
