REMARK  Name = ZINC67163816
REMARK  11 active torsions:
REMARK  status: ('A' for Active; 'I' for Inactive)
REMARK    1  A    between atoms: C_1  and  N_2
REMARK    2  A    between atoms: N_2  and  C_3
REMARK    3  A    between atoms: N_2  and  C_4
REMARK    4  A    between atoms: C_4  and  C_6
REMARK    5  A    between atoms: C_4  and  C_26
REMARK    6  A    between atoms: C_6  and  N_7
REMARK    7  A    between atoms: C_8  and  C_10
REMARK    8  A    between atoms: C_10  and  C_11
REMARK    9  A    between atoms: C_11  and  C_12
REMARK   10  A    between atoms: C_12  and  C_13
REMARK   11  A    between atoms: C_13  and  C_14
REMARK                            x       y       z     vdW  Elec       q    Type
REMARK                         _______ _______ _______ _____ _____    ______ ____
ROOT
ATOM      1  N   UNL     1      -0.871  -2.414   1.123  0.00  0.00    -0.317 N 
ATOM      2  C   UNL     1      -0.780  -3.743   1.332  0.00  0.00    +0.213 C 
ATOM      3  O   UNL     1      -1.308  -4.515   0.560  0.00  0.00    -0.276 OA
ATOM      4  H   UNL     1      -0.448  -1.797   1.741  0.00  0.00    +0.149 HD
ENDROOT
BRANCH   1   5
ATOM      5  C   UNL     1      -1.607  -1.903  -0.035  0.00  0.00    +0.089 C 
BRANCH   5   6
ATOM      6  C   UNL     1      -1.399  -0.392  -0.146  0.00  0.00    -0.049 C 
BRANCH   6   7
ATOM      7  C   UNL     1      -2.352   0.179  -1.198  0.00  0.00    -0.023 C 
ATOM      8  C   UNL     1      -2.066   1.669  -1.390  0.00  0.00    +0.002 C 
ATOM      9  C   UNL     1      -3.019   2.240  -2.443  0.00  0.00    +0.000 C 
ATOM     10  C   UNL     1      -4.464   2.054  -1.976  0.00  0.00    +0.000 C 
ATOM     11  C   UNL     1      -4.750   0.563  -1.784  0.00  0.00    +0.000 C 
ATOM     12  C   UNL     1      -3.797  -0.007  -0.732  0.00  0.00    +0.002 C 
ENDBRANCH   6   7
BRANCH   6  14
ATOM     13  C   UNL     1       0.904  -0.660   0.472  0.00  0.00    -0.096 C 
ATOM     14  N   UNL     1      -0.011  -0.116  -0.541  0.00  0.00    +0.379 N 
ATOM     15  C   UNL     1       0.263  -0.748  -1.839  0.00  0.00    -0.096 C 
ATOM     16  H   UNL     1       0.125   0.881  -0.617  0.00  0.00    -0.082 HD
ENDBRANCH   6  14
ENDBRANCH   5   6
ENDBRANCH   1   5
BRANCH   2  17
ATOM     17  C   UNL     1      -0.022  -4.269   2.524  0.00  0.00    +0.096 C 
BRANCH  17  18
ATOM     18  C   UNL     1      -0.073  -5.798   2.526  0.00  0.00    +0.009 C 
BRANCH  18  19
ATOM     19  C   UNL     1       0.696  -6.331   3.737  0.00  0.00    +0.002 C 
BRANCH  19  20
ATOM     20  C   UNL     1       0.646  -7.861   3.739  0.00  0.00    +0.016 C 
BRANCH  20  21
ATOM     21  C   UNL     1       1.415  -8.394   4.949  0.00  0.00    +0.069 C 
ATOM     22  C   UNL     1       1.363  -9.900   5.008  0.00  0.00    +0.108 C 
ATOM     23  C   UNL     1       2.453 -10.472   4.050  0.00  0.00    +0.105 C 
ATOM     24  C   UNL     1       3.776  -9.905   4.557  0.00  0.00    +0.093 C 
ATOM     25  S   UNL     1       3.238  -8.122   4.758  0.00  0.00    -0.154 S 
ATOM     26  N   UNL     1       2.143 -11.880   4.160  0.00  0.00    -0.294 N 
ATOM     27  C   UNL     1       0.790 -11.942   4.343  0.00  0.00    +0.300 C 
ATOM     28  O   UNL     1       0.141 -12.964   4.229  0.00  0.00    -0.253 OA
ATOM     29  N   UNL     1       0.251 -10.732   4.652  0.00  0.00    -0.294 N 
ATOM     30  H   UNL     1       2.765 -12.623   4.112  0.00  0.00    +0.151 HD
ATOM     31  H   UNL     1      -0.688 -10.489   4.638  0.00  0.00    +0.151 HD
ENDBRANCH  20  21
ENDBRANCH  19  20
ENDBRANCH  18  19
ENDBRANCH  17  18
ENDBRANCH   2  17
TORSDOF 9
