REMARK  Name = ZINC39775876
REMARK  12 active torsions:
REMARK  status: ('A' for Active; 'I' for Inactive)
REMARK    1  A    between atoms: C_1  and  C_2
REMARK    2  A    between atoms: C_5  and  N_8
REMARK    3  A    between atoms: N_11  and  C_12
REMARK    4  A    between atoms: N_11  and  O_39
REMARK    5  A    between atoms: C_14  and  C_37
REMARK    6  A    between atoms: C_14  and  C_38
REMARK    7  A    between atoms: N_15  and  C_26
REMARK    8  A    between atoms: N_18  and  C_19
REMARK    9  A    between atoms: C_22  and  C_25
REMARK   10  A    between atoms: C_26  and  C_27
REMARK   11  A    between atoms: N_29  and  N_30
REMARK   12  A    between atoms: C_31  and  C_32
REMARK                            x       y       z     vdW  Elec       q    Type
REMARK                         _______ _______ _______ _____ _____    ______ ____
ROOT
ATOM      1  C   UNL     1      -0.130  -6.946   2.492  0.00  0.00    +0.224 C 
ATOM      2  C   UNL     1      -0.859  -8.275   2.215  0.00  0.00    +0.071 C 
ATOM      3  N   UNL     1       0.154  -9.300   2.509  0.00  0.00    -0.268 N 
ATOM      4  C   UNL     1       1.288  -8.700   2.894  0.00  0.00    +0.312 C 
ATOM      5  O   UNL     1       2.292  -9.315   3.199  0.00  0.00    -0.252 OA
ATOM      6  N   UNL     1       1.216  -7.360   2.915  0.00  0.00    -0.232 N 
ATOM      7  C   UNL     1      -1.293  -8.355   0.750  0.00  0.00    +0.035 C 
ATOM      8  C   UNL     1      -2.065  -8.430   3.143  0.00  0.00    +0.035 C 
ENDROOT
BRANCH   6   9
ATOM      9  C   UNL     1       2.254  -6.494   3.279  0.00  0.00    +0.040 A 
ATOM     10  C   UNL     1       2.018  -5.130   3.381  0.00  0.00    +0.024 A 
ATOM     11  C   UNL     1       3.044  -4.278   3.741  0.00  0.00    +0.005 A 
ATOM     12  C   UNL     1       4.305  -4.783   4.000  0.00  0.00    -0.050 A 
ATOM     13  C   UNL     1       4.543  -6.141   3.899  0.00  0.00    +0.005 A 
ATOM     14  C   UNL     1       3.520  -6.999   3.545  0.00  0.00    +0.024 A 
ATOM     15  C   UNL     1       5.422  -3.851   4.393  0.00  0.00    +0.044 C 
ENDBRANCH   6   9
BRANCH   1  19
ATOM     16  N   UNL     1       0.874  -5.724  -0.826  0.00  0.00    -0.268 N 
ATOM     17  C   UNL     1       0.738  -6.516   0.256  0.00  0.00    +0.331 C 
ATOM     18  O   UNL     1       1.334  -7.574   0.313  0.00  0.00    -0.250 OA
ATOM     19  N   UNL     1      -0.059  -6.135   1.274  0.00  0.00    -0.144 N 
ATOM     20  H   UNL     1       0.453  -4.850  -0.844  0.00  0.00    +0.156 HD
BRANCH  16  25
ATOM     21  C   UNL     1       3.907  -7.501  -5.279  0.00  0.00    +0.044 C 
ATOM     22  C   UNL     1       3.102  -7.029  -4.096  0.00  0.00    -0.050 A 
ATOM     23  C   UNL     1       3.489  -7.375  -2.814  0.00  0.00    +0.005 A 
ATOM     24  C   UNL     1       2.753  -6.944  -1.728  0.00  0.00    +0.023 A 
ATOM     25  C   UNL     1       1.622  -6.162  -1.924  0.00  0.00    +0.035 A 
ATOM     26  C   UNL     1       1.236  -5.816  -3.212  0.00  0.00    +0.023 A 
ATOM     27  C   UNL     1       1.979  -6.246  -4.294  0.00  0.00    +0.005 A 
ENDBRANCH  16  25
BRANCH  19  28
ATOM     28  O   UNL     1      -0.828  -4.951   1.166  0.00  0.00    -0.289 OA
ATOM     29  H   UNL     1      -1.308  -4.719   1.973  0.00  0.00    +0.242 HD
ENDBRANCH  19  28
ENDBRANCH   1  19
BRANCH   3  30
ATOM     30  C   UNL     1      -0.046 -10.747   2.399  0.00  0.00    +0.207 C 
BRANCH  30  31
ATOM     31  C   UNL     1       0.322 -11.201   1.010  0.00  0.00    +0.250 C 
ATOM     32  O   UNL     1       0.712 -10.395   0.192  0.00  0.00    -0.272 OA
ATOM     33  N   UNL     1       0.216 -12.502   0.676  0.00  0.00    -0.206 N 
ATOM     34  H   UNL     1      -0.096 -13.147   1.330  0.00  0.00    +0.177 HD
BRANCH  33  35
ATOM     35  N   UNL     1       0.558 -12.924  -0.616  0.00  0.00    -0.185 NA
ATOM     36  C   UNL     1       0.457 -14.181  -0.938  0.00  0.00    +0.176 C 
BRANCH  36  37
ATOM     37  C   UNL     1       0.814 -14.622  -2.289  0.00  0.00    +0.147 A 
ATOM     38  C   UNL     1       0.750 -15.902  -2.758  0.00  0.00    +0.051 A 
ATOM     39  C   UNL     1       1.183 -15.865  -4.096  0.00  0.00    +0.042 A 
ATOM     40  C   UNL     1       1.488 -14.582  -4.379  0.00  0.00    +0.196 A 
ATOM     41  O   UNL     1       1.259 -13.833  -3.288  0.00  0.00    -0.462 OA
ENDBRANCH  36  37
ENDBRANCH  33  35
ENDBRANCH  30  31
ENDBRANCH   3  30
TORSDOF 8
