REMARK  Name = ZINC20586708
REMARK  9 active torsions:
REMARK  status: ('A' for Active; 'I' for Inactive)
REMARK    1  A    between atoms: C_1  and  O_2
REMARK    2  A    between atoms: O_2  and  C_3
REMARK    3  A    between atoms: C_6  and  C_11
REMARK    4  A    between atoms: C_7  and  O_9
REMARK    5  A    between atoms: O_9  and  C_10
REMARK    6  A    between atoms: C_11  and  C_13
REMARK    7  A    between atoms: C_11  and  N_22
REMARK    8  A    between atoms: C_18  and  O_19
REMARK    9  A    between atoms: O_19  and  C_20
REMARK                            x       y       z     vdW  Elec       q    Type
REMARK                         _______ _______ _______ _____ _____    ______ ____
ROOT
ATOM      1  C   UNL     1      -2.000   2.476   3.501  0.00  0.00    -0.006 C 
ENDROOT
BRANCH   1   2
ATOM      2  C   UNL     1      -0.921   2.081   4.476  0.00  0.00    -0.015 A 
ATOM      3  C   UNL     1      -0.834   2.711   5.703  0.00  0.00    +0.021 A 
ATOM      4  C   UNL     1       0.153   2.345   6.600  0.00  0.00    +0.018 A 
ATOM      5  C   UNL     1       1.062   1.356   6.267  0.00  0.00    +0.019 A 
ATOM      6  C   UNL     1       0.982   0.728   5.039  0.00  0.00    +0.047 A 
ATOM      7  C   UNL     1      -0.011   1.090   4.140  0.00  0.00    +0.122 A 
ATOM      8 BR   UNL     1       0.266   3.203   8.282  0.00  0.00    -0.050 Br
BRANCH   7   9
ATOM      9  O   UNL     1      -0.092   0.474   2.931  0.00  0.00    -0.495 OA
ATOM     10  C   UNL     1       0.879  -0.538   2.653  0.00  0.00    +0.277 C 
ENDBRANCH   7   9
ENDBRANCH   1   2
BRANCH   1  14
ATOM     11  C   UNL     1      -0.367   5.121   0.562  0.00  0.00    +0.124 A 
ATOM     12  C   UNL     1      -1.006   5.632   1.684  0.00  0.00    +0.046 A 
ATOM     13  C   UNL     1      -1.532   4.776   2.631  0.00  0.00    +0.009 A 
ATOM     14  C   UNL     1      -1.425   3.408   2.465  0.00  0.00    -0.016 A 
ATOM     15  C   UNL     1      -0.787   2.892   1.346  0.00  0.00    +0.125 A 
ATOM     16  C   UNL     1      -0.253   3.749   0.397  0.00  0.00    +0.091 A 
BRANCH  11  18
ATOM     17  C   UNL     1       0.001   7.365  -0.130  0.00  0.00    +0.277 C 
ATOM     18  O   UNL     1       0.150   5.964  -0.369  0.00  0.00    -0.495 OA
ENDBRANCH  11  18
BRANCH  15  19
ATOM     19  O   UNL     1      -0.682   1.547   1.184  0.00  0.00    -0.495 OA
ATOM     20  C   UNL     1      -0.013   1.086   0.008  0.00  0.00    +0.277 C 
ENDBRANCH  15  19
ENDBRANCH   1  14
BRANCH   1  21
ATOM     21  N   UNL     1      -3.086   3.155   4.221  0.00  0.00    +0.385 N 
ATOM     22  H   UNL     1      -3.506   2.475   4.977  0.00  0.00    -0.089 HD
ATOM     23  H   UNL     1      -3.874   3.443   3.509  0.00  0.00    -0.089 HD
ATOM     24  H   UNL     1      -2.692   4.055   4.716  0.00  0.00    -0.089 HD
ENDBRANCH   1  21
TORSDOF 6
