REMARK  Name = ZINC23820123
REMARK  9 active torsions:
REMARK  status: ('A' for Active; 'I' for Inactive)
REMARK    1  A    between atoms: C_6  and  O_7
REMARK    2  A    between atoms: O_7  and  C_8
REMARK    3  A    between atoms: C_13  and  O_19
REMARK    4  A    between atoms: O_19  and  C_20
REMARK    5  A    between atoms: C_22  and  O_35
REMARK    6  A    between atoms: C_24  and  O_34
REMARK    7  A    between atoms: C_26  and  O_33
REMARK    8  A    between atoms: C_28  and  C_31
REMARK    9  A    between atoms: C_31  and  O_32
REMARK                            x       y       z     vdW  Elec       q    Type
REMARK                         _______ _______ _______ _____ _____    ______ ____
ROOT
ATOM      1  C   UNL     1      -2.456   5.287   0.361  0.00  0.00    +0.210 A 
ATOM      2  C   UNL     1      -1.301   5.856   0.760  0.00  0.00    +0.245 A 
ATOM      3  O   UNL     1      -0.208   5.142   1.062  0.00  0.00    -0.459 OA
ATOM      4  C   UNL     1      -0.181   3.796   0.988  0.00  0.00    +0.142 A 
ATOM      5  C   UNL     1       0.968   3.086   1.307  0.00  0.00    +0.092 A 
ATOM      6  C   UNL     1       0.967   1.704   1.223  0.00  0.00    +0.128 A 
ATOM      7  C   UNL     1      -0.177   1.019   0.819  0.00  0.00    +0.047 A 
ATOM      8  C   UNL     1      -1.314   1.703   0.496  0.00  0.00    +0.019 A 
ATOM      9  C   UNL     1      -1.331   3.096   0.582  0.00  0.00    +0.068 A 
ATOM     10  C   UNL     1      -2.539   3.870   0.248  0.00  0.00    +0.234 A 
ATOM     11  O   UNL     1      -3.567   3.321  -0.110  0.00  0.00    -0.283 OA
ENDROOT
BRANCH   1  12
ATOM     12  O   UNL     1      -3.535   6.063   0.068  0.00  0.00    -0.449 OA
BRANCH  12  18
ATOM     13  C   UNL     1      -3.693   8.042   1.379  0.00  0.00    +0.049 A 
ATOM     14  C   UNL     1      -3.551   9.412   1.491  0.00  0.00    +0.042 A 
ATOM     15  C   UNL     1      -3.130  10.156   0.402  0.00  0.00    +0.124 A 
ATOM     16  C   UNL     1      -2.844   9.528  -0.799  0.00  0.00    +0.042 A 
ATOM     17  C   UNL     1      -2.979   8.158  -0.912  0.00  0.00    +0.049 A 
ATOM     18  C   UNL     1      -3.402   7.411   0.178  0.00  0.00    +0.129 A 
ATOM     19  F   UNL     1      -2.998  11.496   0.511  0.00  0.00    -0.205 F 
ENDBRANCH  12  18
ENDBRANCH   1  12
BRANCH   6  20
ATOM     20  O   UNL     1       2.091   1.010   1.535  0.00  0.00    -0.461 OA
BRANCH  20  21
ATOM     21  C   UNL     1       2.026  -0.413   1.427  0.00  0.00    +0.339 C 
ATOM     22  C   UNL     1       3.410  -1.009   1.697  0.00  0.00    +0.214 C 
ATOM     23  C   UNL     1       3.833  -0.671   3.130  0.00  0.00    +0.180 C 
ATOM     24  C   UNL     1       2.773  -1.198   4.102  0.00  0.00    +0.177 C 
ATOM     25  C   UNL     1       1.414  -0.595   3.739  0.00  0.00    +0.179 C 
ATOM     26  O   UNL     1       1.095  -0.922   2.385  0.00  0.00    -0.331 OA
BRANCH  24  27
ATOM     27  O   UNL     1       2.704  -2.623   4.006  0.00  0.00    -0.386 OA
ATOM     28  H   UNL     1       1.995  -3.183   4.633  0.00  0.00    +0.210 HD
ENDBRANCH  24  27
BRANCH  23  29
ATOM     29  O   UNL     1       3.950   0.746   3.274  0.00  0.00    -0.386 OA
ATOM     30  H   UNL     1       4.246   1.179   4.241  0.00  0.00    +0.210 HD
ENDBRANCH  23  29
BRANCH  22  31
ATOM     31  O   UNL     1       4.355  -0.458   0.778  0.00  0.00    -0.383 OA
ATOM     32  H   UNL     1       5.409  -0.770   0.819  0.00  0.00    +0.210 HD
ENDBRANCH  22  31
BRANCH  25  33
ATOM     33  C   UNL     1       0.339  -1.164   4.668  0.00  0.00    +0.190 C 
BRANCH  33  34
ATOM     34  O   UNL     1      -0.908  -0.516   4.406  0.00  0.00    -0.392 OA
ATOM     35  H   UNL     1      -1.804  -0.795   4.980  0.00  0.00    +0.210 HD
ENDBRANCH  33  34
ENDBRANCH  25  33
ENDBRANCH  20  21
ENDBRANCH   6  20
TORSDOF 9
