REMARK  Name = ZINC02662689
REMARK  11 active torsions:
REMARK  status: ('A' for Active; 'I' for Inactive)
REMARK    1  A    between atoms: C_6  and  C_7
REMARK    2  A    between atoms: C_7  and  C_8
REMARK    3  A    between atoms: C_7  and  O_15
REMARK    4  A    between atoms: O_15  and  C_16
REMARK    5  A    between atoms: C_16  and  C_17
REMARK    6  A    between atoms: C_17  and  C_19
REMARK    7  A    between atoms: C_17  and  O_32
REMARK    8  A    between atoms: C_19  and  N_59
REMARK    9  A    between atoms: C_20  and  C_21
REMARK   10  A    between atoms: C_20  and  N_59
REMARK   11  A    between atoms: C_21  and  C_22
REMARK                            x       y       z     vdW  Elec       q    Type
REMARK                         _______ _______ _______ _____ _____    ______ ____
ROOT
ATOM      1  C   UNL     1       7.187  -2.684  -2.878  0.00  0.00    +0.123 C 
ENDROOT
BRANCH   1   2
ATOM      2  O   UNL     1       8.168  -1.898  -2.199  0.00  0.00    -0.391 OA
ATOM      3  H   UNL     1       8.333  -1.037  -2.607  0.00  0.00    +0.210 HD
ENDBRANCH   1   2
BRANCH   1   4
ATOM      4  C   UNL     1       7.646  -2.945  -4.314  0.00  0.00    +0.190 C 
BRANCH   4   5
ATOM      5  O   UNL     1       8.829  -3.748  -4.297  0.00  0.00    -0.365 OA
BRANCH   5   6
ATOM      6  C   UNL     1       9.343  -4.051  -5.595  0.00  0.00    +0.178 C 
BRANCH   6  12
ATOM      7  C   UNL     1      11.200  -2.452  -5.083  0.00  0.00    +0.009 A 
ATOM      8  C   UNL     1      12.100  -1.476  -5.464  0.00  0.00    +0.039 A 
ATOM      9  C   UNL     1      12.116  -1.020  -6.771  0.00  0.00    +0.123 A 
ATOM     10  C   UNL     1      11.232  -1.548  -7.697  0.00  0.00    +0.039 A 
ATOM     11  C   UNL     1      10.336  -2.528  -7.316  0.00  0.00    +0.009 A 
ATOM     12  C   UNL     1      10.321  -2.982  -6.010  0.00  0.00    -0.014 A 
ATOM     13  F   UNL     1      12.993  -0.062  -7.143  0.00  0.00    -0.205 F 
ENDBRANCH   6  12
BRANCH   6  14
ATOM     14  C   UNL     1      10.043  -5.385  -5.559  0.00  0.00    -0.014 A 
ATOM     15  C   UNL     1      10.744  -5.767  -4.431  0.00  0.00    +0.009 A 
ATOM     16  C   UNL     1      11.381  -6.993  -4.395  0.00  0.00    +0.039 A 
ATOM     17  C   UNL     1      11.327  -7.834  -5.494  0.00  0.00    +0.123 A 
ATOM     18  C   UNL     1      10.628  -7.448  -6.625  0.00  0.00    +0.039 A 
ATOM     19  C   UNL     1       9.987  -6.224  -6.657  0.00  0.00    +0.009 A 
ATOM     20  F   UNL     1      11.954  -9.030  -5.461  0.00  0.00    -0.205 F 
ENDBRANCH   6  14
ENDBRANCH   5   6
ENDBRANCH   4   5
ENDBRANCH   1   4
BRANCH   1  21
ATOM     21  C   UNL     1       5.855  -1.932  -2.897  0.00  0.00    -0.049 C 
BRANCH  21  22
ATOM     22  N   UNL     1       5.419  -1.685  -1.510  0.00  0.00    +0.381 N 
ATOM     23  H   UNL     1       6.130  -1.123  -1.026  0.00  0.00    -0.086 HD
ATOM     24  H   UNL     1       5.306  -2.583  -1.025  0.00  0.00    -0.086 HD
BRANCH  22  25
ATOM     25  C   UNL     1       4.135  -0.959  -1.498  0.00  0.00    -0.078 C 
BRANCH  25  26
ATOM     26  C   UNL     1       3.709  -0.717  -0.048  0.00  0.00    +0.016 C 
BRANCH  26  27
ATOM     27  C   UNL     1       2.397   0.024  -0.027  0.00  0.00    -0.045 A 
ATOM     28  C   UNL     1       1.207  -0.680  -0.016  0.00  0.00    +0.007 A 
ATOM     29  C   UNL     1       0.002  -0.004   0.002  0.00  0.00    +0.050 A 
ATOM     30  C   UNL     1      -0.017   1.383   0.010  0.00  0.00    +0.162 A 
ATOM     31  C   UNL     1       1.179   2.090   0.002  0.00  0.00    +0.162 A 
ATOM     32  C   UNL     1       2.385   1.406  -0.018  0.00  0.00    +0.053 A 
ATOM     33  O   UNL     1       1.184   3.451   0.018  0.00  0.00    -0.485 OA
ATOM     34  C   UNL     1      -0.040   4.103  -0.340  0.00  0.00    +0.270 C 
ATOM     35  C   UNL     1      -1.189   3.413   0.408  0.00  0.00    +0.270 C 
ATOM     36  O   UNL     1      -1.212   2.035   0.019  0.00  0.00    -0.485 OA
ENDBRANCH  26  27
ENDBRANCH  25  26
ENDBRANCH  22  25
ENDBRANCH  21  22
ENDBRANCH   1  21
TORSDOF 11
