REMARK  Name = ZINC36606158
REMARK  17 active torsions:
REMARK  status: ('A' for Active; 'I' for Inactive)
REMARK    1  A    between atoms: C_1  and  C_2
REMARK    2  A    between atoms: C_2  and  C_3
REMARK    3  A    between atoms: C_3  and  C_4
REMARK    4  A    between atoms: C_4  and  C_5
REMARK    5  A    between atoms: C_5  and  C_6
REMARK    6  A    between atoms: C_7  and  C_8
REMARK    7  A    between atoms: N_10  and  C_11
REMARK    8  A    between atoms: N_10  and  C_17
REMARK    9  A    between atoms: C_17  and  C_19
REMARK   10  A    between atoms: C_17  and  C_28
REMARK   11  A    between atoms: C_20  and  O_27
REMARK   12  A    between atoms: C_22  and  O_26
REMARK   13  A    between atoms: C_24  and  O_25
REMARK   14  A    between atoms: N_30  and  C_31
REMARK   15  A    between atoms: C_31  and  C_32
REMARK   16  A    between atoms: C_31  and  C_33
REMARK   17  A    between atoms: C_31  and  C_34
REMARK                            x       y       z     vdW  Elec       q    Type
REMARK                         _______ _______ _______ _____ _____    ______ ____
ROOT
ATOM      1  C   UNL     1       6.342  -3.893   2.523  0.00  0.00    +0.204 C 
ENDROOT
BRANCH   1   2
ATOM      2  C   UNL     1       7.475  -4.885   2.468  0.00  0.00    +0.065 A 
ATOM      3  C   UNL     1       7.507  -5.846   1.468  0.00  0.00    +0.129 A 
ATOM      4  C   UNL     1       8.549  -6.760   1.418  0.00  0.00    +0.091 A 
ATOM      5  C   UNL     1       9.560  -6.711   2.366  0.00  0.00    +0.124 A 
ATOM      6  C   UNL     1       9.529  -5.750   3.364  0.00  0.00    +0.091 A 
ATOM      7  C   UNL     1       8.489  -4.834   3.413  0.00  0.00    +0.129 A 
BRANCH   7   8
ATOM      8  O   UNL     1       8.460  -3.889   4.388  0.00  0.00    -0.506 OA
ATOM      9  H   UNL     1       7.996  -4.165   5.190  0.00  0.00    +0.292 HD
ENDBRANCH   7   8
BRANCH   5  10
ATOM     10  O   UNL     1      10.581  -7.607   2.317  0.00  0.00    -0.507 OA
ATOM     11  H   UNL     1      11.335  -7.315   1.786  0.00  0.00    +0.292 HD
ENDBRANCH   5  10
BRANCH   3  12
ATOM     12  O   UNL     1       6.516  -5.894   0.539  0.00  0.00    -0.506 OA
ATOM     13  H   UNL     1       6.720  -5.419  -0.278  0.00  0.00    +0.292 HD
ENDBRANCH   3  12
ENDBRANCH   1   2
BRANCH   1  14
ATOM     14  C   UNL     1       6.321  -3.083   1.252  0.00  0.00    +0.239 C 
ATOM     15  O   UNL     1       5.342  -3.103   0.537  0.00  0.00    -0.273 OA
ATOM     16  N   UNL     1       7.391  -2.338   0.910  0.00  0.00    -0.309 N 
ATOM     17  H   UNL     1       8.174  -2.323   1.482  0.00  0.00    +0.149 HD
BRANCH  16  18
ATOM     18  C   UNL     1       7.370  -1.551  -0.325  0.00  0.00    +0.026 C 
ATOM     19  C   UNL     1       6.220  -0.543  -0.269  0.00  0.00    +0.031 C 
ATOM     20  C   UNL     1       8.697  -0.803  -0.476  0.00  0.00    +0.031 C 
ATOM     21  C   UNL     1       7.173  -2.484  -1.522  0.00  0.00    +0.031 C 
ENDBRANCH  16  18
ENDBRANCH   1  14
BRANCH   1  24
ATOM     22  C   UNL     1       3.916  -3.921   2.747  0.00  0.00    +0.244 C 
ATOM     23  O   UNL     1       3.933  -2.706   2.791  0.00  0.00    -0.270 OA
ATOM     24  N   UNL     1       5.072  -4.609   2.667  0.00  0.00    -0.252 N 
BRANCH  24  25
ATOM     25  C   UNL     1       5.060  -6.006   2.721  0.00  0.00    +0.038 A 
ATOM     26  C   UNL     1       4.388  -6.735   1.747  0.00  0.00    +0.023 A 
ATOM     27  C   UNL     1       4.378  -8.114   1.804  0.00  0.00    +0.002 A 
ATOM     28  C   UNL     1       5.035  -8.771   2.828  0.00  0.00    +0.000 A 
ATOM     29  C   UNL     1       5.704  -8.049   3.799  0.00  0.00    +0.002 A 
ATOM     30  C   UNL     1       5.724  -6.669   3.745  0.00  0.00    +0.023 A 
ENDBRANCH  24  25
BRANCH  22  32
ATOM     31  C   UNL     1       1.490  -3.964   2.718  0.00  0.00    -0.022 C 
ATOM     32  C   UNL     1       2.634  -4.640   2.781  0.00  0.00    +0.063 C 
BRANCH  31  33
ATOM     33  C   UNL     1       1.486  -2.533   2.244  0.00  0.00    +0.027 C 
BRANCH  33  34
ATOM     34  C   UNL     1       0.441  -2.364   1.140  0.00  0.00    +0.004 C 
BRANCH  34  35
ATOM     35  C   UNL     1       0.437  -0.911   0.659  0.00  0.00    +0.000 C 
BRANCH  35  37
ATOM     36  C   UNL     1      -0.612   0.710  -0.926  0.00  0.00    +0.004 C 
ATOM     37  C   UNL     1      -0.608  -0.742  -0.445  0.00  0.00    -0.003 C 
ENDBRANCH  35  37
ENDBRANCH  34  35
ENDBRANCH  33  34
ENDBRANCH  31  33
ENDBRANCH  22  32
ENDBRANCH   1  24
TORSDOF 13
