REMARK  Name = ZINC63385753
REMARK  6 active torsions:
REMARK  status: ('A' for Active; 'I' for Inactive)
REMARK    1  A    between atoms: C_1  and  C_2
REMARK    2  A    between atoms: C_2  and  C_3
REMARK    3  A    between atoms: C_16  and  C_19
REMARK    4  A    between atoms: N_23  and  C_26
REMARK    5  A    between atoms: C_29  and  O_32
REMARK    6  A    between atoms: O_32  and  C_33
REMARK                            x       y       z     vdW  Elec       q    Type
REMARK                         _______ _______ _______ _____ _____    ______ ____
ROOT
ATOM      1  C   UNL     1       0.438  -0.876  -1.887  0.00  0.00    -0.067 C 
ATOM      2  C   UNL     1       0.915  -2.266  -1.425  0.00  0.00    +0.018 C 
ATOM      3  C   UNL     1       1.942  -2.712  -2.436  0.00  0.00    -0.041 C 
ATOM      4  C   UNL     1       3.164  -3.208  -2.312  0.00  0.00    -0.001 A 
ATOM      5  C   UNL     1       3.933  -3.644  -1.134  0.00  0.00    +0.010 A 
ATOM      6  C   UNL     1       5.196  -4.084  -1.373  0.00  0.00    +0.001 A 
ATOM      7  C   UNL     1       5.766  -4.133  -2.649  0.00  0.00    +0.002 A 
ATOM      8  C   UNL     1       5.129  -3.762  -3.788  0.00  0.00    +0.026 A 
ATOM      9  C   UNL     1       3.789  -3.292  -3.667  0.00  0.00    +0.043 A 
ATOM     10  N   UNL     1       2.947  -2.908  -4.582  0.00  0.00    -0.379 N 
ATOM     11  C   UNL     1       1.672  -2.610  -3.934  0.00  0.00    +0.097 C 
ATOM     12  C   UNL     1       1.194  -1.178  -4.181  0.00  0.00    -0.003 C 
ATOM     13  N   UNL     1       0.046  -0.919  -3.297  0.00  0.00    +0.387 N 
ATOM     14  H   UNL     1      -0.640  -1.647  -3.425  0.00  0.00    -0.085 HD
ATOM     15  H   UNL     1       3.134  -2.833  -5.531  0.00  0.00    +0.160 HD
ATOM     16  H   UNL     1      -0.366  -0.033  -3.550  0.00  0.00    -0.085 HD
ENDROOT
BRANCH  12  17
ATOM     17  C   UNL     1       2.307  -0.210  -3.872  0.00  0.00    +0.070 A 
ATOM     18  C   UNL     1       2.912  -0.220  -2.650  0.00  0.00    +0.259 A 
ATOM     19  N   UNL     1       3.924   0.670  -2.390  0.00  0.00    -0.274 N 
ATOM     20  C   UNL     1       4.319   1.546  -3.332  0.00  0.00    +0.337 A 
ATOM     21  N   UNL     1       3.735   1.571  -4.543  0.00  0.00    -0.229 N 
ATOM     22  C   UNL     1       2.741   0.711  -4.841  0.00  0.00    +0.266 A 
ATOM     23  O   UNL     1       2.219   0.734  -5.942  0.00  0.00    -0.267 OA
ATOM     24  O   UNL     1       5.217   2.327  -3.083  0.00  0.00    -0.246 OA
ATOM     25  O   UNL     1       2.518  -1.097  -1.703  0.00  0.00    -0.267 OA
ATOM     26  H   UNL     1       4.357   0.667  -1.522  0.00  0.00    +0.173 HD
BRANCH  21  27
ATOM     27  C   UNL     1       4.167   2.496  -5.506  0.00  0.00    +0.055 A 
ATOM     28  C   UNL     1       5.186   2.156  -6.386  0.00  0.00    +0.030 A 
ATOM     29  C   UNL     1       5.610   3.067  -7.334  0.00  0.00    +0.047 A 
ATOM     30  C   UNL     1       5.020   4.320  -7.405  0.00  0.00    +0.120 A 
ATOM     31  C   UNL     1       4.003   4.660  -6.526  0.00  0.00    +0.047 A 
ATOM     32  C   UNL     1       3.573   3.748  -5.582  0.00  0.00    +0.030 A 
BRANCH  30  33
ATOM     33  O   UNL     1       5.440   5.216  -8.338  0.00  0.00    -0.495 OA
ATOM     34  C   UNL     1       4.788   6.488  -8.355  0.00  0.00    +0.277 C 
ENDBRANCH  30  33
ENDBRANCH  21  27
ENDBRANCH  12  17
BRANCH   1  36
ATOM     35  C   UNL     1      -1.154   0.988  -1.405  0.00  0.00    +0.002 C 
ATOM     36  C   UNL     1      -0.762  -0.445  -1.041  0.00  0.00    -0.019 C 
ENDBRANCH   1  36
TORSDOF 4
