REMARK  Name = ZINC63625931
REMARK  12 active torsions:
REMARK  status: ('A' for Active; 'I' for Inactive)
REMARK    1  A    between atoms: C_1  and  C_2
REMARK    2  A    between atoms: N_4  and  C_5
REMARK    3  A    between atoms: C_11  and  O_39
REMARK    4  A    between atoms: C_12  and  O_37
REMARK    5  A    between atoms: C_13  and  O_35
REMARK    6  A    between atoms: C_20  and  N_23
REMARK    7  A    between atoms: N_23  and  C_24
REMARK    8  A    between atoms: C_24  and  C_25
REMARK    9  A    between atoms: C_25  and  C_26
REMARK   10  A    between atoms: O_35  and  C_36
REMARK   11  A    between atoms: O_37  and  C_38
REMARK   12  A    between atoms: O_39  and  C_40
REMARK                            x       y       z     vdW  Elec       q    Type
REMARK                         _______ _______ _______ _____ _____    ______ ____
ROOT
ATOM      1  C   UNL     1      -0.795  -2.095   0.190  0.00  0.00    +0.104 C 
ATOM      2  C   UNL     1      -2.151  -2.472  -0.374  0.00  0.00    +0.032 C 
ATOM      3  C   UNL     1      -2.452  -3.949  -0.138  0.00  0.00    +0.038 C 
ATOM      4  C   UNL     1      -1.233  -4.774  -0.461  0.00  0.00    -0.032 A 
ATOM      5  C   UNL     1      -1.174  -5.493  -1.637  0.00  0.00    +0.054 A 
ATOM      6  C   UNL     1      -0.053  -6.260  -1.927  0.00  0.00    +0.165 A 
ATOM      7  C   UNL     1       1.014  -6.310  -1.036  0.00  0.00    +0.204 A 
ATOM      8  C   UNL     1       0.962  -5.587   0.149  0.00  0.00    +0.173 A 
ATOM      9  C   UNL     1      -0.167  -4.812   0.431  0.00  0.00    +0.031 A 
ATOM     10  C   UNL     1      -0.217  -4.010   1.690  0.00  0.00    -0.009 A 
ATOM     11  C   UNL     1      -0.586  -2.669   1.577  0.00  0.00    -0.016 A 
ATOM     12  C   UNL     1      -0.776  -1.825   2.607  0.00  0.00    +0.058 A 
ATOM     13  C   UNL     1      -0.657  -1.967   3.959  0.00  0.00    +0.200 A 
ATOM     14  O   UNL     1      -0.988  -0.997   4.627  0.00  0.00    -0.286 OA
ATOM     15  C   UNL     1      -0.210  -3.073   4.678  0.00  0.00    +0.074 A 
ATOM     16  C   UNL     1       0.131  -4.279   4.141  0.00  0.00    +0.027 A 
ATOM     17  C   UNL     1       0.110  -4.664   2.852  0.00  0.00    +0.011 A 
ENDROOT
BRANCH   1  21
ATOM     18  C   UNL     1       0.615   1.463   0.279  0.00  0.00    +0.109 C 
ATOM     19  C   UNL     1       0.512  -0.039   0.210  0.00  0.00    +0.210 C 
ATOM     20  O   UNL     1       1.517  -0.712   0.111  0.00  0.00    -0.276 OA
ATOM     21  N   UNL     1      -0.696  -0.635   0.258  0.00  0.00    -0.309 N 
ATOM     22  H   UNL     1      -1.499  -0.097   0.337  0.00  0.00    +0.149 HD
ENDBRANCH   1  21
BRANCH  15  23
ATOM     23  N   UNL     1      -0.103  -2.937   6.052  0.00  0.00    -0.341 N 
ATOM     24  H   UNL     1      -0.336  -2.095   6.475  0.00  0.00    +0.146 HD
BRANCH  23  25
ATOM     25  C   UNL     1       0.361  -4.062   6.866  0.00  0.00    +0.106 C 
BRANCH  25  26
ATOM     26  C   UNL     1       0.388  -3.650   8.339  0.00  0.00    +0.052 C 
BRANCH  26  27
ATOM     27  C   UNL     1       0.866  -4.808   9.177  0.00  0.00    -0.040 C 
ATOM     28  C   UNL     1       2.130  -5.040   9.598  0.00  0.00    -0.001 A 
ATOM     29  C   UNL     1       3.390  -4.312   9.409  0.00  0.00    +0.010 A 
ATOM     30  C   UNL     1       4.521  -4.803   9.965  0.00  0.00    +0.001 A 
ATOM     31  C   UNL     1       4.520  -5.987  10.715  0.00  0.00    +0.002 A 
ATOM     32  C   UNL     1       3.402  -6.711  10.932  0.00  0.00    +0.026 A 
ATOM     33  C   UNL     1       2.155  -6.288  10.394  0.00  0.00    +0.043 A 
ATOM     34  N   UNL     1       0.953  -6.807  10.463  0.00  0.00    -0.380 N 
ATOM     35  C   UNL     1       0.028  -5.943   9.722  0.00  0.00    +0.144 C 
ATOM     36  H   UNL     1       0.715  -7.623  10.929  0.00  0.00    +0.160 HD
ENDBRANCH  26  27
ENDBRANCH  25  26
ENDBRANCH  23  25
ENDBRANCH  15  23
BRANCH   8  37
ATOM     37  O   UNL     1       2.000  -5.631   1.025  0.00  0.00    -0.491 OA
ATOM     38  C   UNL     1       2.969  -4.584   0.937  0.00  0.00    +0.277 C 
ENDBRANCH   8  37
BRANCH   7  39
ATOM     39  O   UNL     1       2.108  -7.067  -1.324  0.00  0.00    -0.488 OA
ATOM     40  C   UNL     1       3.107  -6.473  -2.154  0.00  0.00    +0.277 C 
ENDBRANCH   7  39
BRANCH   6  41
ATOM     41  O   UNL     1       0.002  -6.965  -3.087  0.00  0.00    -0.491 OA
ATOM     42  C   UNL     1      -1.126  -6.870  -3.958  0.00  0.00    +0.277 C 
ENDBRANCH   6  41
TORSDOF 8
