REMARK  Name = ZINC63796066
REMARK  9 active torsions:
REMARK  status: ('A' for Active; 'I' for Inactive)
REMARK    1  A    between atoms: C_1  and  O_2
REMARK    2  A    between atoms: O_2  and  C_3
REMARK    3  A    between atoms: C_9  and  C_12
REMARK    4  A    between atoms: C_12  and  C_13
REMARK    5  A    between atoms: C_13  and  N_14
REMARK    6  A    between atoms: C_15  and  C_17
REMARK    7  A    between atoms: C_20  and  C_24
REMARK    8  A    between atoms: C_24  and  C_25
REMARK    9  A    between atoms: N_27  and  C_28
REMARK                            x       y       z     vdW  Elec       q    Type
REMARK                         _______ _______ _______ _____ _____    ______ ____
ROOT
ATOM      1  C   UNL     1      -2.337  -8.582  -1.032  0.00  0.00    +0.297 C 
ATOM      2  N   UNL     1      -1.489  -9.748  -1.349  0.00  0.00    -0.265 NA
ATOM      3  C   UNL     1      -2.399 -10.792  -1.878  0.00  0.00    +0.158 C 
ATOM      4  N   UNL     1      -3.727 -10.409  -1.329  0.00  0.00    -0.181 NA
ATOM      5  O   UNL     1      -3.691  -8.928  -1.378  0.00  0.00    -0.270 OA
ATOM      6  H   UNL     1      -0.782  -9.508  -2.027  0.00  0.00    +0.126 HD
ATOM      7  H   UNL     1      -3.834 -10.735  -0.380  0.00  0.00    +0.156 HD
ENDROOT
BRANCH   1   9
ATOM      8  N   UNL     1      -0.716  -6.789  -1.559  0.00  0.00    -0.312 N 
ATOM      9  C   UNL     1      -1.891  -7.389  -1.837  0.00  0.00    +0.259 C 
ATOM     10  O   UNL     1      -2.588  -6.969  -2.737  0.00  0.00    -0.271 OA
ATOM     11  H   UNL     1      -0.159  -7.124  -0.840  0.00  0.00    +0.149 HD
BRANCH   8  12
ATOM     12  C   UNL     1      -0.282  -5.630  -2.342  0.00  0.00    +0.108 C 
BRANCH  12  13
ATOM     13  C   UNL     1       1.073  -5.143  -1.825  0.00  0.00    +0.052 C 
BRANCH  13  20
ATOM     14  C   UNL     1       0.671  -0.619  -1.145  0.00  0.00    +0.121 A 
ATOM     15  C   UNL     1       1.236   0.176  -2.158  0.00  0.00    +0.047 A 
ATOM     16  C   UNL     1       1.846  -0.352  -3.241  0.00  0.00    +0.029 A 
ATOM     17  C   UNL     1       1.935  -1.809  -3.388  0.00  0.00    +0.043 A 
ATOM     18  N   UNL     1       2.461  -2.564  -4.320  0.00  0.00    -0.380 N 
ATOM     19  C   UNL     1       2.259  -3.970  -3.950  0.00  0.00    +0.144 C 
ATOM     20  C   UNL     1       1.520  -3.951  -2.631  0.00  0.00    -0.040 C 
ATOM     21  C   UNL     1       1.341  -2.647  -2.321  0.00  0.00    +0.002 A 
ATOM     22  C   UNL     1       0.705  -1.972  -1.184  0.00  0.00    +0.055 A 
ATOM     23  H   UNL     1       2.908  -2.248  -5.120  0.00  0.00    +0.160 HD
BRANCH  14  25
ATOM     24  C   UNL     1       0.062   1.422  -0.087  0.00  0.00    +0.277 C 
ATOM     25  O   UNL     1       0.075  -0.007  -0.087  0.00  0.00    -0.495 OA
ENDBRANCH  14  25
ENDBRANCH  13  20
ENDBRANCH  12  13
ENDBRANCH   8  12
ENDBRANCH   1   9
BRANCH   3  26
ATOM     26  C   UNL     1      -1.983 -12.175  -1.373  0.00  0.00    +0.132 C 
BRANCH  26  27
ATOM     27  C   UNL     1      -2.846 -13.227  -2.021  0.00  0.00    +0.220 C 
ATOM     28  O   UNL     1      -3.709 -12.902  -2.810  0.00  0.00    -0.275 OA
ATOM     29  N   UNL     1      -2.659 -14.528  -1.725  0.00  0.00    -0.283 N 
ATOM     30  H   UNL     1      -1.928 -14.794  -1.145  0.00  0.00    +0.155 HD
BRANCH  29  31
ATOM     31  C   UNL     1      -3.521 -15.498  -2.255  0.00  0.00    +0.069 A 
ATOM     32  C   UNL     1      -4.049 -15.338  -3.528  0.00  0.00    +0.029 A 
ATOM     33  C   UNL     1      -4.898 -16.295  -4.049  0.00  0.00    +0.040 A 
ATOM     34  C   UNL     1      -5.223 -17.415  -3.302  0.00  0.00    +0.126 A 
ATOM     35  C   UNL     1      -4.698 -17.579  -2.031  0.00  0.00    +0.078 A 
ATOM     36  C   UNL     1      -3.842 -16.626  -1.508  0.00  0.00    +0.147 A 
ATOM     37  F   UNL     1      -3.325 -16.788  -0.271  0.00  0.00    -0.203 F 
ATOM     38  F   UNL     1      -6.053 -18.349  -3.814  0.00  0.00    -0.205 F 
ENDBRANCH  29  31
ENDBRANCH  26  27
ENDBRANCH   3  26
TORSDOF 8
