REMARK  Name = ZINC22011298
REMARK  11 active torsions:
REMARK  status: ('A' for Active; 'I' for Inactive)
REMARK    1  A    between atoms: C_1  and  C_2
REMARK    2  A    between atoms: C_2  and  C_4
REMARK    3  A    between atoms: C_2  and  N_14
REMARK    4  A    between atoms: C_7  and  S_10
REMARK    5  A    between atoms: S_10  and  N_13
REMARK    6  A    between atoms: N_14  and  C_15
REMARK    7  A    between atoms: N_14  and  C_16
REMARK    8  A    between atoms: C_16  and  C_17
REMARK    9  A    between atoms: C_26  and  C_28
REMARK   10  A    between atoms: C_31  and  O_34
REMARK   11  A    between atoms: O_34  and  C_35
REMARK                            x       y       z     vdW  Elec       q    Type
REMARK                         _______ _______ _______ _____ _____    ______ ____
ROOT
ATOM      1  C   UNL     1      -1.735   3.449   0.092  0.00  0.00    +0.094 A 
ATOM      2  N   UNL     1      -1.975   4.776  -0.077  0.00  0.00    -0.311 N 
ATOM      3  H   UNL     1      -1.508   5.510   0.596  0.00  0.00    +0.170 HD
ATOM      4  C   UNL     1      -2.792   5.181  -1.079  0.00  0.00    +0.266 A 
ATOM      5  O   UNL     1      -3.027   6.364  -1.256  0.00  0.00    -0.267 OA
ATOM      6  C   UNL     1      -3.356   4.207  -1.903  0.00  0.00    +0.102 A 
ATOM      7  C   UNL     1      -3.091   2.839  -1.707  0.00  0.00    +0.086 A 
ATOM      8  N   UNL     1      -2.246   2.533  -0.666  0.00  0.00    -0.235 NA
ATOM      9  C   UNL     1      -3.719   1.967  -2.600  0.00  0.00    +0.044 A 
ATOM     10  C   UNL     1      -4.527   2.463  -3.581  0.00  0.00    +0.022 A 
ATOM     11  S   UNL     1      -4.449   4.224  -3.299  0.00  0.00    -0.081 S 
ENDROOT
BRANCH  10  12
ATOM     12  C   UNL     1      -5.278   1.726  -4.619  0.00  0.00    -0.011 A 
ATOM     13  C   UNL     1      -5.205   0.333  -4.680  0.00  0.00    +0.012 A 
ATOM     14  C   UNL     1      -5.911  -0.350  -5.647  0.00  0.00    +0.046 A 
ATOM     15  C   UNL     1      -6.687   0.345  -6.565  0.00  0.00    +0.120 A 
ATOM     16  C   UNL     1      -6.758   1.731  -6.511  0.00  0.00    +0.046 A 
ATOM     17  C   UNL     1      -6.059   2.422  -5.544  0.00  0.00    +0.012 A 
BRANCH  15  18
ATOM     18  O   UNL     1      -7.377  -0.332  -7.519  0.00  0.00    -0.495 OA
ATOM     19  C   UNL     1      -7.259  -1.756  -7.518  0.00  0.00    +0.277 C 
ENDBRANCH  15  18
ENDBRANCH  10  12
BRANCH   1  20
ATOM     20  C   UNL     1      -0.822   3.023   1.213  0.00  0.00    -0.003 C 
BRANCH  20  21
ATOM     21  N   UNL     1      -0.700   1.560   1.217  0.00  0.00    +0.387 N 
ATOM     22  C   UNL     1      -0.013   1.086   0.008  0.00  0.00    -0.095 C 
ATOM     23  H   UNL     1      -1.715   1.136   1.216  0.00  0.00    -0.081 HD
BRANCH  21  25
ATOM     24  C   UNL     1      -0.814   1.520   3.663  0.00  0.00    -0.008 C 
ATOM     25  C   UNL     1      -0.016   1.091   2.429  0.00  0.00    -0.041 C 
BRANCH  25  26
ATOM     26  C   UNL     1       0.090  -0.412   2.397  0.00  0.00    -0.061 A 
ATOM     27  C   UNL     1      -0.971  -1.170   1.939  0.00  0.00    +0.004 A 
ATOM     28  C   UNL     1      -0.871  -2.549   1.905  0.00  0.00    +0.029 A 
ATOM     29  C   UNL     1       0.285  -3.169   2.339  0.00  0.00    +0.105 A 
ATOM     30  C   UNL     1       1.344  -2.411   2.803  0.00  0.00    +0.029 A 
ATOM     31  C   UNL     1       1.246  -1.032   2.832  0.00  0.00    +0.004 A 
BRANCH  29  32
ATOM     32  S   UNL     1       0.409  -4.926   2.303  0.00  0.00    +0.056 S 
ATOM     33  O   UNL     1      -0.509  -5.378   1.317  0.00  0.00    -0.153 OA
ATOM     34  O   UNL     1       1.795  -5.235   2.251  0.00  0.00    -0.153 OA
BRANCH  32  35
ATOM     35  N   UNL     1      -0.147  -5.487   3.759  0.00  0.00    -0.204 NA
ATOM     36  H   UNL     1      -0.086  -6.585   3.776  0.00  0.00    +0.144 HD
ATOM     37  H   UNL     1      -1.193  -5.175   3.896  0.00  0.00    +0.144 HD
ENDBRANCH  32  35
ENDBRANCH  29  32
ENDBRANCH  25  26
ENDBRANCH  21  25
ENDBRANCH  20  21
ENDBRANCH   1  20
TORSDOF 8
