REMARK  Name = ZINC19803257
REMARK  6 active torsions:
REMARK  status: ('A' for Active; 'I' for Inactive)
REMARK    1  A    between atoms: C_1  and  C_2
REMARK    2  A    between atoms: C_5  and  N_21
REMARK    3  A    between atoms: C_7  and  N_8
REMARK    4  A    between atoms: C_9  and  C_11
REMARK    5  A    between atoms: C_11  and  C_12
REMARK    6  A    between atoms: C_12  and  N_13
REMARK                            x       y       z     vdW  Elec       q    Type
REMARK                         _______ _______ _______ _____ _____    ______ ____
ROOT
ATOM      1  N   UNL     1       0.002  -0.004   0.002  0.00  0.00    -0.285 N 
ATOM      2  C   UNL     1      -0.016   1.343   0.012  0.00  0.00    +0.219 C 
ATOM      3  O   UNL     1      -1.074   1.936   0.016  0.00  0.00    -0.275 OA
ATOM      4  H   UNL     1       0.957  -0.541  -0.095  0.00  0.00    +0.155 HD
ENDROOT
BRANCH   1  11
ATOM      5  C   UNL     1      -0.086  -2.643  -1.055  0.00  0.00    +0.045 C 
ATOM      6  C   UNL     1      -1.281  -2.013  -0.387  0.00  0.00    -0.029 A 
ATOM      7  C   UNL     1      -2.462  -2.721  -0.276  0.00  0.00    +0.007 A 
ATOM      8  C   UNL     1      -3.560  -2.148   0.335  0.00  0.00    +0.023 A 
ATOM      9  C   UNL     1      -3.480  -0.855   0.840  0.00  0.00    +0.026 A 
ATOM     10  C   UNL     1      -2.294  -0.143   0.734  0.00  0.00    +0.046 A 
ATOM     11  C   UNL     1      -1.194  -0.721   0.115  0.00  0.00    +0.038 A 
BRANCH   9  12
ATOM     12  N   UNL     1      -4.590  -0.276   1.459  0.00  0.00    -0.358 N 
ATOM     13  H   UNL     1      -4.526   0.747   1.859  0.00  0.00    +0.142 HD
ATOM     14  H   UNL     1      -5.529  -0.843   1.547  0.00  0.00    +0.142 HD
ENDBRANCH   9  12
ENDBRANCH   1  11
BRANCH   2  15
ATOM     15  C   UNL     1       1.279   2.114   0.012  0.00  0.00    +0.117 C 
BRANCH  15  16
ATOM     16  C   UNL     1       0.979   3.615   0.024  0.00  0.00    +0.134 C 
BRANCH  16  17
ATOM     17  N   UNL     1       2.238   4.364   0.024  0.00  0.00    -0.314 N 
ATOM     18  C   UNL     1       2.817   4.704   1.205  0.00  0.00    +0.104 A 
ATOM     19  C   UNL     1       3.983   5.392   1.230  0.00  0.00    +0.034 A 
ATOM     20  C   UNL     1       4.598   5.770   0.028  0.00  0.00    +0.022 A 
ATOM     21  C   UNL     1       4.012   5.433  -1.157  0.00  0.00    +0.071 A 
ATOM     22  C   UNL     1       2.805   4.713  -1.146  0.00  0.00    +0.251 A 
ATOM     23  O   UNL     1       2.270   4.404  -2.199  0.00  0.00    -0.268 OA
ATOM     24 BR   UNL     1       4.777   5.849   2.884  0.00  0.00    -0.049 Br
ENDBRANCH  16  17
ENDBRANCH  15  16
ENDBRANCH   2  15
TORSDOF 5
