REMARK  Name = ZINC63852305
REMARK  6 active torsions:
REMARK  status: ('A' for Active; 'I' for Inactive)
REMARK    1  A    between atoms: C_1  and  C_2
REMARK    2  A    between atoms: C_2  and  N_3
REMARK    3  A    between atoms: C_7  and  C_9
REMARK    4  A    between atoms: C_9  and  N_10
REMARK    5  A    between atoms: C_11  and  C_13
REMARK    6  A    between atoms: C_13  and  N_14
REMARK                            x       y       z     vdW  Elec       q    Type
REMARK                         _______ _______ _______ _____ _____    ______ ____
ROOT
ATOM      1  N   UNL     1       2.137  -7.678  -5.607  0.00  0.00    -0.215 N 
ATOM      2  C   UNL     1       3.117  -8.514  -5.200  0.00  0.00    +0.251 C 
ATOM      3  O   UNL     1       4.193  -8.212  -4.730  0.00  0.00    -0.272 OA
ATOM      4  C   UNL     1       2.586  -9.900  -5.455  0.00  0.00    +0.138 C 
ATOM      5  C   UNL     1       2.517 -10.715  -4.157  0.00  0.00    +0.045 C 
ATOM      6  C   UNL     1       3.846 -11.503  -4.196  0.00  0.00    +0.038 C 
ATOM      7  C   UNL     1       4.207 -11.601  -5.663  0.00  0.00    -0.042 A 
ATOM      8  C   UNL     1       3.479 -10.673  -6.388  0.00  0.00    -0.012 A 
ATOM      9  C   UNL     1       3.651 -10.585  -7.760  0.00  0.00    +0.006 A 
ATOM     10  C   UNL     1       4.545 -11.418  -8.404  0.00  0.00    +0.000 A 
ATOM     11  C   UNL     1       5.272 -12.343  -7.680  0.00  0.00    +0.000 A 
ATOM     12  C   UNL     1       5.102 -12.434  -6.312  0.00  0.00    +0.004 A 
ATOM     13  N   UNL     1       1.256  -9.687  -6.025  0.00  0.00    -0.281 N 
ATOM     14  C   UNL     1       1.076  -8.352  -6.071  0.00  0.00    +0.310 C 
ATOM     15  O   UNL     1       0.067  -7.819  -6.489  0.00  0.00    -0.252 OA
ATOM     16  H   UNL     1       0.628 -10.370  -6.309  0.00  0.00    +0.152 HD
ENDROOT
BRANCH   1  17
ATOM     17  C   UNL     1       2.221  -6.217  -5.543  0.00  0.00    +0.213 C 
BRANCH  17  19
ATOM     18  N   UNL     1       1.673  -4.423  -3.930  0.00  0.00    -0.314 N 
ATOM     19  C   UNL     1       1.694  -5.741  -4.215  0.00  0.00    +0.231 C 
ATOM     20  O   UNL     1       1.287  -6.543  -3.401  0.00  0.00    -0.274 OA
ATOM     21  H   UNL     1       1.998  -3.782  -4.581  0.00  0.00    +0.149 HD
BRANCH  18  22
ATOM     22  C   UNL     1       1.161  -3.960  -2.638  0.00  0.00    +0.106 C 
BRANCH  22  27
ATOM     23  N   UNL     1       0.690  -0.478  -1.207  0.00  0.00    +0.380 N 
ATOM     24  C   UNL     1       2.097  -0.062  -1.162  0.00  0.00    -0.079 C 
ATOM     25  C   UNL     1       2.798  -0.483  -2.455  0.00  0.00    -0.018 C 
ATOM     26  C   UNL     1       2.718  -2.005  -2.601  0.00  0.00    +0.001 C 
ATOM     27  C   UNL     1       1.248  -2.434  -2.572  0.00  0.00    -0.011 C 
ATOM     28  C   UNL     1       0.605  -1.942  -1.274  0.00  0.00    -0.074 C 
ATOM     29  H   UNL     1       0.249  -0.078  -2.022  0.00  0.00    -0.082 HD
BRANCH  23  31
ATOM     30  C   UNL     1      -0.019   1.526   0.010  0.00  0.00    -0.017 C 
ATOM     31  C   UNL     1       0.002  -0.004   0.002  0.00  0.00    -0.082 C 
ENDBRANCH  23  31
ENDBRANCH  22  27
ENDBRANCH  18  22
ENDBRANCH  17  19
ENDBRANCH   1  17
TORSDOF 5
