REMARK  Name = ZINC16958609
REMARK  10 active torsions:
REMARK  status: ('A' for Active; 'I' for Inactive)
REMARK    1  A    between atoms: C_1  and  O_2
REMARK    2  A    between atoms: O_2  and  C_3
REMARK    3  A    between atoms: C_6  and  C_9
REMARK    4  A    between atoms: N_12  and  C_18
REMARK    5  A    between atoms: C_15  and  C_16
REMARK    6  A    between atoms: C_20  and  O_33
REMARK    7  A    between atoms: C_22  and  O_32
REMARK    8  A    between atoms: C_24  and  O_31
REMARK    9  A    between atoms: C_26  and  C_29
REMARK   10  A    between atoms: C_29  and  O_30
REMARK                            x       y       z     vdW  Elec       q    Type
REMARK                         _______ _______ _______ _____ _____    ______ ____
ROOT
ATOM      1  C   UNL     1      -1.617   5.875  -4.918  0.00  0.00    +0.007 A 
ATOM      2  C   UNL     1      -2.030   6.449  -3.695  0.00  0.00    -0.019 A 
ATOM      3  C   UNL     1      -1.392   6.126  -2.547  0.00  0.00    +0.026 A 
ATOM      4  N   UNL     1      -0.347   5.248  -2.554  0.00  0.00    -0.309 N 
ATOM      5  C   UNL     1       0.092   4.677  -3.687  0.00  0.00    +0.107 A 
ATOM      6  S   UNL     1       1.412   3.587  -3.641  0.00  0.00    -0.031 S 
ATOM      7  C   UNL     1      -0.541   4.973  -4.918  0.00  0.00    +0.091 A 
ATOM      8  C   UNL     1      -2.017   6.865  -1.380  0.00  0.00    +0.054 C 
ATOM      9  C   UNL     1      -2.831   8.010  -2.019  0.00  0.00    +0.011 C 
ATOM     10  C   UNL     1      -3.145   7.436  -3.418  0.00  0.00    +0.038 C 
ENDROOT
BRANCH   1  14
ATOM     11  C   UNL     1      -3.598   6.867  -8.543  0.00  0.00    +0.120 A 
ATOM     12  C   UNL     1      -2.267   7.224  -8.360  0.00  0.00    +0.046 A 
ATOM     13  C   UNL     1      -1.621   6.904  -7.187  0.00  0.00    +0.012 A 
ATOM     14  C   UNL     1      -2.306   6.221  -6.179  0.00  0.00    -0.016 A 
ATOM     15  C   UNL     1      -3.642   5.859  -6.368  0.00  0.00    +0.012 A 
ATOM     16  C   UNL     1      -4.282   6.188  -7.543  0.00  0.00    +0.046 A 
BRANCH  11  18
ATOM     17  C   UNL     1      -5.598   6.787  -9.823  0.00  0.00    +0.277 C 
ATOM     18  O   UNL     1      -4.231   7.184  -9.702  0.00  0.00    -0.495 OA
ENDBRANCH  11  18
ENDBRANCH   1  14
BRANCH   4  19
ATOM     19  C   UNL     1       0.318   4.925  -1.289  0.00  0.00    +0.252 C 
ATOM     20  C   UNL     1       1.670   5.640  -1.226  0.00  0.00    +0.195 C 
ATOM     21  C   UNL     1       2.386   5.250   0.071  0.00  0.00    +0.178 C 
ATOM     22  C   UNL     1       2.530   3.726   0.122  0.00  0.00    +0.177 C 
ATOM     23  C   UNL     1       1.145   3.085   0.008  0.00  0.00    +0.177 C 
ATOM     24  O   UNL     1       0.522   3.514  -1.205  0.00  0.00    -0.346 OA
BRANCH  22  25
ATOM     25  O   UNL     1       3.132   3.345   1.361  0.00  0.00    -0.386 OA
ATOM     26  H   UNL     1       4.014   3.716   1.501  0.00  0.00    +0.210 HD
ENDBRANCH  22  25
BRANCH  21  27
ATOM     27  O   UNL     1       3.680   5.854   0.103  0.00  0.00    -0.386 OA
ATOM     28  H   UNL     1       4.190   5.649   0.899  0.00  0.00    +0.210 HD
ENDBRANCH  21  27
BRANCH  20  29
ATOM     29  O   UNL     1       1.465   7.054  -1.253  0.00  0.00    -0.385 OA
ATOM     30  H   UNL     1       2.281   7.571  -1.217  0.00  0.00    +0.210 HD
ENDBRANCH  20  29
BRANCH  23  31
ATOM     31  C   UNL     1       1.286   1.562  -0.002  0.00  0.00    +0.190 C 
BRANCH  31  32
ATOM     32  O   UNL     1      -0.011   0.963   0.007  0.00  0.00    -0.392 OA
ATOM     33  H   UNL     1       0.002  -0.004   0.002  0.00  0.00    +0.210 HD
ENDBRANCH  31  32
ENDBRANCH  23  31
ENDBRANCH   4  19
BRANCH   7  34
ATOM     34  C   UNL     1      -0.091   4.369  -6.136  0.00  0.00    +0.102 C 
ATOM     35  N   UNL     1       0.265   3.891  -7.103  0.00  0.00    -0.191 NA
ENDBRANCH   7  34
TORSDOF 9
