REMARK  Name = ZINC02638565
REMARK  10 active torsions:
REMARK  status: ('A' for Active; 'I' for Inactive)
REMARK    1  A    between atoms: C_1  and  C_2
REMARK    2  A    between atoms: C_2  and  C_4
REMARK    3  A    between atoms: C_2  and  O_11
REMARK    4  A    between atoms: O_11  and  C_12
REMARK    5  A    between atoms: C_12  and  C_13
REMARK    6  A    between atoms: C_13  and  C_15
REMARK    7  A    between atoms: C_13  and  O_32
REMARK    8  A    between atoms: C_15  and  N_56
REMARK    9  A    between atoms: N_18  and  S_21
REMARK   10  A    between atoms: S_21  and  C_24
REMARK                            x       y       z     vdW  Elec       q    Type
REMARK                         _______ _______ _______ _____ _____    ______ ____
ROOT
ATOM      1  C   UNL     1       6.041   1.830  -2.127  0.00  0.00    -0.061 C 
ATOM      2  C   UNL     1       7.242   2.760  -1.927  0.00  0.00    +0.091 C 
ATOM      3  N   UNL     1       8.469   2.014  -2.245  0.00  0.00    -0.180 NA
ATOM      4  C   UNL     1       8.674   0.706  -1.604  0.00  0.00    +0.091 C 
ATOM      5  C   UNL     1       7.417  -0.143  -1.817  0.00  0.00    -0.061 C 
ATOM      6  N   UNL     1       6.245   0.609  -1.317  0.00  0.00    +0.383 N 
ATOM      7  H   UNL     1       6.416   0.881  -0.342  0.00  0.00    -0.082 HD
ENDROOT
BRANCH   3   8
ATOM      8  S   UNL     1       9.589   2.630  -3.297  0.00  0.00    +0.062 S 
ATOM      9  O   UNL     1      10.195   1.518  -3.943  0.00  0.00    -0.153 OA
ATOM     10  O   UNL     1       8.941   3.669  -4.018  0.00  0.00    -0.153 OA
BRANCH   8  11
ATOM     11  C   UNL     1      10.847   3.397  -2.330  0.00  0.00    +0.125 A 
ATOM     12  C   UNL     1      12.129   2.881  -2.329  0.00  0.00    +0.050 A 
ATOM     13  C   UNL     1      13.117   3.486  -1.573  0.00  0.00    +0.043 A 
ATOM     14  C   UNL     1      12.819   4.602  -0.811  0.00  0.00    +0.021 A 
ATOM     15  C   UNL     1      11.536   5.114  -0.808  0.00  0.00    +0.023 A 
ATOM     16  C   UNL     1      10.549   4.512  -1.568  0.00  0.00    +0.067 A 
ATOM     17 CL   UNL     1       8.937   5.156  -1.564  0.00  0.00    -0.082 Cl
ATOM     18 CL   UNL     1      14.729   2.842  -1.576  0.00  0.00    -0.083 Cl
ENDBRANCH   8  11
ENDBRANCH   3   8
BRANCH   6  19
ATOM     19  C   UNL     1       5.038  -0.242  -1.374  0.00  0.00    -0.045 C 
BRANCH  19  20
ATOM     20  C   UNL     1       3.897   0.476  -0.651  0.00  0.00    +0.124 C 
BRANCH  20  21
ATOM     21  O   UNL     1       4.273   0.725   0.705  0.00  0.00    -0.391 OA
ATOM     22  H   UNL     1       4.473  -0.075   1.210  0.00  0.00    +0.210 HD
ENDBRANCH  20  21
BRANCH  20  23
ATOM     23  C   UNL     1       2.644  -0.402  -0.680  0.00  0.00    +0.190 C 
BRANCH  23  24
ATOM     24  O   UNL     1       1.547   0.314  -0.108  0.00  0.00    -0.370 OA
BRANCH  24  26
ATOM     25  C   UNL     1      -0.453  -0.160  -1.380  0.00  0.00    +0.043 C 
ATOM     26  C   UNL     1       0.322  -0.421  -0.086  0.00  0.00    +0.145 C 
BRANCH  26  27
ATOM     27  C   UNL     1      -0.507   0.020   1.093  0.00  0.00    -0.019 A 
ATOM     28  C   UNL     1      -0.559   1.358   1.440  0.00  0.00    +0.007 A 
ATOM     29  C   UNL     1      -1.323   1.764   2.517  0.00  0.00    +0.020 A 
ATOM     30  C   UNL     1      -2.028   0.830   3.256  0.00  0.00    +0.041 A 
ATOM     31  C   UNL     1      -1.972  -0.509   2.912  0.00  0.00    +0.020 A 
ATOM     32  C   UNL     1      -1.211  -0.913   1.830  0.00  0.00    +0.007 A 
ATOM     33 CL   UNL     1      -2.982   1.338   4.614  0.00  0.00    -0.084 Cl
ENDBRANCH  26  27
ENDBRANCH  24  26
ENDBRANCH  23  24
ENDBRANCH  20  23
ENDBRANCH  19  20
ENDBRANCH   6  19
TORSDOF 9
