REMARK  Name = ZINC27193283
REMARK  9 active torsions:
REMARK  status: ('A' for Active; 'I' for Inactive)
REMARK    1  A    between atoms: C_1  and  C_2
REMARK    2  A    between atoms: C_2  and  O_3
REMARK    3  A    between atoms: O_3  and  C_4
REMARK    4  A    between atoms: C_9  and  N_17
REMARK    5  A    between atoms: C_10  and  N_14
REMARK    6  A    between atoms: C_11  and  N_13
REMARK    7  A    between atoms: N_17  and  N_18
REMARK    8  A    between atoms: N_18  and  C_19
REMARK    9  A    between atoms: C_20  and  C_22
REMARK                            x       y       z     vdW  Elec       q    Type
REMARK                         _______ _______ _______ _____ _____    ______ ____
ROOT
ATOM      1  C   UNL     1       3.772   2.840  -5.547  0.00  0.00    +0.406 C 
ATOM      2  O   UNL     1       4.590   1.972  -5.782  0.00  0.00    -0.226 OA
ATOM      3  N   UNL     1       3.102   2.834  -4.378  0.00  0.00    -0.235 N 
ATOM      4  C   UNL     1       3.425   1.902  -3.393  0.00  0.00    +0.131 A 
ATOM      5  C   UNL     1       2.639   1.807  -2.255  0.00  0.00    +0.070 A 
ATOM      6  C   UNL     1       2.971   0.872  -1.276  0.00  0.00    +0.081 A 
ATOM      7  C   UNL     1       4.091   0.068  -1.480  0.00  0.00    +0.188 A 
ATOM      8  C   UNL     1       4.827   0.217  -2.646  0.00  0.00    +0.151 A 
ATOM      9  N   UNL     1       4.481   1.117  -3.555  0.00  0.00    -0.215 NA
ATOM     10  H   UNL     1       2.299   3.566  -4.201  0.00  0.00    +0.160 HD
ENDROOT
BRANCH   8  11
ATOM     11  N   UNL     1       5.943  -0.583  -2.861  0.00  0.00    -0.341 N 
ATOM     12  H   UNL     1       6.531  -0.471  -3.784  0.00  0.00    +0.144 HD
ATOM     13  H   UNL     1       6.238  -1.329  -2.108  0.00  0.00    +0.144 HD
ENDBRANCH   8  11
BRANCH   7  14
ATOM     14  N   UNL     1       4.487  -0.935  -0.466  0.00  0.00    +0.062 N 
ATOM     15  O   UNL     1       4.046  -2.069  -0.526  0.00  0.00    -0.126 OA
ATOM     16  O   UNL     1       5.255  -0.627   0.428  0.00  0.00    -0.126 OA
ENDBRANCH   7  14
BRANCH   6  17
ATOM     17  N   UNL     1       2.205   0.748  -0.120  0.00  0.00    -0.261 N 
ATOM     18  H   UNL     1       2.479   0.005   0.644  0.00  0.00    +0.170 HD
BRANCH  17  19
ATOM     19  N   UNL     1       1.086   1.569   0.070  0.00  0.00    -0.241 N 
ATOM     20  C   UNL     1       1.208   2.807   0.843  0.00  0.00    +0.155 C 
ATOM     21  C   UNL     1      -0.130   1.211  -0.470  0.00  0.00    +0.116 C 
ATOM     22  N   UNL     1      -1.131   2.044  -0.431  0.00  0.00    -0.385 N 
ATOM     23  H   UNL     1      -2.102   1.759  -0.862  0.00  0.00    +0.157 HD
ATOM     24  H   UNL     1      -1.004   3.034   0.033  0.00  0.00    +0.157 HD
BRANCH  21  25
ATOM     25  C   UNL     1      -0.302  -0.123  -1.090  0.00  0.00    +0.014 A 
ATOM     26  C   UNL     1       0.712  -1.076  -0.992  0.00  0.00    +0.011 A 
ATOM     27  C   UNL     1       0.543  -2.320  -1.566  0.00  0.00    +0.001 A 
ATOM     28  C   UNL     1      -0.623  -2.617  -2.248  0.00  0.00    +0.000 A 
ATOM     29  C   UNL     1      -1.629  -1.674  -2.354  0.00  0.00    +0.001 A 
ATOM     30  C   UNL     1      -1.475  -0.429  -1.779  0.00  0.00    +0.011 A 
ENDBRANCH  21  25
ENDBRANCH  17  19
ENDBRANCH   6  17
BRANCH   1  31
ATOM     31  O   UNL     1       3.536   3.807  -6.454  0.00  0.00    -0.450 OA
BRANCH  31  33
ATOM     32  C   UNL     1       3.894   4.921  -8.589  0.00  0.00    +0.048 C 
ATOM     33  C   UNL     1       4.295   3.750  -7.690  0.00  0.00    +0.230 C 
ENDBRANCH  31  33
ENDBRANCH   1  31
TORSDOF 7
