REMARK  Name = ZINC64137155
REMARK  12 active torsions:
REMARK  status: ('A' for Active; 'I' for Inactive)
REMARK    1  A    between atoms: C_1  and  C_2
REMARK    2  A    between atoms: C_2  and  C_3
REMARK    3  A    between atoms: C_2  and  C_4
REMARK    4  A    between atoms: C_4  and  N_5
REMARK    5  A    between atoms: N_5  and  C_6
REMARK    6  A    between atoms: N_10  and  C_31
REMARK    7  A    between atoms: C_12  and  C_15
REMARK    8  A    between atoms: N_17  and  C_18
REMARK    9  A    between atoms: C_18  and  C_19
REMARK   10  A    between atoms: C_19  and  C_20
REMARK   11  A    between atoms: C_31  and  C_32
REMARK   12  A    between atoms: C_31  and  C_33
REMARK                            x       y       z     vdW  Elec       q    Type
REMARK                         _______ _______ _______ _____ _____    ______ ____
ROOT
ATOM      1  C   UNL     1      -2.611  -2.773   0.218  0.00  0.00    +0.245 C 
ATOM      2  O   UNL     1      -3.763  -2.072   0.176  0.00  0.00    -0.270 OA
ATOM      3  C   UNL     1      -2.593  -4.078  -0.173  0.00  0.00    +0.079 C 
ATOM      4  C   UNL     1      -3.873  -4.811  -0.513  0.00  0.00    +0.149 C 
ATOM      5  N   UNL     1      -3.785  -6.215  -0.928  0.00  0.00    -0.328 N 
ATOM      6  C   UNL     1      -2.591  -6.833  -1.004  0.00  0.00    +0.087 C 
ATOM      7  C   UNL     1      -1.412  -6.202  -0.704  0.00  0.00    +0.097 C 
ATOM      8  C   UNL     1      -1.379  -4.792  -0.282  0.00  0.00    +0.202 C 
ATOM      9  O   UNL     1      -0.317  -4.248  -0.025  0.00  0.00    -0.287 OA
ENDROOT
BRANCH   7  10
ATOM     10  C   UNL     1      -0.152  -6.947  -0.812  0.00  0.00    +0.249 C 
ATOM     11  O   UNL     1      -0.168  -8.130  -1.096  0.00  0.00    -0.270 OA
ATOM     12  N   UNL     1       1.022  -6.321  -0.596  0.00  0.00    -0.311 N 
ATOM     13  H   UNL     1       1.039  -5.364  -0.438  0.00  0.00    +0.149 HD
BRANCH  12  14
ATOM     14  C   UNL     1       2.271  -7.086  -0.600  0.00  0.00    +0.108 C 
BRANCH  14  15
ATOM     15  C   UNL     1       3.446  -6.144  -0.332  0.00  0.00    +0.065 C 
BRANCH  15  16
ATOM     16  C   UNL     1       4.752  -6.942  -0.337  0.00  0.00    +0.175 C 
ATOM     17  N   UNL     1       4.735  -7.940   0.740  0.00  0.00    -0.363 N 
ATOM     18  C   UNL     1       5.728  -7.671   1.538  0.00  0.00    +0.060 A 
ATOM     19  C   UNL     1       6.218  -8.302   2.771  0.00  0.00    +0.029 A 
ATOM     20  C   UNL     1       7.295  -7.791   3.397  0.00  0.00    +0.022 A 
ATOM     21  C   UNL     1       7.986  -6.661   2.918  0.00  0.00    +0.043 A 
ATOM     22  C   UNL     1       7.619  -6.007   1.796  0.00  0.00    +0.047 A 
ATOM     23  C   UNL     1       6.457  -6.476   1.031  0.00  0.00    +0.062 A 
ATOM     24  N   UNL     1       5.887  -6.053  -0.062  0.00  0.00    -0.363 N 
ATOM     25 CL   UNL     1       9.363  -6.087   3.806  0.00  0.00    -0.083 Cl
ATOM     26  H   UNL     1       4.101  -8.667   0.839  0.00  0.00    +0.162 HD
ATOM     27  H   UNL     1       6.162  -5.292  -0.596  0.00  0.00    +0.162 HD
ENDBRANCH  15  16
ENDBRANCH  14  15
ENDBRANCH  12  14
ENDBRANCH   7  10
BRANCH   5  28
ATOM     28  C   UNL     1      -5.006  -6.951  -1.263  0.00  0.00    +0.067 C 
ATOM     29  C   UNL     1      -4.928  -7.436  -2.712  0.00  0.00    +0.027 C 
ATOM     30  C   UNL     1      -5.149  -8.155  -0.330  0.00  0.00    +0.027 C 
ENDBRANCH   5  28
BRANCH   1  31
ATOM     31  N   UNL     1      -1.459  -2.173   0.654  0.00  0.00    -0.311 N 
ATOM     32  H   UNL     1      -0.645  -2.693   0.743  0.00  0.00    +0.149 HD
BRANCH  31  33
ATOM     33  C   UNL     1      -1.457  -0.746   0.985  0.00  0.00    +0.107 C 
BRANCH  33  35
ATOM     34  C   UNL     1      -0.022   1.181   1.669  0.00  0.00    +0.009 C 
ATOM     35  C   UNL     1      -0.057  -0.331   1.442  0.00  0.00    -0.000 C 
ATOM     36  C   UNL     1       0.287  -1.051   2.748  0.00  0.00    +0.009 C 
ENDBRANCH  33  35
ENDBRANCH  31  33
ENDBRANCH   1  31
TORSDOF 8
