REMARK  Name = ZINC14748461
REMARK  9 active torsions:
REMARK  status: ('A' for Active; 'I' for Inactive)
REMARK    1  A    between atoms: C_1  and  N_2
REMARK    2  A    between atoms: C_5  and  C_7
REMARK    3  A    between atoms: N_9  and  C_10
REMARK    4  A    between atoms: C_10  and  C_11
REMARK    5  A    between atoms: C_11  and  C_12
REMARK    6  A    between atoms: C_19  and  N_63
REMARK    7  A    between atoms: C_23  and  C_24
REMARK    8  A    between atoms: C_23  and  N_63
REMARK    9  A    between atoms: C_24  and  O_30
REMARK                            x       y       z     vdW  Elec       q    Type
REMARK                         _______ _______ _______ _____ _____    ______ ____
ROOT
ATOM      1  C   UNL     1       4.420  -2.015  -0.051  0.00  0.00    +0.172 C 
ATOM      2  N   UNL     1       3.864  -0.659  -0.037  0.00  0.00    -0.270 N 
ATOM      3  C   UNL     1       4.591   0.470  -0.037  0.00  0.00    +0.043 A 
ATOM      4  C   UNL     1       3.718   1.508  -0.025  0.00  0.00    +0.004 A 
ATOM      5  C   UNL     1       2.436   0.934  -0.016  0.00  0.00    +0.150 A 
ATOM      6  N   UNL     1       2.607  -0.376  -0.019  0.00  0.00    -0.166 NA
ATOM      7  C   UNL     1       4.116   2.958  -0.025  0.00  0.00    +0.023 C 
ATOM      8  C   UNL     1       5.588   3.054  -0.448  0.00  0.00    -0.067 C 
ATOM      9  C   UNL     1       6.422   2.069   0.376  0.00  0.00    -0.009 C 
ATOM     10  C   UNL     1       6.089   0.632  -0.046  0.00  0.00    +0.054 C 
ENDROOT
BRANCH   5  11
ATOM     11  C   UNL     1       1.147   1.655   0.000  0.00  0.00    +0.264 C 
ATOM     12  O   UNL     1       1.130   2.871   0.007  0.00  0.00    -0.268 OA
ATOM     13  N   UNL     1      -0.011   0.966   0.007  0.00  0.00    -0.310 N 
ATOM     14  H   UNL     1       0.002  -0.004   0.002  0.00  0.00    +0.149 HD
BRANCH  13  15
ATOM     15  C   UNL     1      -1.290   1.681   0.017  0.00  0.00    +0.109 C 
BRANCH  15  16
ATOM     16  C   UNL     1      -2.439   0.671   0.017  0.00  0.00    +0.054 C 
BRANCH  16  17
ATOM     17  C   UNL     1      -3.754   1.407   0.028  0.00  0.00    -0.046 A 
ATOM     18  C   UNL     1      -4.354   1.733   1.229  0.00  0.00    +0.004 A 
ATOM     19  C   UNL     1      -5.559   2.411   1.239  0.00  0.00    +0.000 A 
ATOM     20  C   UNL     1      -6.167   2.756   0.046  0.00  0.00    +0.000 A 
ATOM     21  C   UNL     1      -5.569   2.425  -1.155  0.00  0.00    +0.000 A 
ATOM     22  C   UNL     1      -4.363   1.751  -1.165  0.00  0.00    +0.004 A 
ENDBRANCH  16  17
ENDBRANCH  15  16
ENDBRANCH  13  15
ENDBRANCH   5  11
BRANCH   8  23
ATOM     23  N   UNL     1       6.072   4.427  -0.210  0.00  0.00    +0.383 N 
ATOM     24  H   UNL     1       6.376   4.515   0.767  0.00  0.00    -0.085 HD
ATOM     25  H   UNL     1       5.310   5.091  -0.392  0.00  0.00    -0.085 HD
BRANCH  23  26
ATOM     26  C   UNL     1       7.206   4.732  -1.102  0.00  0.00    -0.047 C 
BRANCH  26  27
ATOM     27  C   UNL     1       7.686   6.160  -0.833  0.00  0.00    +0.051 C 
ATOM     28  C   UNL     1       6.510   7.129  -0.980  0.00  0.00    +0.033 C 
ATOM     29  C   UNL     1       6.990   8.557  -0.711  0.00  0.00    +0.003 C 
ATOM     30  C   UNL     1       8.083   8.926  -1.715  0.00  0.00    +0.000 C 
ATOM     31  C   UNL     1       9.258   7.957  -1.569  0.00  0.00    +0.003 C 
ATOM     32  C   UNL     1       8.779   6.529  -1.838  0.00  0.00    +0.033 C 
BRANCH  27  33
ATOM     33  O   UNL     1       8.210   6.245   0.494  0.00  0.00    -0.390 OA
ATOM     34  H   UNL     1       7.570   6.024   1.184  0.00  0.00    +0.210 HD
ENDBRANCH  27  33
ENDBRANCH  26  27
ENDBRANCH  23  26
ENDBRANCH   8  23
TORSDOF 8
