REMARK  Name = ZINC38547447
REMARK  5 active torsions:
REMARK  status: ('A' for Active; 'I' for Inactive)
REMARK    1  A    between atoms: N_7  and  C_8
REMARK    2  A    between atoms: C_8  and  C_10
REMARK    3  A    between atoms: C_8  and  C_19
REMARK    4  A    between atoms: C_23  and  N_24
REMARK    5  A    between atoms: C_25  and  C_27
REMARK                            x       y       z     vdW  Elec       q    Type
REMARK                         _______ _______ _______ _____ _____    ______ ____
ROOT
ATOM      1  C   UNL     1      -0.040  -2.916  -0.175  0.00  0.00    +0.135 C 
ENDROOT
BRANCH   1   8
ATOM      2  C   UNL     1       3.438  -4.055   1.881  0.00  0.00    +0.005 A 
ATOM      3  C   UNL     1       4.576  -3.269   1.759  0.00  0.00    +0.018 A 
ATOM      4  C   UNL     1       4.522  -2.115   1.004  0.00  0.00    +0.084 A 
ATOM      5  N   UNL     1       3.406  -1.753   0.400  0.00  0.00    -0.350 N 
ATOM      6  C   UNL     1       2.300  -2.475   0.492  0.00  0.00    +0.097 A 
ATOM      7  C   UNL     1       2.283  -3.651   1.237  0.00  0.00    +0.041 A 
ATOM      8  N   UNL     1       1.147  -2.056  -0.160  0.00  0.00    -0.320 N 
ATOM      9  H   UNL     1       1.128  -1.195  -0.606  0.00  0.00    +0.148 HD
ATOM     10  H   UNL     1       3.395  -0.937  -0.125  0.00  0.00    +0.166 HD
ENDBRANCH   1   8
BRANCH   1  11
ATOM     11  C   UNL     1      -0.900  -2.564  -1.361  0.00  0.00    -0.019 A 
ATOM     12  C   UNL     1      -0.920  -1.267  -1.839  0.00  0.00    +0.009 A 
ATOM     13  C   UNL     1      -1.707  -0.940  -2.927  0.00  0.00    +0.050 A 
ATOM     14  C   UNL     1      -2.478  -1.913  -3.542  0.00  0.00    +0.166 A 
ATOM     15  C   UNL     1      -2.458  -3.219  -3.061  0.00  0.00    +0.167 A 
ATOM     16  C   UNL     1      -1.663  -3.541  -1.974  0.00  0.00    +0.055 A 
ATOM     17  O   UNL     1      -3.293  -3.979  -3.829  0.00  0.00    -0.453 OA
ATOM     18  C   UNL     1      -4.135  -3.042  -4.526  0.00  0.00    +0.466 C 
ATOM     19  O   UNL     1      -3.325  -1.854  -4.611  0.00  0.00    -0.453 OA
ENDBRANCH   1  11
BRANCH   1  20
ATOM     20  C   UNL     1      -0.825  -2.708   1.094  0.00  0.00    +0.009 A 
ATOM     21  C   UNL     1      -1.367  -3.804   1.768  0.00  0.00    -0.030 A 
ATOM     22  C   UNL     1      -2.063  -3.536   2.905  0.00  0.00    -0.005 A 
ATOM     23  S   UNL     1      -1.974  -1.772   3.054  0.00  0.00    -0.078 S 
ATOM     24  C   UNL     1      -1.003  -1.454   1.588  0.00  0.00    +0.078 A 
ATOM     25  C   UNL     1      -2.742  -4.513   3.809  0.00  0.00    +0.043 C 
ATOM     26  C   UNL     1      -2.854  -5.856   3.071  0.00  0.00    +0.005 C 
ATOM     27  C   UNL     1      -1.496  -6.189   2.449  0.00  0.00    +0.005 C 
ATOM     28  C   UNL     1      -1.208  -5.242   1.284  0.00  0.00    +0.036 C 
BRANCH  24  29
ATOM     29  N   UNL     1      -0.547  -0.236   1.081  0.00  0.00    -0.273 N 
ATOM     30  C   UNL     1      -0.780   0.906   1.760  0.00  0.00    +0.284 C 
ATOM     31  O   UNL     1      -1.302   0.865   2.858  0.00  0.00    -0.266 OA
ATOM     32  H   UNL     1      -0.063  -0.211   0.241  0.00  0.00    +0.156 HD
BRANCH  30  33
ATOM     33  C   UNL     1      -0.404   2.196   1.174  0.00  0.00    +0.189 A 
ATOM     34  C   UNL     1      -0.493   3.413   1.788  0.00  0.00    +0.054 A 
ATOM     35  C   UNL     1      -0.029   4.364   0.867  0.00  0.00    +0.042 A 
ATOM     36  C   UNL     1       0.319   3.696  -0.255  0.00  0.00    +0.196 A 
ATOM     37  O   UNL     1       0.097   2.389  -0.064  0.00  0.00    -0.458 OA
ENDBRANCH  30  33
ENDBRANCH  24  29
ENDBRANCH   1  20
TORSDOF 5
