REMARK  Name = ZINC40024826
REMARK  8 active torsions:
REMARK  status: ('A' for Active; 'I' for Inactive)
REMARK    1  A    between atoms: C_1  and  C_2
REMARK    2  A    between atoms: C_2  and  C_4
REMARK    3  A    between atoms: C_2  and  N_10
REMARK    4  A    between atoms: N_6  and  C_7
REMARK    5  A    between atoms: N_13  and  C_16
REMARK    6  A    between atoms: C_16  and  C_18
REMARK    7  A    between atoms: C_16  and  C_19
REMARK    8  A    between atoms: N_24  and  C_25
REMARK                            x       y       z     vdW  Elec       q    Type
REMARK                         _______ _______ _______ _____ _____    ______ ____
ROOT
ATOM      1  C   UNL     1       4.373  -0.068   2.437  0.00  0.00    +0.140 C 
ATOM      2  C   UNL     1       5.128  -1.357   2.106  0.00  0.00    +0.034 C 
ENDROOT
BRANCH   1   3
ATOM      3  C   UNL     1       5.214   1.121   2.050  0.00  0.00    +0.237 C 
ATOM      4  O   UNL     1       4.943   1.758   1.055  0.00  0.00    -0.274 OA
ATOM      5  N   UNL     1       6.269   1.476   2.811  0.00  0.00    -0.239 N 
ATOM      6  C   UNL     1       7.022   2.539   2.465  0.00  0.00    +0.306 C 
ATOM      7  O   UNL     1       6.749   3.178   1.467  0.00  0.00    -0.252 OA
ATOM      8  N   UNL     1       8.076   2.894   3.225  0.00  0.00    -0.294 N 
ATOM      9  H   UNL     1       6.487   0.966   3.607  0.00  0.00    +0.159 HD
ATOM     10  H   UNL     1       8.294   2.385   4.021  0.00  0.00    +0.151 HD
BRANCH   8  11
ATOM     11  C   UNL     1       8.894   4.050   2.849  0.00  0.00    +0.037 C 
ATOM     12  C   UNL     1       8.021   5.306   2.820  0.00  0.00    +0.029 C 
ATOM     13  C   UNL     1       8.875   6.512   2.427  0.00  0.00    -0.008 C 
ATOM     14  C   UNL     1       9.998   6.697   3.449  0.00  0.00    +0.007 C 
ATOM     15  C   UNL     1      10.872   5.441   3.479  0.00  0.00    -0.008 C 
ATOM     16  C   UNL     1      10.018   4.234   3.871  0.00  0.00    +0.029 C 
ATOM     17  C   UNL     1      11.477   5.208   2.093  0.00  0.00    +0.007 C 
ATOM     18  C   UNL     1      10.354   5.024   1.070  0.00  0.00    -0.008 C 
ATOM     19  C   UNL     1       9.480   6.280   1.041  0.00  0.00    +0.007 C 
ATOM     20  C   UNL     1       9.499   3.817   1.463  0.00  0.00    +0.029 C 
ENDBRANCH   8  11
ENDBRANCH   1   3
BRANCH   1  24
ATOM     21  N   UNL     1       1.004  -1.198   0.148  0.00  0.00    +0.389 N 
ATOM     22  C   UNL     1       1.989  -0.300  -0.470  0.00  0.00    -0.062 C 
ATOM     23  C   UNL     1       3.317  -0.404   0.284  0.00  0.00    +0.066 C 
ATOM     24  N   UNL     1       3.108  -0.036   1.691  0.00  0.00    -0.295 NA
ATOM     25  C   UNL     1       2.106  -0.911   2.316  0.00  0.00    +0.066 C 
ATOM     26  C   UNL     1       0.788  -0.803   1.546  0.00  0.00    -0.062 C 
ATOM     27  H   UNL     1       1.347  -2.146   0.115  0.00  0.00    -0.081 HD
BRANCH  21  29
ATOM     28  C   UNL     1      -1.318  -1.974   0.112  0.00  0.00    -0.004 C 
ATOM     29  C   UNL     1      -0.265  -1.112  -0.587  0.00  0.00    +0.016 C 
BRANCH  29  30
ATOM     30  C   UNL     1      -0.064  -1.608  -1.996  0.00  0.00    +0.199 C 
ATOM     31  O   UNL     1       0.828  -2.392  -2.242  0.00  0.00    -0.278 OA
ATOM     32  N   UNL     1      -0.876  -1.180  -2.983  0.00  0.00    -0.314 N 
ATOM     33  H   UNL     1      -1.590  -0.552  -2.787  0.00  0.00    +0.149 HD
BRANCH  32  34
ATOM     34  C   UNL     1      -0.681  -1.661  -4.353  0.00  0.00    +0.073 C 
ATOM     35  C   UNL     1      -0.764  -0.632  -5.482  0.00  0.00    +0.024 C 
ATOM     36  C   UNL     1      -1.893  -1.647  -5.286  0.00  0.00    +0.024 C 
ENDBRANCH  32  34
ENDBRANCH  29  30
ENDBRANCH  21  29
ENDBRANCH   1  24
TORSDOF 6
