REMARK  Name = ZINC03104276
REMARK  7 active torsions:
REMARK  status: ('A' for Active; 'I' for Inactive)
REMARK    1  A    between atoms: C_3  and  S_6
REMARK    2  A    between atoms: S_6  and  N_9
REMARK    3  A    between atoms: N_9  and  C_10
REMARK    4  A    between atoms: C_12  and  C_32
REMARK    5  A    between atoms: C_15  and  N_16
REMARK    6  A    between atoms: N_19  and  C_22
REMARK    7  A    between atoms: C_25  and  C_27
REMARK                            x       y       z     vdW  Elec       q    Type
REMARK                         _______ _______ _______ _____ _____    ______ ____
ROOT
ATOM      1  C   UNL     1      -1.177   1.966  -0.062  0.00  0.00    +0.070 A 
ATOM      2  C   UNL     1      -1.072   3.324  -0.325  0.00  0.00    +0.038 A 
ATOM      3  C   UNL     1       0.171   3.897  -0.516  0.00  0.00    +0.057 A 
ATOM      4  C   UNL     1       1.313   3.121  -0.441  0.00  0.00    +0.014 A 
ATOM      5  C   UNL     1       1.218   1.768  -0.174  0.00  0.00    +0.025 A 
ATOM      6  C   UNL     1      -0.025   1.185   0.019  0.00  0.00    +0.052 A 
ENDROOT
BRANCH   6   7
ATOM      7  N   UNL     1      -0.124  -0.186   0.288  0.00  0.00    -0.325 N 
ATOM      8  C   UNL     1       0.521  -0.519   1.566  0.00  0.00    +0.124 C 
ATOM      9  C   UNL     1       0.323  -2.007   1.862  0.00  0.00    +0.125 C 
ATOM     10  N   UNL     1       0.892  -2.802   0.765  0.00  0.00    -0.313 N 
ATOM     11  C   UNL     1       0.247  -2.469  -0.513  0.00  0.00    +0.125 C 
ATOM     12  C   UNL     1       0.446  -0.981  -0.809  0.00  0.00    +0.124 C 
BRANCH  10  13
ATOM     13  C   UNL     1       0.794  -4.163   1.032  0.00  0.00    +0.118 A 
ATOM     14  C   UNL     1       1.950  -4.936   1.109  0.00  0.00    +0.079 A 
ATOM     15  C   UNL     1       1.837  -6.288   1.382  0.00  0.00    +0.037 A 
ATOM     16  C   UNL     1       0.569  -6.826   1.558  0.00  0.00    +0.072 A 
ATOM     17  C   UNL     1      -0.534  -6.001   1.462  0.00  0.00    +0.096 A 
ATOM     18 CL   UNL     1       3.510  -4.213   0.874  0.00  0.00    -0.080 Cl
ATOM     19  N   UNL     1      -0.462  -4.668   1.201  0.00  0.00    -0.348 N 
ATOM     20  H   UNL     1      -1.300  -4.079   1.135  0.00  0.00    +0.167 HD
BRANCH  16  21
ATOM     21  C   UNL     1       0.398  -8.294   1.850  0.00  0.00    +0.419 C 
ATOM     22  F   UNL     1      -0.964  -8.588   1.985  0.00  0.00    -0.166 F 
ATOM     23  F   UNL     1       0.935  -9.045   0.799  0.00  0.00    -0.166 F 
ATOM     24  F   UNL     1       1.063  -8.613   3.039  0.00  0.00    -0.166 F 
ENDBRANCH  16  21
ENDBRANCH  10  13
ENDBRANCH   6   7
BRANCH   3  25
ATOM     25  C   UNL     1       0.282   5.371  -0.808  0.00  0.00    +0.417 C 
ATOM     26  F   UNL     1       1.630   5.716  -0.962  0.00  0.00    -0.166 F 
ATOM     27  F   UNL     1      -0.412   5.667  -1.985  0.00  0.00    -0.166 F 
ATOM     28  F   UNL     1      -0.266   6.099   0.254  0.00  0.00    -0.166 F 
ENDBRANCH   3  25
BRANCH   1  29
ATOM     29  N   UNL     1      -2.436   1.383   0.127  0.00  0.00    -0.214 N 
ATOM     30  H   UNL     1      -2.546   0.663   0.767  0.00  0.00    +0.174 HD
BRANCH  29  31
ATOM     31  S   UNL     1      -3.737   1.923  -0.744  0.00  0.00    +0.079 S 
ATOM     32  O   UNL     1      -4.821   1.057  -0.433  0.00  0.00    -0.149 OA
ATOM     33  O   UNL     1      -3.804   3.328  -0.546  0.00  0.00    -0.149 OA
BRANCH  31  36
ATOM     34  C   UNL     1      -3.229   0.615  -4.552  0.00  0.00    +0.010 A 
ATOM     35  C   UNL     1      -3.615   0.589  -3.225  0.00  0.00    +0.036 A 
ATOM     36  C   UNL     1      -3.365   1.671  -2.447  0.00  0.00    +0.146 A 
ATOM     37  S   UNL     1      -2.568   2.778  -3.599  0.00  0.00    -0.077 S 
ATOM     38  C   UNL     1      -2.613   1.721  -5.037  0.00  0.00    +0.047 A 
ENDBRANCH  31  36
ENDBRANCH  29  31
ENDBRANCH   1  29
TORSDOF 7
