REMARK  Name = ZINC37863318
REMARK  8 active torsions:
REMARK  status: ('A' for Active; 'I' for Inactive)
REMARK    1  A    between atoms: C_1  and  C_2
REMARK    2  A    between atoms: C_7  and  N_10
REMARK    3  A    between atoms: N_10  and  C_11
REMARK    4  A    between atoms: C_11  and  C_12
REMARK    5  A    between atoms: C_12  and  C_14
REMARK    6  A    between atoms: C_12  and  O_24
REMARK    7  A    between atoms: C_14  and  O_15
REMARK    8  A    between atoms: O_15  and  C_16
REMARK                            x       y       z     vdW  Elec       q    Type
REMARK                         _______ _______ _______ _____ _____    ______ ____
ROOT
ATOM      1  C   UNL     1       0.861  -0.440   6.135  0.00  0.00    +0.135 C 
ENDROOT
BRANCH   1   2
ATOM      2  O   UNL     1       0.780  -1.866   6.189  0.00  0.00    -0.390 OA
ATOM      3  H   UNL     1      -0.124  -2.207   6.236  0.00  0.00    +0.210 HD
ENDBRANCH   1   2
BRANCH   1   4
ATOM      4  C   UNL     1       0.121   0.067   4.896  0.00  0.00    -0.047 C 
BRANCH   4   5
ATOM      5  N   UNL     1       0.736  -0.504   3.691  0.00  0.00    +0.383 N 
ATOM      6  H   UNL     1       0.679  -1.511   3.728  0.00  0.00    -0.085 HD
ATOM      7  H   UNL     1       1.704  -0.224   3.642  0.00  0.00    -0.085 HD
BRANCH   5  13
ATOM      8  C   UNL     1      -0.019   1.526   0.010  0.00  0.00    +0.007 C 
ATOM      9  C   UNL     1       0.002  -0.004   0.002  0.00  0.00    -0.016 C 
ATOM     10  C   UNL     1      -1.433  -0.534   0.013  0.00  0.00    +0.003 C 
ATOM     11  C   UNL     1      -2.149  -0.040   1.272  0.00  0.00    -0.001 C 
ATOM     12  C   UNL     1      -1.409  -0.547   2.511  0.00  0.00    -0.016 C 
ATOM     13  C   UNL     1       0.026  -0.018   2.500  0.00  0.00    -0.071 C 
ATOM     14  C   UNL     1       0.742  -0.511   1.242  0.00  0.00    -0.013 C 
ENDBRANCH   5  13
ENDBRANCH   4   5
ENDBRANCH   1   4
BRANCH   1  15
ATOM     15  C   UNL     1       0.219   0.154   7.391  0.00  0.00    +0.258 C 
BRANCH  15  16
ATOM     16  O   UNL     1       0.980  -0.225   8.540  0.00  0.00    -0.488 OA
BRANCH  16  17
ATOM     17  C   UNL     1       0.542   0.224   9.745  0.00  0.00    +0.140 A 
ATOM     18  C   UNL     1      -0.599   1.008   9.822  0.00  0.00    +0.067 A 
ATOM     19  C   UNL     1      -1.043   1.464  11.050  0.00  0.00    +0.045 A 
ATOM     20  C   UNL     1      -0.349   1.137  12.202  0.00  0.00    +0.021 A 
ATOM     21  C   UNL     1       0.789   0.356  12.128  0.00  0.00    +0.025 A 
ATOM     22  C   UNL     1       1.234  -0.106  10.903  0.00  0.00    +0.083 A 
ATOM     23 CL   UNL     1       2.659  -1.093  10.812  0.00  0.00    -0.080 Cl
ATOM     24 CL   UNL     1      -2.471   2.446  11.146  0.00  0.00    -0.083 Cl
ENDBRANCH  16  17
ENDBRANCH  15  16
ENDBRANCH   1  15
TORSDOF 7
