REMARK  Name = ZINC12329817
REMARK  6 active torsions:
REMARK  status: ('A' for Active; 'I' for Inactive)
REMARK    1  A    between atoms: C_1  and  C_2
REMARK    2  A    between atoms: C_8  and  O_28
REMARK    3  A    between atoms: C_17  and  C_18
REMARK    4  A    between atoms: C_17  and  N_53
REMARK    5  A    between atoms: C_18  and  C_20
REMARK    6  A    between atoms: C_18  and  O_27
REMARK                            x       y       z     vdW  Elec       q    Type
REMARK                         _______ _______ _______ _____ _____    ______ ____
ROOT
ATOM      1  C   UNL     1      -0.544   9.735  -3.891  0.00  0.00    +0.044 C 
ATOM      2  C   UNL     1      -0.339   8.247  -3.763  0.00  0.00    -0.050 A 
ATOM      3  C   UNL     1       0.810   7.755  -3.173  0.00  0.00    +0.007 A 
ATOM      4  C   UNL     1       0.996   6.393  -3.057  0.00  0.00    +0.046 A 
ATOM      5  C   UNL     1       0.031   5.511  -3.532  0.00  0.00    +0.127 A 
ATOM      6  C   UNL     1      -1.119   6.006  -4.121  0.00  0.00    +0.023 A 
ATOM      7  C   UNL     1      -1.300   7.375  -4.236  0.00  0.00    +0.013 A 
ATOM      8  C   UNL     1      -2.194   5.087  -4.643  0.00  0.00    +0.152 C 
ATOM      9  C   UNL     1      -1.623   3.678  -4.825  0.00  0.00    +0.084 C 
ATOM     10  C   UNL     1      -0.862   3.298  -3.550  0.00  0.00    +0.110 C 
ATOM     11  O   UNL     1       0.252   4.177  -3.404  0.00  0.00    -0.485 OA
ATOM     12  C   UNL     1      -0.372   1.853  -3.661  0.00  0.00    +0.029 C 
ATOM     13  C   UNL     1       0.329   1.454  -2.360  0.00  0.00    -0.075 C 
ATOM     14  C   UNL     1      -1.047   2.985  -1.081  0.00  0.00    -0.075 C 
ATOM     15  C   UNL     1      -1.791   3.429  -2.342  0.00  0.00    +0.029 C 
ATOM     16  N   UNL     1      -0.630   1.575  -1.242  0.00  0.00    +0.382 N 
ATOM     17  H   UNL     1      -1.458   1.005  -1.450  0.00  0.00    -0.082 HD
ENDROOT
BRANCH   8  18
ATOM     18  O   UNL     1      -2.668   5.574  -5.900  0.00  0.00    -0.387 OA
ATOM     19  H   UNL     1      -3.047   6.462  -5.860  0.00  0.00    +0.210 HD
ENDBRANCH   8  18
BRANCH  16  20
ATOM     20  C   UNL     1      -0.013   1.086   0.008  0.00  0.00    -0.042 C 
BRANCH  20  21
ATOM     21  C   UNL     1       0.201  -0.425  -0.106  0.00  0.00    +0.128 C 
BRANCH  21  22
ATOM     22  C   UNL     1       0.816  -0.943   1.168  0.00  0.00    -0.021 A 
ATOM     23  C   UNL     1       0.009  -1.267   2.243  0.00  0.00    +0.007 A 
ATOM     24  C   UNL     1       0.573  -1.748   3.410  0.00  0.00    +0.020 A 
ATOM     25  C   UNL     1       1.945  -1.895   3.505  0.00  0.00    +0.041 A 
ATOM     26  C   UNL     1       2.752  -1.565   2.431  0.00  0.00    +0.020 A 
ATOM     27  C   UNL     1       2.187  -1.090   1.263  0.00  0.00    +0.007 A 
ATOM     28 CL   UNL     1       2.654  -2.493   4.973  0.00  0.00    -0.084 Cl
ENDBRANCH  21  22
BRANCH  21  29
ATOM     29  O   UNL     1      -1.057  -1.068  -0.324  0.00  0.00    -0.389 OA
ATOM     30  H   UNL     1      -1.700  -0.924   0.383  0.00  0.00    +0.210 HD
ENDBRANCH  21  29
ENDBRANCH  20  21
ENDBRANCH  16  20
TORSDOF 5
