REMARK  Name = ZINC38050990
REMARK  4 active torsions:
REMARK  status: ('A' for Active; 'I' for Inactive)
REMARK    1  A    between atoms: C_1  and  N_2
REMARK    2  A    between atoms: N_7  and  C_10
REMARK    3  A    between atoms: N_15  and  C_16
REMARK    4  A    between atoms: C_22  and  N_24
REMARK                            x       y       z     vdW  Elec       q    Type
REMARK                         _______ _______ _______ _____ _____    ______ ____
ROOT
ATOM      1  C   UNL     1      -0.018   1.461   0.010  0.00  0.00    +0.155 C 
ATOM      2  N   UNL     1       0.002  -0.004   0.002  0.00  0.00    -0.280 N 
ATOM      3  C   UNL     1      -1.189  -0.713   0.004  0.00  0.00    +0.170 A 
ATOM      4  C   UNL     1      -1.141  -2.102  -0.004  0.00  0.00    +0.150 A 
ATOM      5  C   UNL     1       0.108  -2.747  -0.015  0.00  0.00    +0.282 A 
ATOM      6  O   UNL     1       0.173  -3.964  -0.022  0.00  0.00    -0.265 OA
ATOM      7  N   UNL     1       1.234  -2.004  -0.016  0.00  0.00    -0.262 N 
ATOM      8  C   UNL     1       1.177  -0.661  -0.013  0.00  0.00    +0.333 A 
ATOM      9  O   UNL     1       2.213  -0.023  -0.019  0.00  0.00    -0.246 OA
ATOM     10  C   UNL     1       2.539  -2.671  -0.027  0.00  0.00    +0.157 C 
ATOM     11  N   UNL     1      -2.460  -2.538   0.000  0.00  0.00    -0.321 N 
ATOM     12  H   UNL     1      -2.765  -3.459  -0.003  0.00  0.00    +0.169 HD
ATOM     13  C   UNL     1      -3.240  -1.425   0.011  0.00  0.00    +0.196 A 
ATOM     14  N   UNL     1      -2.474  -0.354   0.013  0.00  0.00    -0.196 NA
ATOM     15  N   UNL     1      -4.616  -1.419   0.017  0.00  0.00    -0.314 N 
ATOM     16  H   UNL     1      -5.097  -0.577   0.025  0.00  0.00    +0.149 HD
ENDROOT
BRANCH  15  17
ATOM     17  C   UNL     1      -5.354  -2.684   0.013  0.00  0.00    +0.059 C 
ATOM     18  C   UNL     1      -5.496  -3.197   1.448  0.00  0.00    +0.020 C 
ATOM     19  C   UNL     1      -6.267  -4.518   1.444  0.00  0.00    +0.002 C 
ATOM     20  C   UNL     1      -7.656  -4.296   0.843  0.00  0.00    -0.001 C 
ATOM     21  C   UNL     1      -7.515  -3.784  -0.592  0.00  0.00    -0.014 C 
ATOM     22  C   UNL     1      -6.744  -2.462  -0.588  0.00  0.00    -0.055 C 
BRANCH  22  23
ATOM     23  N   UNL     1      -6.608  -1.970  -1.966  0.00  0.00    +0.381 N 
ATOM     24  H   UNL     1      -6.107  -2.650  -2.518  0.00  0.00    -0.090 HD
ATOM     25  H   UNL     1      -7.524  -1.824  -2.362  0.00  0.00    -0.090 HD
ATOM     26  H   UNL     1      -6.099  -1.099  -1.963  0.00  0.00    -0.090 HD
ENDBRANCH  22  23
ENDBRANCH  15  17
TORSDOF 2
