REMARK  Name = ZINC16059727
REMARK  8 active torsions:
REMARK  status: ('A' for Active; 'I' for Inactive)
REMARK    1  A    between atoms: C_1  and  C_2
REMARK    2  A    between atoms: C_2  and  C_4
REMARK    3  A    between atoms: C_2  and  S_15
REMARK    4  A    between atoms: N_6  and  C_7
REMARK    5  A    between atoms: S_15  and  C_16
REMARK    6  A    between atoms: C_19  and  C_27
REMARK    7  A    between atoms: N_20  and  C_21
REMARK    8  A    between atoms: C_27  and  C_28
REMARK                            x       y       z     vdW  Elec       q    Type
REMARK                         _______ _______ _______ _____ _____    ______ ____
ROOT
ATOM      1  C   UNL     1      -1.198  -2.357  -0.694  0.00  0.00    +0.193 A 
ATOM      2  N   UNL     1      -0.089  -2.933  -0.291  0.00  0.00    -0.122 NA
ATOM      3  N   UNL     1      -0.180  -4.207  -0.441  0.00  0.00    -0.133 NA
ATOM      4  C   UNL     1      -1.339  -4.515  -0.951  0.00  0.00    +0.139 A 
ATOM      5  N   UNL     1      -2.029  -3.348  -1.131  0.00  0.00    -0.303 N 
ENDROOT
BRANCH   5   6
ATOM      6  C   UNL     1      -3.378  -3.194  -1.678  0.00  0.00    +0.091 C 
ATOM      7  C   UNL     1      -3.323  -2.319  -2.932  0.00  0.00    +0.025 C 
ATOM      8  C   UNL     1      -4.733  -2.158  -3.504  0.00  0.00    +0.002 C 
ATOM      9  C   UNL     1      -5.635  -1.496  -2.460  0.00  0.00    +0.000 C 
ATOM     10  C   UNL     1      -5.690  -2.371  -1.206  0.00  0.00    +0.002 C 
ATOM     11  C   UNL     1      -4.280  -2.532  -0.634  0.00  0.00    +0.025 C 
ENDBRANCH   5   6
BRANCH   1  12
ATOM     12  S   UNL     1      -1.545  -0.629  -0.679  0.00  0.00    -0.074 S 
BRANCH  12  14
ATOM     13  C   UNL     1       0.150  -0.507   1.460  0.00  0.00    +0.029 C 
ATOM     14  C   UNL     1       0.001  -0.004   0.022  0.00  0.00    +0.137 C 
BRANCH  14  15
ATOM     15  C   UNL     1      -0.019   1.503   0.018  0.00  0.00    +0.230 C 
ATOM     16  O   UNL     1      -1.077   2.096   0.023  0.00  0.00    -0.274 OA
ATOM     17  N   UNL     1       1.139   2.192   0.003  0.00  0.00    -0.282 N 
ATOM     18  H   UNL     1       1.985   1.721   0.060  0.00  0.00    +0.155 HD
BRANCH  17  19
ATOM     19  C   UNL     1       1.122   3.589  -0.095  0.00  0.00    +0.072 A 
ATOM     20  C   UNL     1       0.106   4.316   0.509  0.00  0.00    +0.064 A 
ATOM     21  C   UNL     1       0.091   5.696   0.411  0.00  0.00    +0.125 A 
ATOM     22  C   UNL     1       1.089   6.352  -0.289  0.00  0.00    +0.041 A 
ATOM     23  C   UNL     1       2.103   5.631  -0.893  0.00  0.00    +0.043 A 
ATOM     24  C   UNL     1       2.126   4.251  -0.793  0.00  0.00    +0.145 A 
ATOM     25  F   UNL     1       3.119   3.547  -1.379  0.00  0.00    -0.204 F 
ATOM     26  F   UNL     1      -0.897   6.404   1.000  0.00  0.00    -0.205 F 
ENDBRANCH  17  19
ENDBRANCH  14  15
ENDBRANCH  12  14
ENDBRANCH   1  12
BRANCH   4  27
ATOM     27  C   UNL     1      -1.827  -5.902  -1.283  0.00  0.00    +0.118 C 
BRANCH  27  28
ATOM     28  C   UNL     1      -1.446  -6.243  -2.700  0.00  0.00    -0.003 A 
ATOM     29  C   UNL     1      -0.317  -6.835  -3.162  0.00  0.00    +0.011 A 
ATOM     30  C   UNL     1      -0.183  -7.056  -4.520  0.00  0.00    +0.008 A 
ATOM     31  C   UNL     1      -1.181  -6.665  -5.351  0.00  0.00    +0.045 A 
ATOM     32  S   UNL     1      -2.361  -5.967  -4.208  0.00  0.00    -0.101 S 
ENDBRANCH  27  28
ENDBRANCH   4  27
TORSDOF 7
