REMARK  Name = ZINC39687257
REMARK  8 active torsions:
REMARK  status: ('A' for Active; 'I' for Inactive)
REMARK    1  A    between atoms: C_1  and  C_2
REMARK    2  A    between atoms: C_2  and  C_3
REMARK    3  A    between atoms: C_6  and  C_9
REMARK    4  A    between atoms: C_13  and  C_22
REMARK    5  A    between atoms: N_24  and  C_25
REMARK    6  A    between atoms: C_25  and  C_27
REMARK    7  A    between atoms: C_25  and  C_34
REMARK    8  A    between atoms: C_27  and  C_28
REMARK                            x       y       z     vdW  Elec       q    Type
REMARK                         _______ _______ _______ _____ _____    ______ ____
ROOT
ATOM      1  C   UNL     1      -5.883  -2.123  -0.167  0.00  0.00    +0.247 C 
ATOM      2  O   UNL     1      -6.192  -2.422   0.971  0.00  0.00    -0.270 OA
ATOM      3  N   UNL     1      -6.626  -2.559  -1.203  0.00  0.00    -0.296 N 
ATOM      4  C   UNL     1      -6.340  -2.414  -2.650  0.00  0.00    +0.121 C 
ATOM      5  C   UNL     1      -6.776  -3.760  -3.271  0.00  0.00    +0.100 C 
ATOM      6  C   UNL     1      -7.809  -4.331  -2.286  0.00  0.00    -0.004 C 
ATOM      7  C   UNL     1      -7.910  -3.298  -1.154  0.00  0.00    +0.115 C 
ATOM      8  C   UNL     1      -7.328  -5.668  -1.730  0.00  0.00    -0.010 C 
ATOM      9  C   UNL     1      -8.398  -6.243  -0.797  0.00  0.00    -0.082 C 
ATOM     10  N   UNL     1      -9.652  -6.421  -1.539  0.00  0.00    +0.379 N 
ATOM     11  C   UNL     1     -10.156  -5.118  -1.990  0.00  0.00    -0.082 C 
ATOM     12  C   UNL     1      -9.161  -4.496  -2.974  0.00  0.00    -0.010 C 
ATOM     13  H   UNL     1      -9.486  -7.012  -2.340  0.00  0.00    -0.086 HD
ATOM     14  H   UNL     1     -10.337  -6.856  -0.939  0.00  0.00    -0.086 HD
ENDROOT
BRANCH   1  18
ATOM     15  C   UNL     1      -2.463   0.294  -0.873  0.00  0.00    -0.048 A 
ATOM     16  C   UNL     1      -2.597  -0.374   0.331  0.00  0.00    +0.004 A 
ATOM     17  C   UNL     1      -3.706  -1.161   0.567  0.00  0.00    +0.013 A 
ATOM     18  C   UNL     1      -4.693  -1.282  -0.412  0.00  0.00    +0.037 A 
ATOM     19  C   UNL     1      -4.551  -0.605  -1.625  0.00  0.00    +0.013 A 
ATOM     20  C   UNL     1      -3.441   0.183  -1.846  0.00  0.00    +0.004 A 
BRANCH  15  22
ATOM     21  C   UNL     1      -1.526   2.579  -0.648  0.00  0.00    +0.009 C 
ATOM     22  C   UNL     1      -1.249   1.152  -1.124  0.00  0.00    +0.032 C 
ENDBRANCH  15  22
ENDBRANCH   1  18
BRANCH   5  23
ATOM     23  C   UNL     1      -5.595  -4.689  -3.393  0.00  0.00    +0.219 C 
ATOM     24  O   UNL     1      -5.439  -5.342  -4.402  0.00  0.00    -0.275 OA
ATOM     25  N   UNL     1      -4.712  -4.792  -2.380  0.00  0.00    -0.303 N 
ATOM     26  H   UNL     1      -4.837  -4.269  -1.572  0.00  0.00    +0.149 HD
BRANCH  25  27
ATOM     27  C   UNL     1      -3.564  -5.695  -2.498  0.00  0.00    +0.163 C 
BRANCH  27  28
ATOM     28  C   UNL     1      -3.105  -6.106  -1.123  0.00  0.00    +0.236 C 
ATOM     29  O   UNL     1      -3.342  -5.398  -0.167  0.00  0.00    -0.274 OA
ATOM     30  N   UNL     1      -2.430  -7.260  -0.955  0.00  0.00    -0.300 N 
ATOM     31  C   UNL     1      -2.041  -8.076  -2.114  0.00  0.00    +0.108 C 
ATOM     32  C   UNL     1      -0.534  -8.342  -2.046  0.00  0.00    +0.019 C 
ATOM     33  C   UNL     1      -0.192  -8.970  -0.693  0.00  0.00    +0.003 C 
ATOM     34  C   UNL     1      -0.561  -7.998   0.430  0.00  0.00    +0.019 C 
ATOM     35  C   UNL     1      -2.063  -7.724   0.390  0.00  0.00    +0.108 C 
ENDBRANCH  27  28
BRANCH  27  36
ATOM     36  C   UNL     1      -2.424  -4.977  -3.223  0.00  0.00    +0.067 C 
BRANCH  36  37
ATOM     37  C   UNL     1      -2.832  -4.698  -4.647  0.00  0.00    -0.045 A 
ATOM     38  C   UNL     1      -2.572  -5.629  -5.635  0.00  0.00    +0.004 A 
ATOM     39  C   UNL     1      -2.946  -5.373  -6.941  0.00  0.00    +0.000 A 
ATOM     40  C   UNL     1      -3.579  -4.186  -7.259  0.00  0.00    +0.000 A 
ATOM     41  C   UNL     1      -3.839  -3.255  -6.270  0.00  0.00    +0.000 A 
ATOM     42  C   UNL     1      -3.469  -3.513  -4.963  0.00  0.00    +0.004 A 
ENDBRANCH  36  37
ENDBRANCH  27  36
ENDBRANCH  25  27
ENDBRANCH   5  23
TORSDOF 7
