REMARK  Name = ZINC67339976
REMARK  9 active torsions:
REMARK  status: ('A' for Active; 'I' for Inactive)
REMARK    1  A    between atoms: C_1  and  C_2
REMARK    2  A    between atoms: C_2  and  C_3
REMARK    3  A    between atoms: C_3  and  C_4
REMARK    4  A    between atoms: C_4  and  C_5
REMARK    5  A    between atoms: C_5  and  C_7
REMARK    6  A    between atoms: C_5  and  N_23
REMARK    7  A    between atoms: C_11  and  N_20
REMARK    8  A    between atoms: N_20  and  C_21
REMARK    9  A    between atoms: N_20  and  C_22
REMARK                            x       y       z     vdW  Elec       q    Type
REMARK                         _______ _______ _______ _____ _____    ______ ____
ROOT
ATOM      1  C   UNL     1      -2.799  -4.197  -0.179  0.00  0.00    +0.240 C 
ATOM      2  O   UNL     1      -2.746  -2.985  -0.162  0.00  0.00    -0.273 OA
ATOM      3  N   UNL     1      -2.698  -4.859  -1.348  0.00  0.00    -0.271 N 
ATOM      4  C   UNL     1      -2.896  -6.314  -1.401  0.00  0.00    +0.099 C 
ATOM      5  C   UNL     1      -3.789  -6.622  -2.611  0.00  0.00    -0.047 C 
ATOM      6  C   UNL     1      -3.057  -6.201  -3.885  0.00  0.00    +0.023 C 
ATOM      7  C   UNL     1      -2.567  -4.782  -3.768  0.00  0.00    -0.027 A 
ATOM      8  C   UNL     1      -2.410  -4.171  -2.535  0.00  0.00    +0.039 A 
ATOM      9  C   UNL     1      -1.956  -2.859  -2.463  0.00  0.00    +0.024 A 
ATOM     10  C   UNL     1      -1.669  -2.163  -3.621  0.00  0.00    +0.002 A 
ATOM     11  C   UNL     1      -1.835  -2.773  -4.851  0.00  0.00    +0.000 A 
ATOM     12  C   UNL     1      -2.272  -4.078  -4.923  0.00  0.00    +0.005 A 
ENDROOT
BRANCH   5  13
ATOM     13  N   UNL     1      -4.075  -8.062  -2.657  0.00  0.00    +0.379 N 
ATOM     14  C   UNL     1      -4.766  -8.464  -1.425  0.00  0.00    -0.096 C 
ATOM     15  C   UNL     1      -4.931  -8.354  -3.815  0.00  0.00    -0.096 C 
ATOM     16  H   UNL     1      -3.210  -8.575  -2.740  0.00  0.00    -0.082 HD
ENDBRANCH   5  13
BRANCH   1  17
ATOM     17  C   UNL     1      -2.976  -4.961   1.108  0.00  0.00    +0.161 C 
BRANCH  17  18
ATOM     18  N   UNL     1      -2.545  -4.129   2.234  0.00  0.00    -0.288 N 
ATOM     19  C   UNL     1      -3.152  -2.949   2.470  0.00  0.00    +0.298 C 
ATOM     20  O   UNL     1      -4.056  -2.575   1.749  0.00  0.00    -0.253 OA
ATOM     21  N   UNL     1      -2.756  -2.183   3.506  0.00  0.00    -0.313 N 
ATOM     22  H   UNL     1      -1.823  -4.427   2.809  0.00  0.00    +0.151 HD
ATOM     23  H   UNL     1      -2.034  -2.481   4.082  0.00  0.00    +0.146 HD
ATOM     24  H   UNL     1      -3.192  -1.334   3.676  0.00  0.00    +0.146 HD
ENDBRANCH  17  18
BRANCH  17  25
ATOM     25  C   UNL     1      -4.450  -5.332   1.282  0.00  0.00    +0.032 C 
BRANCH  25  26
ATOM     26  C   UNL     1      -4.610  -6.220   2.517  0.00  0.00    +0.002 C 
BRANCH  26  28
ATOM     27  C   UNL     1      -6.244  -7.479   3.927  0.00  0.00    +0.004 C 
ATOM     28  C   UNL     1      -6.084  -6.591   2.691  0.00  0.00    -0.003 C 
ENDBRANCH  26  28
ENDBRANCH  25  26
ENDBRANCH  17  25
ENDBRANCH   1  17
TORSDOF 6
