REMARK  Name = ZINC32972036
REMARK  14 active torsions:
REMARK  status: ('A' for Active; 'I' for Inactive)
REMARK    1  A    between atoms: C_1  and  C_2
REMARK    2  A    between atoms: C_2  and  C_3
REMARK    3  A    between atoms: C_2  and  C_4
REMARK    4  A    between atoms: C_4  and  N_5
REMARK    5  A    between atoms: C_6  and  N_39
REMARK    6  A    between atoms: C_7  and  N_14
REMARK    7  A    between atoms: N_14  and  C_15
REMARK    8  A    between atoms: C_15  and  C_16
REMARK    9  A    between atoms: C_16  and  C_17
REMARK   10  A    between atoms: C_16  and  C_18
REMARK   11  A    between atoms: C_19  and  C_21
REMARK   12  A    between atoms: C_21  and  N_22
REMARK   13  A    between atoms: N_22  and  C_23
REMARK   14  A    between atoms: C_24  and  C_26
REMARK                            x       y       z     vdW  Elec       q    Type
REMARK                         _______ _______ _______ _____ _____    ______ ____
ROOT
ATOM      1  N   UNL     1       0.618   3.940  -0.759  0.00  0.00    -0.263 N 
ATOM      2  C   UNL     1      -0.476   4.707  -0.574  0.00  0.00    +0.237 C 
ATOM      3  O   UNL     1      -0.516   5.828  -1.036  0.00  0.00    -0.274 OA
ENDROOT
BRANCH   1   6
ATOM      4  N   UNL     1       1.424   0.902   1.144  0.00  0.00    -0.280 N 
ATOM      5  C   UNL     1       1.440   2.214   0.732  0.00  0.00    +0.127 A 
ATOM      6  C   UNL     1       0.625   2.601  -0.313  0.00  0.00    +0.140 A 
ATOM      7  C   UNL     1      -0.198   1.638  -0.925  0.00  0.00    +0.277 A 
ATOM      8  O   UNL     1      -0.928   1.954  -1.850  0.00  0.00    -0.266 OA
ATOM      9  N   UNL     1      -0.176   0.366  -0.482  0.00  0.00    -0.273 N 
ATOM     10  H   UNL     1      -0.817  -0.393  -0.956  0.00  0.00    +0.173 HD
ATOM     11  C   UNL     1       0.625   0.007   0.537  0.00  0.00    +0.331 A 
ATOM     12  O   UNL     1       0.625  -1.149   0.916  0.00  0.00    -0.246 OA
BRANCH   5  13
ATOM     13  N   UNL     1       2.253   3.130   1.356  0.00  0.00    -0.343 N 
ATOM     14  H   UNL     1       2.260   4.177   1.021  0.00  0.00    +0.144 HD
ATOM     15  H   UNL     1       2.896   2.815   2.191  0.00  0.00    +0.144 HD
ENDBRANCH   5  13
BRANCH   4  16
ATOM     16  C   UNL     1       2.283   0.477   2.252  0.00  0.00    +0.131 C 
BRANCH  16  18
ATOM     17  C   UNL     1       2.377   0.076   4.717  0.00  0.00    +0.009 C 
ATOM     18  C   UNL     1       1.528   0.636   3.573  0.00  0.00    +0.003 C 
ATOM     19  C   UNL     1       1.246   2.118   3.825  0.00  0.00    +0.009 C 
ENDBRANCH  16  18
ENDBRANCH   4  16
ENDBRANCH   1   6
BRANCH   1  20
ATOM     20  C   UNL     1       1.800   4.497  -1.423  0.00  0.00    +0.117 C 
BRANCH  20  21
ATOM     21  C   UNL     1       1.773   4.127  -2.907  0.00  0.00    +0.001 C 
ATOM     22  C   UNL     1       0.587   4.817  -3.583  0.00  0.00    +0.009 C 
ATOM     23  C   UNL     1       3.074   4.582  -3.570  0.00  0.00    +0.009 C 
ENDBRANCH  20  21
ENDBRANCH   1  20
BRANCH   2  24
ATOM     24  C   UNL     1      -1.649   4.171   0.206  0.00  0.00    +0.203 C 
BRANCH  24  25
ATOM     25  N   UNL     1      -2.743   5.144   0.173  0.00  0.00    -0.295 N 
ATOM     26  C   UNL     1      -2.838   6.175   1.211  0.00  0.00    +0.132 C 
ATOM     27  C   UNL     1      -3.663   5.093  -0.811  0.00  0.00    +0.222 C 
ATOM     28  O   UNL     1      -3.627   4.196  -1.627  0.00  0.00    -0.275 OA
BRANCH  27  29
ATOM     29  C   UNL     1      -4.734   6.149  -0.897  0.00  0.00    +0.049 C 
ATOM     30  C   UNL     1      -5.754   5.933   0.223  0.00  0.00    +0.019 C 
ATOM     31  C   UNL     1      -6.842   7.005   0.135  0.00  0.00    -0.008 C 
ATOM     32  C   UNL     1      -6.207   8.390   0.282  0.00  0.00    +0.007 C 
ATOM     33  C   UNL     1      -5.187   8.605  -0.838  0.00  0.00    -0.008 C 
ATOM     34  C   UNL     1      -4.099   7.533  -0.750  0.00  0.00    +0.019 C 
ATOM     35  C   UNL     1      -5.891   8.508  -2.193  0.00  0.00    +0.026 C 
ATOM     36  C   UNL     1      -6.526   7.123  -2.341  0.00  0.00    +0.047 C 
ATOM     37  C   UNL     1      -7.545   6.908  -1.220  0.00  0.00    +0.026 C 
ATOM     38  C   UNL     1      -5.438   6.051  -2.253  0.00  0.00    +0.039 C 
ATOM     39 CL   UNL     1      -7.354   7.009  -3.938  0.00  0.00    -0.118 Cl
ENDBRANCH  27  29
ENDBRANCH  24  25
ENDBRANCH   2  24
TORSDOF 9
