REMARK  Name = ZINC14979712
REMARK  12 active torsions:
REMARK  status: ('A' for Active; 'I' for Inactive)
REMARK    1  A    between atoms: C_1  and  C_2
REMARK    2  A    between atoms: C_2  and  O_3
REMARK    3  A    between atoms: O_3  and  C_4
REMARK    4  A    between atoms: C_8  and  C_11
REMARK    5  A    between atoms: C_9  and  O_10
REMARK    6  A    between atoms: C_11  and  N_68
REMARK    7  A    between atoms: C_14  and  C_17
REMARK    8  A    between atoms: C_17  and  C_19
REMARK    9  A    between atoms: C_17  and  N_27
REMARK   10  A    between atoms: C_19  and  C_20
REMARK   11  A    between atoms: N_27  and  C_28
REMARK   12  A    between atoms: C_29  and  C_31
REMARK                            x       y       z     vdW  Elec       q    Type
REMARK                         _______ _______ _______ _____ _____    ______ ____
ROOT
ATOM      1  C   UNL     1       2.954   1.288  -3.710  0.00  0.00    -0.078 C 
ATOM      2  C   UNL     1       2.200   1.013  -2.406  0.00  0.00    -0.013 C 
ATOM      3  C   UNL     1       3.137   1.259  -1.220  0.00  0.00    +0.006 C 
ATOM      4  C   UNL     1       3.656   2.699  -1.280  0.00  0.00    -0.013 C 
ATOM      5  C   UNL     1       4.367   2.925  -2.616  0.00  0.00    -0.078 C 
ATOM      6  N   UNL     1       3.405   2.695  -3.715  0.00  0.00    +0.382 N 
ATOM      7  H   UNL     1       2.591   3.307  -3.579  0.00  0.00    -0.081 HD
ENDROOT
BRANCH   6   8
ATOM      8  C   UNL     1       4.036   3.018  -5.012  0.00  0.00    -0.039 C 
BRANCH   8  13
ATOM      9  C   UNL     1       6.619   5.674  -4.237  0.00  0.00    +0.162 A 
ATOM     10  C   UNL     1       5.990   6.812  -4.716  0.00  0.00    +0.049 A 
ATOM     11  C   UNL     1       4.735   6.719  -5.288  0.00  0.00    +0.004 A 
ATOM     12  C   UNL     1       4.104   5.492  -5.383  0.00  0.00    +0.005 A 
ATOM     13  C   UNL     1       4.726   4.353  -4.907  0.00  0.00    -0.019 A 
ATOM     14  C   UNL     1       5.982   4.440  -4.328  0.00  0.00    +0.160 A 
BRANCH  14  15
ATOM     15  O   UNL     1       6.593   3.321  -3.855  0.00  0.00    -0.503 OA
ATOM     16  H   UNL     1       7.143   2.867  -4.508  0.00  0.00    +0.292 HD
ENDBRANCH  14  15
BRANCH   9  17
ATOM     17  O   UNL     1       7.854   5.763  -3.675  0.00  0.00    -0.489 OA
BRANCH  17  19
ATOM     18  C   UNL     1       9.822   6.965  -2.951  0.00  0.00    +0.048 C 
ATOM     19  C   UNL     1       8.445   7.063  -3.611  0.00  0.00    +0.226 C 
ENDBRANCH  17  19
ENDBRANCH   9  17
ENDBRANCH   8  13
ENDBRANCH   6   8
BRANCH   3  20
ATOM     20  C   UNL     1       2.372   1.045   0.088  0.00  0.00    +0.083 C 
BRANCH  20  21
ATOM     21  N   UNL     1       3.237   1.386   1.220  0.00  0.00    -0.294 N 
ATOM     22  C   UNL     1       4.542   0.736   1.368  0.00  0.00    +0.132 C 
ATOM     23  C   UNL     1       2.832   2.297   2.127  0.00  0.00    +0.282 C 
ATOM     24  O   UNL     1       1.787   2.899   1.960  0.00  0.00    -0.267 OA
BRANCH  23  25
ATOM     25  C   UNL     1       3.654   2.569   3.311  0.00  0.00    +0.189 A 
ATOM     26  C   UNL     1       3.317   3.387   4.351  0.00  0.00    +0.054 A 
ATOM     27  C   UNL     1       4.389   3.351   5.256  0.00  0.00    +0.042 A 
ATOM     28  C   UNL     1       5.322   2.524   4.735  0.00  0.00    +0.196 A 
ATOM     29  O   UNL     1       4.873   2.051   3.565  0.00  0.00    -0.458 OA
ENDBRANCH  23  25
ENDBRANCH  20  21
BRANCH  20  30
ATOM     30  C   UNL     1       1.946  -0.420   0.195  0.00  0.00    +0.059 C 
BRANCH  30  31
ATOM     31  C   UNL     1       1.089  -0.606   1.421  0.00  0.00    -0.027 A 
ATOM     32  C   UNL     1       1.659  -1.034   2.605  0.00  0.00    +0.005 A 
ATOM     33  C   UNL     1       0.874  -1.200   3.730  0.00  0.00    +0.000 A 
ATOM     34  C   UNL     1      -0.484  -0.947   3.670  0.00  0.00    +0.001 A 
ATOM     35  C   UNL     1      -1.056  -0.523   2.486  0.00  0.00    +0.020 A 
ATOM     36  C   UNL     1      -0.270  -0.353   1.360  0.00  0.00    +0.044 A 
ATOM     37 CL   UNL     1      -0.988   0.179  -0.128  0.00  0.00    -0.083 Cl
ENDBRANCH  30  31
ENDBRANCH  20  30
ENDBRANCH   3  20
TORSDOF 10
