REMARK  Name = ZINC44864539
REMARK  8 active torsions:
REMARK  status: ('A' for Active; 'I' for Inactive)
REMARK    1  A    between atoms: C_1  and  C_2
REMARK    2  A    between atoms: C_2  and  N_3
REMARK    3  A    between atoms: C_7  and  C_9
REMARK    4  A    between atoms: C_9  and  N_10
REMARK    5  A    between atoms: C_11  and  C_13
REMARK    6  A    between atoms: C_13  and  C_15
REMARK    7  A    between atoms: C_13  and  C_16
REMARK    8  A    between atoms: N_17  and  O_18
REMARK                            x       y       z     vdW  Elec       q    Type
REMARK                         _______ _______ _______ _____ _____    ______ ____
ROOT
ATOM      1  N   UNL     1      -1.592  -1.740   2.548  0.00  0.00    -0.316 N 
ATOM      2  C   UNL     1      -2.124  -1.971   3.765  0.00  0.00    +0.223 C 
ATOM      3  O   UNL     1      -3.055  -2.738   3.884  0.00  0.00    -0.275 OA
ATOM      4  H   UNL     1      -0.847  -1.126   2.453  0.00  0.00    +0.149 HD
ENDROOT
BRANCH   2   5
ATOM      5  C   UNL     1      -1.561  -1.275   4.977  0.00  0.00    +0.138 C 
ATOM      6  C   UNL     1      -1.687   0.240   4.800  0.00  0.00    +0.025 C 
BRANCH   5   7
ATOM      7  C   UNL     1      -2.327  -1.702   6.203  0.00  0.00    +0.143 C 
ATOM      8  N   UNL     1      -3.313  -0.986   6.631  0.00  0.00    -0.076 NA
ATOM      9  N   UNL     1      -1.976  -2.857   6.866  0.00  0.00    -0.343 N 
ATOM     10  H   UNL     1      -1.236  -3.395   6.545  0.00  0.00    +0.144 HD
ATOM     11  H   UNL     1      -2.469  -3.132   7.655  0.00  0.00    +0.144 HD
BRANCH   8  12
ATOM     12  O   UNL     1      -4.033  -1.387   7.782  0.00  0.00    -0.408 OA
ATOM     13  H   UNL     1      -4.752  -0.788   8.025  0.00  0.00    +0.328 HD
ENDBRANCH   8  12
ENDBRANCH   5   7
ENDBRANCH   2   5
BRANCH   1  14
ATOM     14  C   UNL     1      -2.139  -2.417   1.369  0.00  0.00    +0.089 C 
BRANCH  14  19
ATOM     15  N   UNL     1      -1.376  -0.512   0.012  0.00  0.00    +0.382 N 
ATOM     16  C   UNL     1      -2.052  -0.144  -1.250  0.00  0.00    -0.078 C 
ATOM     17  C   UNL     1      -1.892  -1.386  -2.162  0.00  0.00    -0.020 C 
ATOM     18  C   UNL     1      -2.041  -2.545  -1.141  0.00  0.00    -0.016 C 
ATOM     19  C   UNL     1      -1.362  -1.983   0.125  0.00  0.00    -0.051 C 
ATOM     20  H   UNL     1      -1.879  -0.117   0.793  0.00  0.00    -0.081 HD
BRANCH  15  22
ATOM     21  C   UNL     1      -0.019   1.526   0.010  0.00  0.00    -0.017 C 
ATOM     22  C   UNL     1       0.002  -0.004   0.002  0.00  0.00    -0.082 C 
ENDBRANCH  15  22
ENDBRANCH  14  19
ENDBRANCH   1  14
TORSDOF 6
