REMARK  Name = ZINC35872215
REMARK  13 active torsions:
REMARK  status: ('A' for Active; 'I' for Inactive)
REMARK    1  A    between atoms: C_1  and  C_2
REMARK    2  A    between atoms: C_2  and  N_3
REMARK    3  A    between atoms: C_5  and  C_12
REMARK    4  A    between atoms: C_12  and  C_14
REMARK    5  A    between atoms: C_12  and  C_29
REMARK    6  A    between atoms: C_14  and  C_15
REMARK    7  A    between atoms: N_17  and  C_18
REMARK    8  A    between atoms: C_18  and  C_19
REMARK    9  A    between atoms: C_19  and  C_20
REMARK   10  A    between atoms: C_20  and  N_21
REMARK   11  A    between atoms: C_26  and  C_28
REMARK   12  A    between atoms: C_33  and  O_35
REMARK   13  A    between atoms: O_35  and  C_36
REMARK                            x       y       z     vdW  Elec       q    Type
REMARK                         _______ _______ _______ _____ _____    ______ ____
ROOT
ATOM      1  C   UNL     1      -4.387  -1.698   1.583  0.00  0.00    +0.060 C 
ENDROOT
BRANCH   1   4
ATOM      2  N   UNL     1      -1.375  -0.362  -0.060  0.00  0.00    -0.347 N 
ATOM      3  C   UNL     1      -2.076  -0.780   1.038  0.00  0.00    +0.091 A 
ATOM      4  C   UNL     1      -3.308  -1.171   0.673  0.00  0.00    -0.014 A 
ATOM      5  C   UNL     1      -3.402  -0.990  -0.777  0.00  0.00    +0.004 A 
ATOM      6  C   UNL     1      -2.159  -0.472  -1.187  0.00  0.00    +0.049 A 
ATOM      7  C   UNL     1      -1.949  -0.189  -2.532  0.00  0.00    +0.026 A 
ATOM      8  C   UNL     1      -2.957  -0.413  -3.444  0.00  0.00    +0.002 A 
ATOM      9  C   UNL     1      -4.182  -0.920  -3.035  0.00  0.00    +0.001 A 
ATOM     10  C   UNL     1      -4.408  -1.214  -1.720  0.00  0.00    +0.010 A 
BRANCH   2  12
ATOM     11  C   UNL     1      -0.005   1.661   0.049  0.00  0.00    +0.027 C 
ATOM     12  C   UNL     1       0.004   0.133  -0.040  0.00  0.00    +0.118 C 
ENDBRANCH   2  12
ENDBRANCH   1   4
BRANCH   1  13
ATOM     13  C   UNL     1      -4.728  -0.653   2.615  0.00  0.00    -0.036 A 
ATOM     14  C   UNL     1      -3.752  -0.191   3.478  0.00  0.00    +0.004 A 
ATOM     15  C   UNL     1      -4.062   0.768   4.426  0.00  0.00    +0.004 A 
ATOM     16  C   UNL     1      -5.348   1.266   4.512  0.00  0.00    +0.046 A 
ATOM     17  C   UNL     1      -6.329   0.803   3.646  0.00  0.00    +0.129 A 
ATOM     18  C   UNL     1      -6.014  -0.154   2.693  0.00  0.00    +0.050 A 
BRANCH  17  19
ATOM     19  O   UNL     1      -7.594   1.292   3.729  0.00  0.00    -0.456 OA
BRANCH  19  20
ATOM     20  C   UNL     1      -8.577   0.449   4.141  0.00  0.00    +0.128 A 
ATOM     21  C   UNL     1      -8.258  -0.825   4.589  0.00  0.00    +0.046 A 
ATOM     22  C   UNL     1      -9.259  -1.680   5.008  0.00  0.00    +0.004 A 
ATOM     23  C   UNL     1     -10.579  -1.267   4.980  0.00  0.00    +0.000 A 
ATOM     24  C   UNL     1     -10.899   0.002   4.534  0.00  0.00    +0.004 A 
ATOM     25  C   UNL     1      -9.902   0.863   4.121  0.00  0.00    +0.046 A 
ENDBRANCH  19  20
ENDBRANCH  17  19
ENDBRANCH   1  13
BRANCH   1  26
ATOM     26  C   UNL     1      -3.891  -2.964   2.284  0.00  0.00    +0.108 C 
BRANCH  26  27
ATOM     27  C   UNL     1      -3.667  -4.048   1.262  0.00  0.00    +0.214 C 
ATOM     28  O   UNL     1      -3.882  -3.830   0.089  0.00  0.00    -0.276 OA
ATOM     29  N   UNL     1      -3.226  -5.261   1.653  0.00  0.00    -0.315 N 
ATOM     30  H   UNL     1      -3.053  -5.435   2.591  0.00  0.00    +0.149 HD
BRANCH  29  31
ATOM     31  C   UNL     1      -3.008  -6.316   0.659  0.00  0.00    +0.102 C 
BRANCH  31  32
ATOM     32  C   UNL     1      -2.511  -7.582   1.360  0.00  0.00    +0.000 C 
BRANCH  32  33
ATOM     33  C   UNL     1      -2.284  -8.683   0.323  0.00  0.00    -0.077 C 
BRANCH  33  34
ATOM     34  N   UNL     1      -1.807  -9.899   0.996  0.00  0.00    +0.381 N 
ATOM     35  C   UNL     1      -2.856 -10.405   1.889  0.00  0.00    -0.078 C 
ATOM     36  C   UNL     1      -2.336 -11.625   2.653  0.00  0.00    -0.019 C 
ATOM     37  C   UNL     1      -1.942 -12.716   1.654  0.00  0.00    -0.003 C 
ATOM     38  C   UNL     1      -0.902 -12.154   0.681  0.00  0.00    -0.016 C 
ATOM     39  C   UNL     1      -1.475 -10.915  -0.010  0.00  0.00    -0.072 C 
ATOM     40  C   UNL     1      -0.439 -10.349  -0.983  0.00  0.00    -0.013 C 
ATOM     41  H   UNL     1      -0.984  -9.681   1.538  0.00  0.00    -0.081 HD
ENDBRANCH  33  34
ENDBRANCH  32  33
ENDBRANCH  31  32
ENDBRANCH  29  31
ENDBRANCH  26  27
ENDBRANCH   1  26
TORSDOF 11
