REMARK  Name = ZINC36787348
REMARK  14 active torsions:
REMARK  status: ('A' for Active; 'I' for Inactive)
REMARK    1  A    between atoms: C_1  and  C_2
REMARK    2  A    between atoms: C_2  and  C_4
REMARK    3  A    between atoms: C_2  and  N_7
REMARK    4  A    between atoms: C_4  and  C_5
REMARK    5  A    between atoms: C_4  and  C_6
REMARK    6  A    between atoms: N_7  and  C_8
REMARK    7  A    between atoms: N_7  and  C_9
REMARK    8  A    between atoms: C_9  and  C_10
REMARK    9  A    between atoms: C_10  and  C_12
REMARK   10  A    between atoms: C_10  and  O_23
REMARK   11  A    between atoms: C_12  and  O_13
REMARK   12  A    between atoms: O_13  and  C_14
REMARK   13  A    between atoms: C_17  and  C_20
REMARK   14  A    between atoms: C_20  and  N_22
REMARK                            x       y       z     vdW  Elec       q    Type
REMARK                         _______ _______ _______ _____ _____    ______ ____
ROOT
ATOM      1  C   UNL     1      -2.522  -4.013   1.276  0.00  0.00    +0.258 C 
ENDROOT
BRANCH   1   2
ATOM      2  C   UNL     1      -2.599  -2.512   0.993  0.00  0.00    +0.135 C 
BRANCH   2   3
ATOM      3  O   UNL     1      -2.985  -1.821   2.183  0.00  0.00    -0.390 OA
ATOM      4  H   UNL     1      -2.375  -1.941   2.923  0.00  0.00    +0.210 HD
ENDBRANCH   2   3
BRANCH   2   5
ATOM      5  C   UNL     1      -1.229  -2.009   0.533  0.00  0.00    -0.044 C 
BRANCH   5   6
ATOM      6  N   UNL     1      -1.303  -0.567   0.261  0.00  0.00    +0.381 N 
ATOM      7  C   UNL     1      -2.211  -0.328  -0.869  0.00  0.00    -0.096 C 
ATOM      8  H   UNL     1      -1.649  -0.088   1.079  0.00  0.00    -0.082 HD
BRANCH   6  10
ATOM      9  C   UNL     1      -0.045   1.434  -0.380  0.00  0.00    -0.013 C 
ATOM     10  C   UNL     1       0.036  -0.062  -0.071  0.00  0.00    -0.069 C 
BRANCH  10  11
ATOM     11  C   UNL     1       0.976  -0.288   1.115  0.00  0.00    -0.031 C 
ATOM     12  C   UNL     1       2.373   0.226   0.764  0.00  0.00    +0.005 C 
ATOM     13  C   UNL     1       0.446   0.466   2.336  0.00  0.00    +0.005 C 
ENDBRANCH  10  11
ENDBRANCH   6  10
ENDBRANCH   5   6
ENDBRANCH   2   5
ENDBRANCH   1   2
BRANCH   1  14
ATOM     14  O   UNL     1      -3.826  -4.506   1.592  0.00  0.00    -0.489 OA
BRANCH  14  15
ATOM     15  C   UNL     1      -3.933  -5.830   1.871  0.00  0.00    +0.121 A 
ATOM     16  C   UNL     1      -2.803  -6.637   1.847  0.00  0.00    +0.046 A 
ATOM     17  C   UNL     1      -2.907  -7.981   2.129  0.00  0.00    +0.014 A 
ATOM     18  C   UNL     1      -4.153  -8.532   2.442  0.00  0.00    +0.003 A 
ATOM     19  C   UNL     1      -5.288  -7.716   2.466  0.00  0.00    +0.014 A 
ATOM     20  C   UNL     1      -5.173  -6.373   2.187  0.00  0.00    +0.046 A 
BRANCH  18  21
ATOM     21  C   UNL     1      -4.270  -9.970   2.745  0.00  0.00    +0.077 C 
ATOM     22  S   UNL     1      -3.008 -10.775   3.575  0.00  0.00    -0.035 S 
BRANCH  21  23
ATOM     23  N   UNL     1      -5.371 -10.651   2.368  0.00  0.00    -0.352 N 
ATOM     24  H   UNL     1      -6.086 -10.195   1.897  0.00  0.00    +0.143 HD
ATOM     25  H   UNL     1      -5.447 -11.597   2.567  0.00  0.00    +0.143 HD
ENDBRANCH  21  23
ENDBRANCH  18  21
ENDBRANCH  14  15
ENDBRANCH   1  14
TORSDOF 10
