REMARK  Name = ZINC45695322
REMARK  8 active torsions:
REMARK  status: ('A' for Active; 'I' for Inactive)
REMARK    1  A    between atoms: C_1  and  N_2
REMARK    2  A    between atoms: N_2  and  C_3
REMARK    3  A    between atoms: C_7  and  C_10
REMARK    4  A    between atoms: C_10  and  N_11
REMARK    5  A    between atoms: N_14  and  C_15
REMARK    6  A    between atoms: C_20  and  S_21
REMARK    7  A    between atoms: S_21  and  C_22
REMARK    8  A    between atoms: C_22  and  C_23
REMARK                            x       y       z     vdW  Elec       q    Type
REMARK                         _______ _______ _______ _____ _____    ______ ____
ROOT
ATOM      1  N   UNL     1      -1.388  -2.954  -5.344  0.00  0.00    -0.295 N 
ATOM      2  C   UNL     1      -1.637  -3.554  -6.525  0.00  0.00    +0.304 C 
ATOM      3  O   UNL     1      -0.715  -3.904  -7.236  0.00  0.00    -0.252 OA
ATOM      4  N   UNL     1      -2.909  -3.766  -6.918  0.00  0.00    -0.268 N 
ATOM      5  H   UNL     1      -2.124  -2.676  -4.777  0.00  0.00    +0.151 HD
ATOM      6  H   UNL     1      -3.643  -3.547  -6.324  0.00  0.00    +0.156 HD
ENDROOT
BRANCH   4   7
ATOM      7  C   UNL     1      -3.170  -4.304  -8.186  0.00  0.00    +0.048 A 
ATOM      8  C   UNL     1      -2.307  -5.239  -8.736  0.00  0.00    +0.024 A 
ATOM      9  C   UNL     1      -2.566  -5.768  -9.987  0.00  0.00    +0.002 A 
ATOM     10  C   UNL     1      -3.685  -5.367 -10.694  0.00  0.00    +0.001 A 
ATOM     11  C   UNL     1      -4.551  -4.435 -10.154  0.00  0.00    +0.016 A 
ATOM     12  C   UNL     1      -4.302  -3.903  -8.896  0.00  0.00    +0.030 A 
BRANCH  12  13
ATOM     13  S   UNL     1      -5.408  -2.721  -8.202  0.00  0.00    -0.114 S 
BRANCH  13  14
ATOM     14  C   UNL     1      -6.694  -2.527  -9.466  0.00  0.00    +0.169 C 
BRANCH  14  15
ATOM     15  C   UNL     1      -7.719  -1.529  -8.992  0.00  0.00    +0.221 C 
ATOM     16  O   UNL     1      -7.593  -1.000  -7.908  0.00  0.00    -0.275 OA
ATOM     17  N   UNL     1      -8.774  -1.223  -9.773  0.00  0.00    -0.329 N 
ATOM     18  H   UNL     1      -8.874  -1.646 -10.640  0.00  0.00    +0.145 HD
ATOM     19  H   UNL     1      -9.433  -0.581  -9.468  0.00  0.00    +0.145 HD
ENDBRANCH  14  15
ENDBRANCH  13  14
ENDBRANCH  12  13
ENDBRANCH   4   7
BRANCH   1  20
ATOM     20  C   UNL     1      -0.006  -2.724  -4.917  0.00  0.00    +0.142 C 
BRANCH  20  27
ATOM     21  C   UNL     1      -0.010   1.401   0.051  0.00  0.00    +0.130 C 
ATOM     22  N   UNL     1       0.006  -0.064   0.032  0.00  0.00    -0.323 N 
ATOM     23  C   UNL     1       0.026  -0.812   1.291  0.00  0.00    +0.130 C 
ATOM     24  C   UNL     1       0.003  -0.743  -1.180  0.00  0.00    +0.098 A 
ATOM     25  C   UNL     1       0.013  -2.134  -1.191  0.00  0.00    +0.042 A 
ATOM     26  C   UNL     1       0.010  -2.797  -2.405  0.00  0.00    +0.010 A 
ATOM     27  C   UNL     1      -0.003  -2.044  -3.572  0.00  0.00    -0.014 A 
ATOM     28  C   UNL     1      -0.012  -0.666  -3.487  0.00  0.00    +0.089 A 
ATOM     29  N   UNL     1      -0.014  -0.060  -2.315  0.00  0.00    -0.349 N 
ATOM     30  H   UNL     1      -0.025   0.909  -2.283  0.00  0.00    +0.167 HD
ENDBRANCH  20  27
ENDBRANCH   1  20
TORSDOF 6
