REMARK  Name = ZINC13681007
REMARK  6 active torsions:
REMARK  status: ('A' for Active; 'I' for Inactive)
REMARK    1  A    between atoms: C_3  and  O_8
REMARK    2  A    between atoms: C_6  and  O_7
REMARK    3  A    between atoms: O_8  and  C_9
REMARK    4  A    between atoms: C_12  and  C_16
REMARK    5  A    between atoms: C_16  and  C_17
REMARK    6  A    between atoms: C_17  and  N_32
REMARK                            x       y       z     vdW  Elec       q    Type
REMARK                         _______ _______ _______ _____ _____    ______ ____
ROOT
ATOM      1  C   UNL     1      -2.024   2.452   3.523  0.00  0.00    +0.141 A 
ATOM      2  C   UNL     1      -0.986   3.183   2.963  0.00  0.00    +0.047 A 
ATOM      3  C   UNL     1      -0.351   2.720   1.828  0.00  0.00    +0.007 A 
ATOM      4  C   UNL     1      -0.754   1.533   1.243  0.00  0.00    -0.048 A 
ATOM      5  C   UNL     1      -1.788   0.802   1.799  0.00  0.00    +0.021 A 
ATOM      6  C   UNL     1      -2.424   1.258   2.938  0.00  0.00    +0.056 A 
ATOM      7  I   UNL     1      -3.989   0.150   3.780  0.00  0.00    -0.040 I 
ENDROOT
BRANCH   1   8
ATOM      8  O   UNL     1      -2.648   2.903   4.643  0.00  0.00    -0.455 OA
BRANCH   8  11
ATOM      9  C   UNL     1      -2.560   2.201   8.212  0.00  0.00    +0.049 A 
ATOM     10  C   UNL     1      -2.951   2.726   6.996  0.00  0.00    +0.050 A 
ATOM     11  C   UNL     1      -2.263   2.387   5.840  0.00  0.00    +0.129 A 
ATOM     12  C   UNL     1      -1.184   1.517   5.906  0.00  0.00    +0.050 A 
ATOM     13  C   UNL     1      -0.790   0.996   7.123  0.00  0.00    +0.049 A 
ATOM     14  C   UNL     1      -1.478   1.335   8.278  0.00  0.00    +0.117 A 
BRANCH  14  15
ATOM     15  O   UNL     1      -1.093   0.819   9.476  0.00  0.00    -0.507 OA
ATOM     16  H   UNL     1      -1.524  -0.017   9.700  0.00  0.00    +0.292 HD
ENDBRANCH  14  15
ENDBRANCH   8  11
ENDBRANCH   1   8
BRANCH   4  17
ATOM     17  C   UNL     1      -0.062   1.033   0.001  0.00  0.00    +0.015 C 
BRANCH  17  18
ATOM     18  C   UNL     1      -0.775   1.582  -1.236  0.00  0.00    -0.082 C 
BRANCH  18  21
ATOM     19  H   UNL     1      -0.553   1.443  -3.278  0.00  0.00    -0.090 HD
ATOM     20  H   UNL     1       0.879   1.339  -2.438  0.00  0.00    -0.090 HD
ATOM     21  N   UNL     1      -0.104   1.069  -2.444  0.00  0.00    +0.378 N 
ATOM     22  H   UNL     1      -0.170   0.045  -2.458  0.00  0.00    -0.090 HD
ENDBRANCH  18  21
ENDBRANCH  17  18
ENDBRANCH   4  17
TORSDOF 6
