REMARK  Name = ZINC59915403
REMARK  11 active torsions:
REMARK  status: ('A' for Active; 'I' for Inactive)
REMARK    1  A    between atoms: C_1  and  C_2
REMARK    2  A    between atoms: C_2  and  C_3
REMARK    3  A    between atoms: C_3  and  C_4
REMARK    4  A    between atoms: C_4  and  C_5
REMARK    5  A    between atoms: C_5  and  C_26
REMARK    6  A    between atoms: N_6  and  N_7
REMARK    7  A    between atoms: C_11  and  S_14
REMARK    8  A    between atoms: N_12  and  N_13
REMARK    9  A    between atoms: S_14  and  C_15
REMARK   10  A    between atoms: C_15  and  C_16
REMARK   11  A    between atoms: N_18  and  C_19
REMARK                            x       y       z     vdW  Elec       q    Type
REMARK                         _______ _______ _______ _____ _____    ______ ____
ROOT
ATOM      1  N   UNL     1       3.217  -3.583  -3.557  0.00  0.00    -0.204 N 
ATOM      2  C   UNL     1       4.412  -4.281  -3.447  0.00  0.00    +0.254 A 
ATOM      3  N   UNL     1       5.031  -4.579  -2.331  0.00  0.00    -0.109 NA
ATOM      4  N   UNL     1       6.196  -5.285  -2.657  0.00  0.00    -0.119 NA
ATOM      5  C   UNL     1       6.251  -5.396  -3.962  0.00  0.00    +0.210 A 
ATOM      6  N   UNL     1       5.147  -4.784  -4.485  0.00  0.00    -0.211 N 
ATOM      7  H   UNL     1       2.832  -3.414  -4.431  0.00  0.00    +0.177 HD
ENDROOT
BRANCH   1   9
ATOM      8  C   UNL     1       1.464  -2.479  -2.506  0.00  0.00    +0.034 C 
ATOM      9  N   UNL     1       2.567  -3.123  -2.405  0.00  0.00    -0.189 NA
ATOM     10  C   UNL     1       0.867  -2.217  -3.864  0.00  0.00    +0.062 C 
BRANCH   8  11
ATOM     11  C   UNL     1       0.765  -1.984  -1.266  0.00  0.00    +0.052 C 
BRANCH  11  12
ATOM     12  C   UNL     1       0.749  -0.454  -1.267  0.00  0.00    +0.006 C 
BRANCH  12  14
ATOM     13  C   UNL     1       0.022   1.579  -0.009  0.00  0.00    +0.004 C 
ATOM     14  C   UNL     1       0.038   0.049  -0.009  0.00  0.00    -0.003 C 
ENDBRANCH  12  14
ENDBRANCH  11  12
ENDBRANCH   8  11
ENDBRANCH   1   9
BRANCH   6  15
ATOM     15  N   UNL     1       4.835  -4.688  -5.811  0.00  0.00    -0.294 N 
ATOM     16  H   UNL     1       5.230  -3.852  -6.216  0.00  0.00    +0.163 HD
ATOM     17  H   UNL     1       5.134  -5.510  -6.314  0.00  0.00    +0.163 HD
ENDBRANCH   6  15
BRANCH   5  18
ATOM     18  S   UNL     1       7.522  -6.200  -4.881  0.00  0.00    -0.075 S 
BRANCH  18  19
ATOM     19  C   UNL     1       8.670  -6.799  -3.611  0.00  0.00    +0.173 C 
BRANCH  19  20
ATOM     20  C   UNL     1       9.819  -7.516  -4.270  0.00  0.00    +0.227 C 
ATOM     21  O   UNL     1       9.861  -7.613  -5.479  0.00  0.00    -0.275 OA
ATOM     22  N   UNL     1      10.802  -8.050  -3.518  0.00  0.00    -0.285 N 
ATOM     23  H   UNL     1      10.805  -7.915  -2.557  0.00  0.00    +0.155 HD
BRANCH  22  24
ATOM     24  C   UNL     1      11.818  -8.798  -4.122  0.00  0.00    +0.033 A 
ATOM     25  C   UNL     1      12.361  -9.894  -3.464  0.00  0.00    +0.024 A 
ATOM     26  C   UNL     1      13.363 -10.631  -4.063  0.00  0.00    +0.016 A 
ATOM     27  C   UNL     1      13.828 -10.278  -5.317  0.00  0.00    +0.013 A 
ATOM     28  C   UNL     1      13.290  -9.187  -5.975  0.00  0.00    +0.016 A 
ATOM     29  C   UNL     1      12.283  -8.449  -5.383  0.00  0.00    +0.024 A 
ATOM     30  I   UNL     1      15.350 -11.398  -6.222  0.00  0.00    -0.044 I 
ENDBRANCH  22  24
ENDBRANCH  19  20
ENDBRANCH  18  19
ENDBRANCH   5  18
TORSDOF 9
