REMARK  Name = ZINC64147773
REMARK  8 active torsions:
REMARK  status: ('A' for Active; 'I' for Inactive)
REMARK    1  A    between atoms: C_1  and  N_2
REMARK    2  A    between atoms: N_2  and  C_3
REMARK    3  A    between atoms: C_3  and  C_4
REMARK    4  A    between atoms: C_9  and  N_10
REMARK    5  A    between atoms: C_16  and  C_18
REMARK    6  A    between atoms: C_18  and  C_20
REMARK    7  A    between atoms: C_18  and  N_30
REMARK    8  A    between atoms: C_20  and  C_21
REMARK                            x       y       z     vdW  Elec       q    Type
REMARK                         _______ _______ _______ _____ _____    ______ ____
ROOT
ATOM      1  C   UNL     1       0.045   0.070  -2.540  0.00  0.00    +0.165 C 
ENDROOT
BRANCH   1   2
ATOM      2  N   UNL     1       0.385  -0.839  -3.638  0.00  0.00    -0.288 N 
ATOM      3  C   UNL     1      -0.494  -1.784  -4.027  0.00  0.00    +0.298 C 
ATOM      4  O   UNL     1      -1.604  -1.822  -3.532  0.00  0.00    -0.253 OA
ATOM      5  N   UNL     1      -0.142  -2.686  -4.964  0.00  0.00    -0.313 N 
ATOM      6  H   UNL     1       1.242  -0.760  -4.085  0.00  0.00    +0.151 HD
ATOM      7  H   UNL     1       0.743  -2.655  -5.359  0.00  0.00    +0.146 HD
ATOM      8  H   UNL     1      -0.775  -3.366  -5.244  0.00  0.00    +0.146 HD
ENDBRANCH   1   2
BRANCH   1  11
ATOM      9  C   UNL     1       0.178   1.312   0.006  0.00  0.00    +0.132 C 
ATOM     10  N   UNL     1      -0.059  -0.131  -0.077  0.00  0.00    -0.299 N 
ATOM     11  C   UNL     1      -0.180  -0.725  -1.280  0.00  0.00    +0.236 C 
ATOM     12  O   UNL     1      -0.471  -1.901  -1.350  0.00  0.00    -0.274 OA
BRANCH  10  13
ATOM     13  C   UNL     1      -0.165  -0.928   1.148  0.00  0.00    +0.144 C 
BRANCH  13  14
ATOM     14  C   UNL     1       1.179  -1.527   1.474  0.00  0.00    -0.009 A 
ATOM     15  C   UNL     1       2.286  -1.195   0.718  0.00  0.00    +0.007 A 
ATOM     16  C   UNL     1       3.519  -1.745   1.017  0.00  0.00    +0.000 A 
ATOM     17  C   UNL     1       3.648  -2.629   2.073  0.00  0.00    +0.002 A 
ATOM     18  C   UNL     1       2.545  -2.965   2.833  0.00  0.00    +0.023 A 
ATOM     19  C   UNL     1       1.306  -2.410   2.539  0.00  0.00    +0.035 A 
BRANCH  19  20
ATOM     20  N   UNL     1       0.189  -2.743   3.309  0.00  0.00    -0.325 N 
ATOM     21  C   UNL     1      -0.716  -3.829   2.900  0.00  0.00    +0.133 C 
ATOM     22  C   UNL     1      -0.914  -4.769   4.094  0.00  0.00    +0.178 C 
ATOM     23  O   UNL     1      -1.314  -4.005   5.234  0.00  0.00    -0.377 OA
ATOM     24  C   UNL     1      -0.344  -3.048   5.667  0.00  0.00    +0.178 C 
ATOM     25  C   UNL     1      -0.113  -2.024   4.556  0.00  0.00    +0.133 C 
ENDBRANCH  19  20
ENDBRANCH  13  14
ENDBRANCH  10  13
ENDBRANCH   1  11
BRANCH   1  26
ATOM     26  C   UNL     1      -1.230   0.840  -2.892  0.00  0.00    +0.065 C 
BRANCH  26  27
ATOM     27  C   UNL     1      -0.968   1.730  -4.080  0.00  0.00    -0.039 C 
ATOM     28  C   UNL     1      -1.218   1.447  -5.378  0.00  0.00    -0.001 A 
ATOM     29  C   UNL     1      -1.787   0.272  -6.048  0.00  0.00    +0.010 A 
ATOM     30  C   UNL     1      -1.916   0.282  -7.395  0.00  0.00    +0.001 A 
ATOM     31  C   UNL     1      -1.521   1.385  -8.164  0.00  0.00    +0.002 A 
ATOM     32  C   UNL     1      -0.991   2.501  -7.621  0.00  0.00    +0.026 A 
ATOM     33  C   UNL     1      -0.809   2.599  -6.214  0.00  0.00    +0.043 A 
ATOM     34  N   UNL     1      -0.325   3.557  -5.461  0.00  0.00    -0.380 N 
ATOM     35  C   UNL     1      -0.377   3.122  -4.060  0.00  0.00    +0.144 C 
ATOM     36  H   UNL     1       0.009   4.411  -5.776  0.00  0.00    +0.160 HD
ENDBRANCH  26  27
ENDBRANCH   1  26
TORSDOF 7
