REMARK  Name = ZINC39631746
REMARK  14 active torsions:
REMARK  status: ('A' for Active; 'I' for Inactive)
REMARK    1  A    between atoms: C_1  and  C_2
REMARK    2  A    between atoms: C_2  and  C_3
REMARK    3  A    between atoms: C_3  and  C_5
REMARK    4  A    between atoms: C_3  and  C_11
REMARK    5  A    between atoms: C_15  and  C_24
REMARK    6  A    between atoms: N_26  and  C_27
REMARK    7  A    between atoms: C_27  and  C_29
REMARK    8  A    between atoms: C_27  and  C_30
REMARK    9  A    between atoms: C_30  and  C_31
REMARK   10  A    between atoms: C_31  and  C_32
REMARK   11  A    between atoms: C_32  and  C_33
REMARK   12  A    between atoms: C_33  and  C_34
REMARK   13  A    between atoms: C_33  and  C_35
REMARK   14  A    between atoms: C_33  and  O_36
REMARK                            x       y       z     vdW  Elec       q    Type
REMARK                         _______ _______ _______ _____ _____    ______ ____
ROOT
ATOM      1  C   UNL     1      -1.942  -0.067  -0.929  0.00  0.00    +0.223 C 
ATOM      2  O   UNL     1      -2.600  -0.898  -1.519  0.00  0.00    -0.275 OA
ATOM      3  N   UNL     1      -2.036   1.233  -1.271  0.00  0.00    -0.300 N 
ATOM      4  C   UNL     1      -1.393   2.394  -0.611  0.00  0.00    +0.121 C 
ATOM      5  C   UNL     1      -0.963   3.315  -1.775  0.00  0.00    +0.100 C 
ATOM      6  C   UNL     1      -1.895   2.938  -2.939  0.00  0.00    -0.004 C 
ATOM      7  C   UNL     1      -2.801   1.825  -2.394  0.00  0.00    +0.115 C 
ATOM      8  C   UNL     1      -1.082   2.418  -4.120  0.00  0.00    -0.010 C 
ATOM      9  C   UNL     1      -2.025   2.104  -5.285  0.00  0.00    -0.082 C 
ATOM     10  N   UNL     1      -2.757   3.318  -5.665  0.00  0.00    +0.379 N 
ATOM     11  C   UNL     1      -3.607   3.760  -4.554  0.00  0.00    -0.082 C 
ATOM     12  C   UNL     1      -2.731   4.144  -3.358  0.00  0.00    -0.010 C 
ATOM     13  H   UNL     1      -2.098   4.048  -5.893  0.00  0.00    -0.086 HD
ATOM     14  H   UNL     1      -3.332   3.124  -6.471  0.00  0.00    -0.086 HD
ENDROOT
BRANCH   5  15
ATOM     15  C   UNL     1      -1.150   4.761  -1.397  0.00  0.00    +0.218 C 
ATOM     16  O   UNL     1      -2.047   5.080  -0.644  0.00  0.00    -0.275 OA
ATOM     17  N   UNL     1      -0.322   5.701  -1.894  0.00  0.00    -0.312 N 
ATOM     18  H   UNL     1       0.395   5.446  -2.495  0.00  0.00    +0.149 HD
BRANCH  17  19
ATOM     19  C   UNL     1      -0.504   7.107  -1.526  0.00  0.00    +0.070 C 
ATOM     20  C   UNL     1       0.212   7.385  -0.203  0.00  0.00    +0.028 C 
BRANCH  19  21
ATOM     21  C   UNL     1       0.082   8.001  -2.621  0.00  0.00    +0.022 C 
BRANCH  21  22
ATOM     22  C   UNL     1      -0.716   7.814  -3.913  0.00  0.00    +0.005 C 
BRANCH  22  23
ATOM     23  C   UNL     1      -0.130   8.708  -5.008  0.00  0.00    +0.034 C 
BRANCH  23  24
ATOM     24  C   UNL     1      -0.927   8.521  -6.300  0.00  0.00    +0.061 C 
ATOM     25  C   UNL     1      -0.267   9.318  -7.426  0.00  0.00    +0.041 C 
ATOM     26  C   UNL     1      -0.954   7.037  -6.673  0.00  0.00    +0.041 C 
BRANCH  24  27
ATOM     27  O   UNL     1      -2.264   8.987  -6.106  0.00  0.00    -0.389 OA
ATOM     28  H   UNL     1      -2.829   8.899  -6.886  0.00  0.00    +0.210 HD
ENDBRANCH  24  27
ENDBRANCH  23  24
ENDBRANCH  22  23
ENDBRANCH  21  22
ENDBRANCH  19  21
ENDBRANCH  17  19
ENDBRANCH   5  15
BRANCH   1  29
ATOM     29  C   UNL     1      -1.020  -0.489   0.185  0.00  0.00    +0.105 C 
BRANCH  29  30
ATOM     30  C   UNL     1      -1.782  -0.513   1.486  0.00  0.00    -0.036 A 
ATOM     31  C   UNL     1      -2.876  -1.346   1.631  0.00  0.00    +0.004 A 
ATOM     32  C   UNL     1      -3.575  -1.368   2.823  0.00  0.00    +0.000 A 
ATOM     33  C   UNL     1      -3.179  -0.557   3.871  0.00  0.00    +0.000 A 
ATOM     34  C   UNL     1      -2.085   0.274   3.726  0.00  0.00    +0.000 A 
ATOM     35  C   UNL     1      -1.383   0.293   2.535  0.00  0.00    +0.004 A 
ENDBRANCH  29  30
BRANCH  29  37
ATOM     36  C   UNL     1       0.421  -1.831  -1.352  0.00  0.00    +0.005 C 
ATOM     37  C   UNL     1      -0.470  -1.886  -0.109  0.00  0.00    +0.014 C 
ENDBRANCH  29  37
ENDBRANCH   1  29
TORSDOF 10
