REMARK  Name = ZINC43429970
REMARK  8 active torsions:
REMARK  status: ('A' for Active; 'I' for Inactive)
REMARK    1  A    between atoms: C_1  and  C_2
REMARK    2  A    between atoms: C_2  and  C_4
REMARK    3  A    between atoms: C_2  and  N_14
REMARK    4  A    between atoms: N_14  and  CA_15
REMARK    5  A    between atoms: CA_15  and  CB_17
REMARK    6  A    between atoms: CA_15  and  C_20
REMARK    7  A    between atoms: CB_17  and  CG1_18
REMARK    8  A    between atoms: CB_17  and  CG2_19
REMARK                            x       y       z     vdW  Elec       q    Type
REMARK                         _______ _______ _______ _____ _____    ______ ____
ROOT
ATOM      1  C   UNK A   0      -0.019   1.526   0.010  0.00  0.00    -0.006 C 
ATOM      2  C   UNK A   0       0.002  -0.004   0.002  0.00  0.00    -0.006 C 
ENDROOT
BRANCH   2   3
ATOM      3  C   UNK A   0       0.707  -0.490  -1.238  0.00  0.00    +0.092 A 
ATOM      4  C   UNK A   0       1.978  -0.913  -1.282  0.00  0.00    +0.051 A 
ATOM      5  C   UNK A   0       2.237  -1.286  -2.677  0.00  0.00    +0.021 A 
ATOM      6  C   UNK A   0       3.343  -1.789  -3.362  0.00  0.00    +0.027 A 
ATOM      7  C   UNK A   0       3.250  -2.038  -4.714  0.00  0.00    +0.019 A 
ATOM      8  C   UNK A   0       2.063  -1.791  -5.391  0.00  0.00    +0.019 A 
ATOM      9  C   UNK A   0       0.964  -1.295  -4.725  0.00  0.00    +0.048 A 
ATOM     10  C   UNK A   0       1.036  -1.037  -3.362  0.00  0.00    +0.135 A 
ATOM     11  O   UNK A   0       0.151  -0.567  -2.459  0.00  0.00    -0.461 OA
ATOM     12 BR   UNK A   0       4.745  -2.719  -5.651  0.00  0.00    -0.050 Br
ENDBRANCH   2   3
BRANCH   2  13
ATOM     13  N   VAL A   1      -1.376  -0.512   0.012  0.00  0.00    +0.395 N 
ATOM     14  H1  VAL A   1      -1.888  -0.113  -0.760  0.00  0.00    -0.084 HD
ATOM     15  H2  VAL A   1      -1.364  -1.518  -0.076  0.00  0.00    -0.084 HD
BRANCH  13  16
ATOM     16  CA  VAL A   1      -2.026  -0.140   1.276  0.00  0.00    +0.047 C 
BRANCH  16  17
ATOM     17  CB  VAL A   1      -3.497  -0.559   1.236  0.00  0.00    -0.021 C 
ATOM     18  CG1 VAL A   1      -4.174  -0.171   2.552  0.00  0.00    +0.006 C 
ATOM     19  CG2 VAL A   1      -4.198   0.147   0.074  0.00  0.00    +0.006 C 
ENDBRANCH  16  17
BRANCH  16  20
ATOM     20  C   VAL A   1      -1.336  -0.836   2.421  0.00  0.00    +0.343 C 
ATOM     21  O   VAL A   1      -0.390  -1.574   2.204  0.00  0.00    -0.248 OA
ATOM     22  OXT VAL A   1      -1.723  -0.660   3.563  0.00  0.00    -0.248 OA
ENDBRANCH  16  20
ENDBRANCH  13  16
ENDBRANCH   2  13
TORSDOF 5
