REMARK  Name = ZINC09636268
REMARK  6 active torsions:
REMARK  status: ('A' for Active; 'I' for Inactive)
REMARK    1  A    between atoms: C_6  and  C_12
REMARK    2  A    between atoms: C_7  and  O_11
REMARK    3  A    between atoms: C_12  and  C_14
REMARK    4  A    between atoms: C_12  and  N_21
REMARK    5  A    between atoms: N_21  and  C_22
REMARK    6  A    between atoms: C_23  and  O_27
REMARK                            x       y       z     vdW  Elec       q    Type
REMARK                         _______ _______ _______ _____ _____    ______ ____
ROOT
ATOM      1  C   UNL     1       1.374   5.885   0.022  0.00  0.00    +0.136 C 
ENDROOT
BRANCH   1   7
ATOM      2  C   UNL     1       1.757  11.912   2.242  0.00  0.00    +0.020 A 
ATOM      3  C   UNL     1       0.642  11.208   1.887  0.00  0.00    +0.011 A 
ATOM      4  C   UNL     1       0.808   9.890   1.424  0.00  0.00    +0.004 A 
ATOM      5  C   UNL     1      -0.292   9.105   1.041  0.00  0.00    +0.010 A 
ATOM      6  C   UNL     1      -0.091   7.835   0.592  0.00  0.00    +0.010 A 
ATOM      7  C   UNL     1       1.190   7.296   0.517  0.00  0.00    +0.021 A 
ATOM      8  C   UNL     1       2.284   8.028   0.881  0.00  0.00    +0.148 A 
ATOM      9  C   UNL     1       2.116   9.350   1.345  0.00  0.00    +0.113 A 
ATOM     10  N   UNL     1       3.165  10.092   1.709  0.00  0.00    -0.251 NA
ATOM     11  C   UNL     1       3.014  11.321   2.141  0.00  0.00    +0.111 A 
BRANCH   8  12
ATOM     12  O   UNL     1       3.527   7.487   0.796  0.00  0.00    -0.504 OA
ATOM     13  H   UNL     1       3.961   7.631  -0.056  0.00  0.00    +0.292 HD
ENDBRANCH   8  12
ENDBRANCH   1   7
BRANCH   1  14
ATOM     14  C   UNL     1       1.715   5.908  -1.446  0.00  0.00    -0.023 A 
ATOM     15  C   UNL     1       0.714   6.066  -2.386  0.00  0.00    +0.007 A 
ATOM     16  C   UNL     1       1.027   6.092  -3.732  0.00  0.00    +0.015 A 
ATOM     17  C   UNL     1       2.342   5.950  -4.139  0.00  0.00    +0.018 A 
ATOM     18  C   UNL     1       3.343   5.787  -3.198  0.00  0.00    +0.015 A 
ATOM     19  C   UNL     1       3.029   5.766  -1.852  0.00  0.00    +0.007 A 
ATOM     20 BR   UNL     1       2.770   5.979  -5.980  0.00  0.00    -0.050 Br
ENDBRANCH   1  14
BRANCH   1  21
ATOM     21  N   UNL     1       0.133   5.131   0.222  0.00  0.00    -0.317 N 
ATOM     22  H   UNL     1      -0.497   5.032  -0.508  0.00  0.00    +0.148 HD
BRANCH  21  23
ATOM     23  C   UNL     1      -0.141   4.558   1.461  0.00  0.00    +0.139 A 
ATOM     24  C   UNL     1      -1.324   3.842   1.646  0.00  0.00    +0.155 A 
ATOM     25  C   UNL     1      -1.579   3.272   2.885  0.00  0.00    +0.050 A 
ATOM     26  C   UNL     1      -0.646   3.449   3.899  0.00  0.00    +0.021 A 
ATOM     27  C   UNL     1       0.502   4.169   3.644  0.00  0.00    +0.084 A 
ATOM     28  N   UNL     1       0.790   4.737   2.441  0.00  0.00    -0.347 N 
ATOM     29  H   UNL     1       1.654   5.268   2.282  0.00  0.00    +0.167 HD
BRANCH  24  30
ATOM     30  O   UNL     1      -2.212   3.700   0.626  0.00  0.00    -0.503 OA
ATOM     31  H   UNL     1      -2.060   2.918   0.078  0.00  0.00    +0.292 HD
ENDBRANCH  24  30
ENDBRANCH  21  23
ENDBRANCH   1  21
TORSDOF 6
