REMARK  Name = ZINC57845730
REMARK  10 active torsions:
REMARK  status: ('A' for Active; 'I' for Inactive)
REMARK    1  A    between atoms: C_1  and  C_2
REMARK    2  A    between atoms: C_2  and  C_4
REMARK    3  A    between atoms: C_2  and  N_6
REMARK    4  A    between atoms: C_4  and  N_5
REMARK    5  A    between atoms: C_9  and  C_13
REMARK    6  A    between atoms: C_9  and  C_14
REMARK    7  A    between atoms: C_17  and  O_20
REMARK    8  A    between atoms: O_20  and  C_21
REMARK    9  A    between atoms: C_21  and  C_22
REMARK   10  A    between atoms: C_22  and  C_24
REMARK                            x       y       z     vdW  Elec       q    Type
REMARK                         _______ _______ _______ _____ _____    ______ ____
ROOT
ATOM      1  N   UNL     1       0.688  -0.476  -1.203  0.00  0.00    -0.223 N 
ATOM      2  C   UNL     1       0.116  -1.253  -2.145  0.00  0.00    +0.251 C 
ATOM      3  O   UNL     1      -1.020  -1.676  -2.154  0.00  0.00    -0.272 OA
ATOM      4  C   UNL     1       1.188  -1.486  -3.191  0.00  0.00    +0.135 C 
ATOM      5  N   UNL     1       2.348  -0.745  -2.668  0.00  0.00    -0.281 N 
ATOM      6  C   UNL     1       1.958  -0.186  -1.508  0.00  0.00    +0.310 C 
ATOM      7  O   UNL     1       2.679   0.503  -0.814  0.00  0.00    -0.252 OA
ATOM      8  C   UNL     1       1.510  -2.977  -3.308  0.00  0.00    +0.047 C 
ATOM      9  H   UNL     1       3.223  -0.671  -3.081  0.00  0.00    +0.152 HD
ENDROOT
BRANCH   4  10
ATOM     10  C   UNL     1       0.759  -0.928  -4.523  0.00  0.00    -0.015 A 
ATOM     11  C   UNL     1      -0.584  -0.879  -4.851  0.00  0.00    +0.010 A 
ATOM     12  C   UNL     1      -0.980  -0.369  -6.072  0.00  0.00    +0.046 A 
ATOM     13  C   UNL     1      -0.029   0.095  -6.970  0.00  0.00    +0.121 A 
ATOM     14  C   UNL     1       1.317   0.044  -6.639  0.00  0.00    +0.046 A 
ATOM     15  C   UNL     1       1.708  -0.462  -5.414  0.00  0.00    +0.010 A 
BRANCH  13  16
ATOM     16  O   UNL     1      -0.416   0.597  -8.172  0.00  0.00    -0.488 OA
BRANCH  16  17
ATOM     17  C   UNL     1       0.618   1.056  -9.046  0.00  0.00    +0.259 C 
BRANCH  17  18
ATOM     18  C   UNL     1       0.003   1.573 -10.321  0.00  0.00    -0.043 C 
ATOM     19  C   UNL     1      -1.297   1.550 -10.479  0.00  0.00    +0.011 C 
ATOM     20  C   UNL     1       0.885   2.118 -11.415  0.00  0.00    +0.042 C 
ENDBRANCH  17  18
ENDBRANCH  16  17
ENDBRANCH  13  16
ENDBRANCH   4  10
BRANCH   1  22
ATOM     21  C   UNL     1      -0.019   1.526   0.010  0.00  0.00    +0.026 C 
ATOM     22  C   UNL     1       0.002  -0.004   0.002  0.00  0.00    +0.065 C 
BRANCH  22  23
ATOM     23  C   UNL     1       0.742  -0.511   1.242  0.00  0.00    -0.063 C 
BRANCH  23  24
ATOM     24  N   UNL     1       0.867  -1.973   1.174  0.00  0.00    +0.379 N 
ATOM     25  H   UNL     1      -0.052  -2.388   1.138  0.00  0.00    -0.090 HD
ATOM     26  H   UNL     1       1.384  -2.228   0.346  0.00  0.00    -0.090 HD
ATOM     27  H   UNL     1       1.355  -2.307   1.991  0.00  0.00    -0.090 HD
ENDBRANCH  23  24
ENDBRANCH  22  23
ENDBRANCH   1  22
TORSDOF 7
