REMARK  Name = ZINC63437509
REMARK  12 active torsions:
REMARK  status: ('A' for Active; 'I' for Inactive)
REMARK    1  A    between atoms: C_1  and  C_2
REMARK    2  A    between atoms: C_2  and  O_3
REMARK    3  A    between atoms: O_3  and  C_4
REMARK    4  A    between atoms: N_6  and  C_7
REMARK    5  A    between atoms: C_7  and  C_9
REMARK    6  A    between atoms: C_7  and  C_19
REMARK    7  A    between atoms: C_9  and  C_10
REMARK    8  A    between atoms: N_21  and  C_22
REMARK    9  A    between atoms: C_22  and  C_23
REMARK   10  A    between atoms: C_23  and  C_24
REMARK   11  A    between atoms: C_27  and  S_30
REMARK   12  A    between atoms: S_30  and  N_33
REMARK                            x       y       z     vdW  Elec       q    Type
REMARK                         _______ _______ _______ _____ _____    ______ ____
ROOT
ATOM      1  C   UNL     1      -2.907  -3.823   0.009  0.00  0.00    +0.166 C 
ENDROOT
BRANCH   1   4
ATOM      2  C   UNL     1      -1.497  -1.836   0.006  0.00  0.00    +0.401 C 
ATOM      3  O   UNL     1      -0.523  -2.563  -0.007  0.00  0.00    -0.226 OA
ATOM      4  N   UNL     1      -2.735  -2.368   0.015  0.00  0.00    -0.270 N 
ATOM      5  H   UNL     1      -3.512  -1.787   0.026  0.00  0.00    +0.153 HD
BRANCH   2   6
ATOM      6  O   UNL     1      -1.339  -0.499   0.012  0.00  0.00    -0.451 OA
BRANCH   6   8
ATOM      7  C   UNL     1      -0.019   1.526   0.010  0.00  0.00    +0.048 C 
ATOM      8  C   UNL     1       0.002  -0.004   0.002  0.00  0.00    +0.230 C 
ENDBRANCH   6   8
ENDBRANCH   2   6
ENDBRANCH   1   4
BRANCH   1   9
ATOM      9  C   UNL     1      -2.249  -4.412   1.230  0.00  0.00    +0.234 C 
ATOM     10  O   UNL     1      -1.402  -3.781   1.826  0.00  0.00    -0.274 OA
ATOM     11  N   UNL     1      -2.602  -5.639   1.660  0.00  0.00    -0.313 N 
ATOM     12  H   UNL     1      -3.280  -6.143   1.184  0.00  0.00    +0.149 HD
BRANCH  11  13
ATOM     13  C   UNL     1      -1.963  -6.212   2.847  0.00  0.00    +0.109 C 
BRANCH  13  14
ATOM     14  C   UNL     1      -2.540  -7.602   3.117  0.00  0.00    +0.054 C 
BRANCH  14  15
ATOM     15  C   UNL     1      -1.882  -8.191   4.338  0.00  0.00    -0.046 A 
ATOM     16  C   UNL     1      -0.729  -8.943   4.208  0.00  0.00    +0.005 A 
ATOM     17  C   UNL     1      -0.126  -9.483   5.328  0.00  0.00    +0.029 A 
ATOM     18  C   UNL     1      -0.674  -9.271   6.579  0.00  0.00    +0.105 A 
ATOM     19  C   UNL     1      -1.827  -8.519   6.710  0.00  0.00    +0.029 A 
ATOM     20  C   UNL     1      -2.428  -7.975   5.590  0.00  0.00    +0.005 A 
BRANCH  18  21
ATOM     21  S   UNL     1       0.095  -9.961   8.006  0.00  0.00    +0.056 S 
ATOM     22  O   UNL     1      -0.917 -10.074   8.998  0.00  0.00    -0.153 OA
ATOM     23  O   UNL     1       0.852 -11.077   7.560  0.00  0.00    -0.153 OA
BRANCH  21  24
ATOM     24  N   UNL     1       1.182  -8.844   8.565  0.00  0.00    -0.204 NA
ATOM     25  H   UNL     1       1.386  -8.797   9.512  0.00  0.00    +0.144 HD
ATOM     26  H   UNL     1       1.614  -8.236   7.945  0.00  0.00    +0.144 HD
ENDBRANCH  21  24
ENDBRANCH  18  21
ENDBRANCH  14  15
ENDBRANCH  13  14
ENDBRANCH  11  13
ENDBRANCH   1   9
BRANCH   1  27
ATOM     27  C   UNL     1      -2.263  -4.407  -1.249  0.00  0.00    +0.065 C 
BRANCH  27  28
ATOM     28  C   UNL     1      -3.001  -3.913  -2.467  0.00  0.00    -0.039 C 
ATOM     29  C   UNL     1      -2.677  -2.850  -3.239  0.00  0.00    -0.001 A 
ATOM     30  C   UNL     1      -1.583  -1.873  -3.176  0.00  0.00    +0.010 A 
ATOM     31  C   UNL     1      -1.522  -0.898  -4.111  0.00  0.00    +0.001 A 
ATOM     32  C   UNL     1      -2.474  -0.797  -5.135  0.00  0.00    +0.002 A 
ATOM     33  C   UNL     1      -3.507  -1.657  -5.258  0.00  0.00    +0.026 A 
ATOM     34  C   UNL     1      -3.669  -2.722  -4.330  0.00  0.00    +0.043 A 
ATOM     35  N   UNL     1      -4.571  -3.669  -4.237  0.00  0.00    -0.380 N 
ATOM     36  C   UNL     1      -4.249  -4.509  -3.078  0.00  0.00    +0.144 C 
ATOM     37  H   UNL     1      -5.323  -3.795  -4.836  0.00  0.00    +0.160 HD
ENDBRANCH  27  28
ENDBRANCH   1  27
TORSDOF 11
