REMARK  Name = ZINC60061351
REMARK  10 active torsions:
REMARK  status: ('A' for Active; 'I' for Inactive)
REMARK    1  A    between atoms: C_1  and  C_2
REMARK    2  A    between atoms: C_5  and  C_7
REMARK    3  A    between atoms: C_7  and  C_8
REMARK    4  A    between atoms: C_7  and  C_27
REMARK    5  A    between atoms: C_7  and  O_31
REMARK    6  A    between atoms: C_8  and  C_9
REMARK    7  A    between atoms: N_11  and  C_12
REMARK    8  A    between atoms: C_12  and  C_13
REMARK    9  A    between atoms: C_13  and  C_15
REMARK   10  A    between atoms: C_13  and  N_22
REMARK                            x       y       z     vdW  Elec       q    Type
REMARK                         _______ _______ _______ _____ _____    ______ ____
ROOT
ATOM      1  C   UNL     1      -1.348  -6.123   5.137  0.00  0.00    +0.216 C 
ATOM      2  O   UNL     1      -0.501  -5.256   5.091  0.00  0.00    -0.276 OA
ATOM      3  N   UNL     1      -1.175  -7.270   4.450  0.00  0.00    -0.316 N 
ATOM      4  H   UNL     1      -1.853  -7.964   4.486  0.00  0.00    +0.149 HD
ENDROOT
BRANCH   1   5
ATOM      5  C   UNL     1      -2.592  -5.918   5.961  0.00  0.00    +0.146 C 
BRANCH   5   6
ATOM      6  C   UNL     1      -2.592  -4.503   6.542  0.00  0.00    +0.217 C 
BRANCH   6  11
ATOM      7  C   UNL     1       0.436  -2.072   9.699  0.00  0.00    +0.066 C 
ATOM      8  C   UNL     1       0.025  -3.286   8.906  0.00  0.00    +0.046 A 
ATOM      9  C   UNL     1       0.744  -4.437   8.945  0.00  0.00    +0.070 A 
ATOM     10  S   UNL     1      -0.215  -5.462   7.841  0.00  0.00    -0.077 S 
ATOM     11  C   UNL     1      -1.405  -4.336   7.456  0.00  0.00    +0.119 A 
ATOM     12  N   UNL     1      -1.053  -3.280   8.147  0.00  0.00    -0.246 NA
ENDBRANCH   6  11
BRANCH   6  13
ATOM     13  C   UNL     1      -3.881  -4.276   7.334  0.00  0.00    +0.425 C 
ATOM     14  F   UNL     1      -3.929  -2.951   7.778  0.00  0.00    -0.167 F 
ATOM     15  F   UNL     1      -4.984  -4.533   6.512  0.00  0.00    -0.167 F 
ATOM     16  F   UNL     1      -3.910  -5.138   8.435  0.00  0.00    -0.167 F 
ENDBRANCH   6  13
BRANCH   6  17
ATOM     17  O   UNL     1      -2.512  -3.552   5.479  0.00  0.00    -0.374 OA
ATOM     18  H   UNL     1      -1.718  -3.636   4.934  0.00  0.00    +0.211 HD
ENDBRANCH   6  17
ENDBRANCH   5   6
ENDBRANCH   1   5
BRANCH   3  19
ATOM     19  C   UNL     1       0.035  -7.470   3.649  0.00  0.00    +0.093 C 
BRANCH  19  20
ATOM     20  C   UNL     1       0.043  -8.891   3.083  0.00  0.00    -0.020 C 
BRANCH  20  21
ATOM     21  C   UNL     1       0.163  -9.881   4.213  0.00  0.00    -0.058 A 
ATOM     22  C   UNL     1       1.397 -10.132   4.783  0.00  0.00    +0.002 A 
ATOM     23  C   UNL     1       1.508 -11.040   5.819  0.00  0.00    +0.002 A 
ATOM     24  C   UNL     1       0.386 -11.698   6.286  0.00  0.00    +0.020 A 
ATOM     25  C   UNL     1      -0.849 -11.447   5.715  0.00  0.00    +0.041 A 
ATOM     26  C   UNL     1      -0.961 -10.533   4.682  0.00  0.00    +0.022 A 
ATOM     27 CL   UNL     1      -2.260 -12.273   6.300  0.00  0.00    -0.084 Cl
ENDBRANCH  20  21
BRANCH  20  28
ATOM     28  N   UNL     1       1.184  -9.048   2.171  0.00  0.00    +0.385 N 
ATOM     29  C   UNL     1       1.128 -10.374   1.504  0.00  0.00    -0.078 C 
ATOM     30  C   UNL     1       1.992 -10.170   0.235  0.00  0.00    -0.020 C 
ATOM     31  C   UNL     1       1.644  -8.725  -0.192  0.00  0.00    -0.020 C 
ATOM     32  C   UNL     1       1.109  -8.047   1.084  0.00  0.00    -0.078 C 
ATOM     33  H   UNL     1       2.051  -8.948   2.677  0.00  0.00    -0.081 HD
ENDBRANCH  20  28
ENDBRANCH  19  20
ENDBRANCH   3  19
TORSDOF 9
