REMARK  Name = ZINC27554997
REMARK  10 active torsions:
REMARK  status: ('A' for Active; 'I' for Inactive)
REMARK    1  A    between atoms: C_1  and  C_2
REMARK    2  A    between atoms: C_2  and  C_4
REMARK    3  A    between atoms: C_2  and  N_9
REMARK    4  A    between atoms: N_9  and  C_10
REMARK    5  A    between atoms: N_9  and  C_11
REMARK    6  A    between atoms: C_11  and  C_12
REMARK    7  A    between atoms: N_14  and  C_15
REMARK    8  A    between atoms: C_20  and  S_21
REMARK    9  A    between atoms: S_21  and  C_22
REMARK   10  A    between atoms: C_22  and  C_23
REMARK                            x       y       z     vdW  Elec       q    Type
REMARK                         _______ _______ _______ _____ _____    ______ ____
ROOT
ATOM      1  C   UNL     1       1.346  -2.461   2.467  0.00  0.00    +0.201 C 
ATOM      2  O   UNL     1       1.736  -1.672   3.301  0.00  0.00    -0.278 OA
ATOM      3  N   UNL     1       1.476  -3.785   2.678  0.00  0.00    -0.286 N 
ATOM      4  H   UNL     1       1.106  -4.417   2.041  0.00  0.00    +0.155 HD
ENDROOT
BRANCH   3   5
ATOM      5  C   UNL     1       2.146  -4.250   3.818  0.00  0.00    +0.047 A 
ATOM      6  C   UNL     1       2.051  -3.553   5.013  0.00  0.00    +0.024 A 
ATOM      7  C   UNL     1       2.713  -4.014   6.136  0.00  0.00    +0.002 A 
ATOM      8  C   UNL     1       3.470  -5.170   6.073  0.00  0.00    +0.001 A 
ATOM      9  C   UNL     1       3.570  -5.871   4.887  0.00  0.00    +0.016 A 
ATOM     10  C   UNL     1       2.905  -5.420   3.755  0.00  0.00    +0.030 A 
BRANCH  10  11
ATOM     11  S   UNL     1       3.024  -6.315   2.243  0.00  0.00    -0.114 S 
BRANCH  11  12
ATOM     12  C   UNL     1       4.091  -7.724   2.651  0.00  0.00    +0.169 C 
BRANCH  12  13
ATOM     13  C   UNL     1       4.278  -8.584   1.427  0.00  0.00    +0.221 C 
ATOM     14  O   UNL     1       3.744  -8.276   0.383  0.00  0.00    -0.275 OA
ATOM     15  N   UNL     1       5.039  -9.695   1.493  0.00  0.00    -0.329 N 
ATOM     16  H   UNL     1       5.466  -9.941   2.329  0.00  0.00    +0.145 HD
ATOM     17  H   UNL     1       5.159 -10.248   0.706  0.00  0.00    +0.145 HD
ENDBRANCH  12  13
ENDBRANCH  11  12
ENDBRANCH  10  11
ENDBRANCH   3   5
BRANCH   1  18
ATOM     18  C   UNL     1       0.716  -1.959   1.193  0.00  0.00    +0.019 C 
BRANCH  18  19
ATOM     19  N   UNL     1       0.692  -0.490   1.204  0.00  0.00    +0.388 N 
ATOM     20  C   UNL     1       2.068   0.022   1.185  0.00  0.00    -0.095 C 
ATOM     21  H   UNL     1       0.224  -0.168   2.038  0.00  0.00    -0.081 HD
BRANCH  19  23
ATOM     22  C   UNL     1      -0.054   1.526   0.031  0.00  0.00    -0.008 C 
ATOM     23  C   UNL     1      -0.029  -0.004   0.020  0.00  0.00    -0.034 C 
BRANCH  23  24
ATOM     24  C   UNL     1      -1.441  -0.530   0.039  0.00  0.00    -0.024 A 
ATOM     25  C   UNL     1      -2.192  -0.997  -0.988  0.00  0.00    +0.009 A 
ATOM     26  C   UNL     1      -3.478  -1.434  -0.733  0.00  0.00    +0.008 A 
ATOM     27  C   UNL     1      -3.950  -1.383   0.537  0.00  0.00    +0.045 A 
ATOM     28  S   UNL     1      -2.555  -0.707   1.423  0.00  0.00    -0.103 S 
ENDBRANCH  23  24
ENDBRANCH  19  23
ENDBRANCH  18  19
ENDBRANCH   1  18
TORSDOF 8
