REMARK  Name = ZINC44165757
REMARK  4 active torsions:
REMARK  status: ('A' for Active; 'I' for Inactive)
REMARK    1  A    between atoms: C_6  and  C_7
REMARK    2  A    between atoms: C_7  and  N_8
REMARK    3  A    between atoms: C_9  and  C_11
REMARK    4  A    between atoms: C_16  and  C_19
REMARK                            x       y       z     vdW  Elec       q    Type
REMARK                         _______ _______ _______ _____ _____    ______ ____
ROOT
ATOM      1  C   UNL     1      -3.312  -1.942  -3.025  0.00  0.00    +0.027 C 
ATOM      2  C   UNL     1      -3.636  -0.604  -3.700  0.00  0.00    +0.062 C 
ATOM      3  S   UNL     1      -4.926   0.230  -2.724  0.00  0.00    -0.163 S 
ATOM      4  C   UNL     1      -6.178  -1.075  -2.521  0.00  0.00    +0.058 C 
ATOM      5  C   UNL     1      -5.475  -2.343  -2.022  0.00  0.00    -0.030 C 
ATOM      6  N   UNL     1      -4.503  -2.795  -3.019  0.00  0.00    +0.392 N 
ATOM      7  H   UNL     1      -4.931  -2.772  -3.932  0.00  0.00    -0.084 HD
ATOM      8  H   UNL     1      -4.230  -3.742  -2.805  0.00  0.00    -0.084 HD
ENDROOT
BRANCH   5   9
ATOM      9  C   UNL     1      -6.497  -3.426  -1.794  0.00  0.00    -0.058 A 
ATOM     10  C   UNL     1      -6.976  -4.160  -2.863  0.00  0.00    +0.005 A 
ATOM     11  C   UNL     1      -7.914  -5.154  -2.656  0.00  0.00    +0.041 A 
ATOM     12  C   UNL     1      -8.374  -5.416  -1.377  0.00  0.00    +0.158 A 
ATOM     13  C   UNL     1      -7.893  -4.681  -0.305  0.00  0.00    +0.159 A 
ATOM     14  C   UNL     1      -6.950  -3.689  -0.515  0.00  0.00    +0.043 A 
ATOM     15  F   UNL     1      -8.340  -4.934   0.945  0.00  0.00    -0.202 F 
ATOM     16  F   UNL     1      -9.291  -6.387  -1.174  0.00  0.00    -0.202 F 
ENDBRANCH   5   9
BRANCH   1  18
ATOM     17  N   UNL     1      -3.017  -2.655  -0.675  0.00  0.00    -0.313 N 
ATOM     18  C   UNL     1      -2.867  -1.693  -1.607  0.00  0.00    +0.200 C 
ATOM     19  O   UNL     1      -2.374  -0.627  -1.305  0.00  0.00    -0.278 OA
ATOM     20  H   UNL     1      -3.412  -3.507  -0.917  0.00  0.00    +0.149 HD
BRANCH  17  21
ATOM     21  C   UNL     1      -2.584  -2.412   0.704  0.00  0.00    +0.139 C 
BRANCH  21  27
ATOM     22  C   UNL     1      -1.901  -4.623   1.656  0.00  0.00    +0.008 A 
ATOM     23  C   UNL     1      -2.152  -5.746   2.422  0.00  0.00    +0.041 A 
ATOM     24  C   UNL     1      -3.365  -5.883   3.073  0.00  0.00    +0.158 A 
ATOM     25  C   UNL     1      -4.329  -4.891   2.956  0.00  0.00    +0.159 A 
ATOM     26  C   UNL     1      -4.074  -3.769   2.188  0.00  0.00    +0.046 A 
ATOM     27  C   UNL     1      -2.861  -3.635   1.539  0.00  0.00    -0.027 A 
ATOM     28  F   UNL     1      -5.514  -5.022   3.590  0.00  0.00    -0.202 F 
ATOM     29  F   UNL     1      -3.612  -6.980   3.821  0.00  0.00    -0.202 F 
ENDBRANCH  21  27
ENDBRANCH  17  21
ENDBRANCH   1  18
TORSDOF 4
