REMARK  Name = ZINC16219349
REMARK  11 active torsions:
REMARK  status: ('A' for Active; 'I' for Inactive)
REMARK    1  A    between atoms: C_1  and  C_2
REMARK    2  A    between atoms: C_7  and  N_8
REMARK    3  A    between atoms: N_8  and  C_9
REMARK    4  A    between atoms: C_9  and  N_11
REMARK    5  A    between atoms: N_11  and  N_12
REMARK    6  A    between atoms: C_13  and  C_15
REMARK    7  A    between atoms: C_19  and  S_21
REMARK    8  A    between atoms: S_21  and  N_24
REMARK    9  A    between atoms: N_24  and  C_25
REMARK   10  A    between atoms: C_28  and  O_31
REMARK   11  A    between atoms: O_31  and  C_32
REMARK                            x       y       z     vdW  Elec       q    Type
REMARK                         _______ _______ _______ _____ _____    ______ ____
ROOT
ATOM      1  C   UNL     1       1.672   0.905  -0.595  0.00  0.00    +0.040 A 
ATOM      2  C   UNL     1       1.643  -0.485  -0.469  0.00  0.00    +0.013 A 
ATOM      3  C   UNL     1       2.783  -1.164  -0.091  0.00  0.00    +0.003 A 
ATOM      4  C   UNL     1       3.951  -0.469   0.171  0.00  0.00    +0.029 A 
ATOM      5  C   UNL     1       3.985   0.909   0.053  0.00  0.00    +0.109 A 
ATOM      6  C   UNL     1       2.853   1.600  -0.329  0.00  0.00    +0.042 A 
ENDROOT
BRANCH   1   8
ATOM      7  N   UNL     1      -0.684   0.965  -1.260  0.00  0.00    -0.231 N 
ATOM      8  C   UNL     1       0.455   1.639  -1.004  0.00  0.00    +0.260 C 
ATOM      9  O   UNL     1       0.482   2.850  -1.108  0.00  0.00    -0.269 OA
ATOM     10  H   UNL     1      -0.705  -0.001  -1.177  0.00  0.00    +0.173 HD
BRANCH   7  11
ATOM     11  N   UNL     1      -1.835   1.660  -1.653  0.00  0.00    -0.245 N 
ATOM     12  H   UNL     1      -1.814   2.626  -1.736  0.00  0.00    +0.172 HD
BRANCH  11  13
ATOM     13  C   UNL     1      -2.972   0.986  -1.915  0.00  0.00    +0.151 C 
ATOM     14  S   UNL     1      -4.380   1.835  -2.395  0.00  0.00    -0.017 S 
BRANCH  13  15
ATOM     15  N   UNL     1      -3.002  -0.356  -1.800  0.00  0.00    -0.296 N 
ATOM     16  H   UNL     1      -2.190  -0.843  -1.588  0.00  0.00    +0.154 HD
BRANCH  15  23
ATOM     17  C   UNL     1      -2.913  -2.874  -3.123  0.00  0.00    +0.045 C 
ATOM     18  C   UNL     1      -4.206  -2.280  -2.626  0.00  0.00    -0.029 A 
ATOM     19  C   UNL     1      -5.394  -2.960  -2.807  0.00  0.00    +0.005 A 
ATOM     20  C   UNL     1      -6.581  -2.417  -2.351  0.00  0.00    +0.000 A 
ATOM     21  C   UNL     1      -6.582  -1.190  -1.712  0.00  0.00    +0.002 A 
ATOM     22  C   UNL     1      -5.397  -0.507  -1.523  0.00  0.00    +0.023 A 
ATOM     23  C   UNL     1      -4.204  -1.048  -1.985  0.00  0.00    +0.036 A 
ENDBRANCH  15  23
ENDBRANCH  13  15
ENDBRANCH  11  13
ENDBRANCH   7  11
ENDBRANCH   1   8
BRANCH   5  24
ATOM     24  S   UNL     1       5.476   1.784   0.390  0.00  0.00    +0.072 S 
ATOM     25  O   UNL     1       6.530   0.833   0.319  0.00  0.00    -0.150 OA
ATOM     26  O   UNL     1       5.452   2.954  -0.416  0.00  0.00    -0.150 OA
BRANCH  24  27
ATOM     27  N   UNL     1       5.402   2.291   1.964  0.00  0.00    -0.216 N 
ATOM     28  H   UNL     1       5.356   3.238   2.167  0.00  0.00    +0.174 HD
BRANCH  27  29
ATOM     29  C   UNL     1       5.404   1.353   3.002  0.00  0.00    +0.048 A 
ATOM     30  C   UNL     1       4.224   1.052   3.670  0.00  0.00    +0.028 A 
ATOM     31  C   UNL     1       4.226   0.122   4.690  0.00  0.00    +0.047 A 
ATOM     32  C   UNL     1       5.408  -0.504   5.057  0.00  0.00    +0.120 A 
ATOM     33  C   UNL     1       6.588  -0.200   4.394  0.00  0.00    +0.047 A 
ATOM     34  C   UNL     1       6.587   0.726   3.370  0.00  0.00    +0.028 A 
BRANCH  32  35
ATOM     35  O   UNL     1       5.410  -1.415   6.066  0.00  0.00    -0.495 OA
ATOM     36  C   UNL     1       4.159  -1.679   6.704  0.00  0.00    +0.277 C 
ENDBRANCH  32  35
ENDBRANCH  27  29
ENDBRANCH  24  27
ENDBRANCH   5  24
TORSDOF 9
