REMARK  Name = ZINC59577937
REMARK  14 active torsions:
REMARK  status: ('A' for Active; 'I' for Inactive)
REMARK    1  A    between atoms: C_1  and  C_2
REMARK    2  A    between atoms: C_4  and  C_15
REMARK    3  A    between atoms: C_6  and  C_14
REMARK    4  A    between atoms: C_7  and  O_8
REMARK    5  A    between atoms: O_8  and  C_9
REMARK    6  A    between atoms: C_9  and  C_10
REMARK    7  A    between atoms: C_15  and  N_16
REMARK    8  A    between atoms: N_16  and  C_17
REMARK    9  A    between atoms: N_16  and  C_18
REMARK   10  A    between atoms: C_18  and  C_19
REMARK   11  A    between atoms: N_21  and  C_22
REMARK   12  A    between atoms: C_22  and  C_23
REMARK   13  A    between atoms: C_26  and  S_29
REMARK   14  A    between atoms: S_29  and  N_32
REMARK                            x       y       z     vdW  Elec       q    Type
REMARK                         _______ _______ _______ _____ _____    ______ ____
ROOT
ATOM      1  N   UNL     1       1.414  -3.039  -2.949  0.00  0.00    +0.386 N 
ATOM      2  C   UNL     1       2.088  -3.929  -1.994  0.00  0.00    -0.095 C 
ATOM      3  H   UNL     1       1.901  -2.156  -2.987  0.00  0.00    -0.081 HD
ENDROOT
BRANCH   1   4
ATOM      4  C   UNL     1       0.028  -2.816  -2.516  0.00  0.00    -0.043 C 
BRANCH   4   8
ATOM      5  C   UNL     1      -0.018   1.503   0.010  0.00  0.00    +0.047 C 
ATOM      6  C   UNL     1       0.002  -0.004   0.002  0.00  0.00    -0.008 A 
ATOM      7  C   UNL     1       0.006  -0.689  -1.198  0.00  0.00    +0.008 A 
ATOM      8  C   UNL     1       0.024  -2.071  -1.206  0.00  0.00    -0.063 A 
ATOM      9  C   UNL     1       0.040  -2.772  -0.014  0.00  0.00    +0.008 A 
ATOM     10  C   UNL     1       0.036  -2.092   1.188  0.00  0.00    -0.008 A 
ATOM     11  C   UNL     1       0.023  -0.705   1.199  0.00  0.00    +0.127 A 
ATOM     12  C   UNL     1       0.052  -2.856   2.487  0.00  0.00    +0.047 C 
BRANCH  11  13
ATOM     13  O   UNL     1       0.025  -0.033   2.381  0.00  0.00    -0.483 OA
BRANCH  13  14
ATOM     14  C   UNL     1      -1.246   0.270   2.957  0.00  0.00    +0.342 C 
BRANCH  14  15
ATOM     15  C   UNL     1      -1.043   1.022   4.274  0.00  0.00    +0.424 C 
ATOM     16  F   UNL     1      -0.346   2.211   4.030  0.00  0.00    -0.167 F 
ATOM     17  F   UNL     1      -2.288   1.320   4.838  0.00  0.00    -0.167 F 
ATOM     18  F   UNL     1      -0.309   0.225   5.158  0.00  0.00    -0.167 F 
ENDBRANCH  14  15
ENDBRANCH  13  14
ENDBRANCH  11  13
ENDBRANCH   4   8
ENDBRANCH   1   4
BRANCH   1  19
ATOM     19  C   UNL     1       1.417  -3.657  -4.282  0.00  0.00    +0.019 C 
BRANCH  19  20
ATOM     20  C   UNL     1       2.835  -3.773  -4.778  0.00  0.00    +0.197 C 
ATOM     21  O   UNL     1       3.753  -3.380  -4.089  0.00  0.00    -0.278 OA
ATOM     22  N   UNL     1       3.084  -4.315  -5.987  0.00  0.00    -0.313 N 
ATOM     23  H   UNL     1       2.350  -4.629  -6.538  0.00  0.00    +0.149 HD
BRANCH  22  24
ATOM     24  C   UNL     1       4.463  -4.428  -6.469  0.00  0.00    +0.139 C 
BRANCH  24  25
ATOM     25  C   UNL     1       4.466  -5.062  -7.836  0.00  0.00    -0.030 A 
ATOM     26  C   UNL     1       4.549  -6.436  -7.960  0.00  0.00    +0.007 A 
ATOM     27  C   UNL     1       4.552  -7.018  -9.214  0.00  0.00    +0.029 A 
ATOM     28  C   UNL     1       4.472  -6.226 -10.344  0.00  0.00    +0.105 A 
ATOM     29  C   UNL     1       4.388  -4.851 -10.220  0.00  0.00    +0.029 A 
ATOM     30  C   UNL     1       4.381  -4.270  -8.966  0.00  0.00    +0.007 A 
BRANCH  28  31
ATOM     31  S   UNL     1       4.477  -6.967 -11.943  0.00  0.00    +0.056 S 
ATOM     32  O   UNL     1       4.943  -5.976 -12.848  0.00  0.00    -0.153 OA
ATOM     33  O   UNL     1       5.114  -8.230 -11.802  0.00  0.00    -0.153 OA
BRANCH  31  34
ATOM     34  N   UNL     1       2.901  -7.274 -12.345  0.00  0.00    -0.204 NA
ATOM     35  H   UNL     1       2.627  -7.262 -13.276  0.00  0.00    +0.144 HD
ATOM     36  H   UNL     1       2.251  -7.465 -11.651  0.00  0.00    +0.144 HD
ENDBRANCH  31  34
ENDBRANCH  28  31
ENDBRANCH  24  25
ENDBRANCH  22  24
ENDBRANCH  19  20
ENDBRANCH   1  19
TORSDOF 11
