REMARK  Name = ZINC63557255
REMARK  8 active torsions:
REMARK  status: ('A' for Active; 'I' for Inactive)
REMARK    1  A    between atoms: C_1  and  C_2
REMARK    2  A    between atoms: C_2  and  C_3
REMARK    3  A    between atoms: C_2  and  C_4
REMARK    4  A    between atoms: C_8  and  N_11
REMARK    5  A    between atoms: C_12  and  C_14
REMARK    6  A    between atoms: N_19  and  C_21
REMARK    7  A    between atoms: C_21  and  C_22
REMARK    8  A    between atoms: C_22  and  C_23
REMARK                            x       y       z     vdW  Elec       q    Type
REMARK                         _______ _______ _______ _____ _____    ______ ____
ROOT
ATOM      1  C   UNL     1       5.554  -2.061   4.860  0.00  0.00    +0.101 C 
ATOM      2  C   UNL     1       6.604  -0.936   4.711  0.00  0.00    +0.110 C 
ATOM      3  C   UNL     1       7.781  -1.415   5.532  0.00  0.00    +0.216 C 
ATOM      4  O   UNL     1       8.697  -0.715   5.907  0.00  0.00    -0.276 OA
ATOM      5  N   UNL     1       7.663  -2.730   5.784  0.00  0.00    -0.300 N 
ATOM      6  C   UNL     1       6.444  -3.282   5.181  0.00  0.00    +0.121 C 
ENDROOT
BRANCH   1   8
ATOM      7  N   UNL     1       4.013  -1.286   3.088  0.00  0.00    -0.290 N 
ATOM      8  C   UNL     1       4.798  -2.268   3.573  0.00  0.00    +0.220 C 
ATOM      9  O   UNL     1       4.897  -3.317   2.974  0.00  0.00    -0.275 OA
ATOM     10  H   UNL     1       3.934  -0.446   3.567  0.00  0.00    +0.151 HD
BRANCH   7  14
ATOM     11  C   UNL     1       0.742  -0.511   1.242  0.00  0.00    +0.132 C 
ATOM     12  N   UNL     1       0.984  -1.986   1.168  0.00  0.00    -0.241 NA
ATOM     13  N   UNL     1       2.087  -2.355   2.049  0.00  0.00    -0.227 NA
ATOM     14  C   UNL     1       3.278  -1.487   1.836  0.00  0.00    +0.216 C 
ATOM     15  S   UNL     1       2.490   0.082   1.272  0.00  0.00    -0.102 S 
ATOM     16  H   UNL     1       1.167  -2.276   0.219  0.00  0.00    +0.142 HD
ATOM     17  H   UNL     1       2.325  -3.329   1.941  0.00  0.00    +0.143 HD
BRANCH  11  19
ATOM     18  C   UNL     1      -0.019   1.526   0.010  0.00  0.00    +0.009 C 
ATOM     19  C   UNL     1       0.002  -0.004   0.002  0.00  0.00    +0.011 C 
ATOM     20  C   UNL     1       0.718  -0.497  -1.257  0.00  0.00    +0.009 C 
ENDBRANCH  11  19
ENDBRANCH   7  14
ENDBRANCH   1   8
BRANCH   5  21
ATOM     21  C   UNL     1       8.627  -3.512   6.562  0.00  0.00    +0.112 C 
BRANCH  21  22
ATOM     22  C   UNL     1       8.230  -3.487   8.040  0.00  0.00    +0.052 C 
BRANCH  22  23
ATOM     23  C   UNL     1       9.222  -4.292   8.840  0.00  0.00    -0.040 C 
ATOM     24  C   UNL     1      10.305  -3.822   9.501  0.00  0.00    +0.002 A 
ATOM     25  C   UNL     1      10.861  -2.474   9.666  0.00  0.00    +0.048 A 
ATOM     26  C   UNL     1      11.985  -2.314  10.403  0.00  0.00    +0.124 A 
ATOM     27  C   UNL     1      12.629  -3.403  11.012  0.00  0.00    +0.040 A 
ATOM     28  C   UNL     1      12.177  -4.670  10.905  0.00  0.00    +0.029 A 
ATOM     29  C   UNL     1      11.003  -4.953  10.153  0.00  0.00    +0.043 A 
ATOM     30  N   UNL     1      10.376  -6.077   9.905  0.00  0.00    -0.380 N 
ATOM     31  C   UNL     1       9.205  -5.786   9.072  0.00  0.00    +0.144 C 
ATOM     32  F   UNL     1      12.501  -1.075  10.557  0.00  0.00    -0.205 F 
ATOM     33  H   UNL     1      10.641  -6.955  10.223  0.00  0.00    +0.160 HD
ENDBRANCH  22  23
ENDBRANCH  21  22
ENDBRANCH   5  21
TORSDOF 6
