REMARK  Name = ZINC02650421
REMARK  14 active torsions:
REMARK  status: ('A' for Active; 'I' for Inactive)
REMARK    1  A    between atoms: C_1  and  C_2
REMARK    2  A    between atoms: C_2  and  C_4
REMARK    3  A    between atoms: C_2  and  N_62
REMARK    4  A    between atoms: C_7  and  S_16
REMARK    5  A    between atoms: N_8  and  C_9
REMARK    6  A    between atoms: S_16  and  C_17
REMARK    7  A    between atoms: C_17  and  C_18
REMARK    8  A    between atoms: N_20  and  C_21
REMARK    9  A    between atoms: C_24  and  C_27
REMARK   10  A    between atoms: C_27  and  C_28
REMARK   11  A    between atoms: C_27  and  C_29
REMARK   12  A    between atoms: C_27  and  C_30
REMARK   13  A    between atoms: C_31  and  N_62
REMARK   14  A    between atoms: C_32  and  N_62
REMARK                            x       y       z     vdW  Elec       q    Type
REMARK                         _______ _______ _______ _____ _____    ______ ____
ROOT
ATOM      1  C   UNL     1       4.145  -8.704  -0.711  0.00  0.00    +0.125 A 
ATOM      2  N   UNL     1       2.874  -8.429  -0.620  0.00  0.00    -0.135 NA
ATOM      3  N   UNL     1       2.702  -7.161  -0.508  0.00  0.00    -0.122 NA
ATOM      4  C   UNL     1       3.864  -6.549  -0.522  0.00  0.00    +0.197 A 
ATOM      5  N   UNL     1       4.823  -7.515  -0.657  0.00  0.00    -0.275 N 
ENDROOT
BRANCH   5   6
ATOM      6  C   UNL     1       6.211  -7.327  -0.724  0.00  0.00    +0.050 A 
ATOM      7  C   UNL     1       6.902  -7.652  -1.883  0.00  0.00    +0.028 A 
ATOM      8  C   UNL     1       8.268  -7.462  -1.949  0.00  0.00    +0.022 A 
ATOM      9  C   UNL     1       8.951  -6.958  -0.855  0.00  0.00    +0.041 A 
ATOM     10  C   UNL     1       8.265  -6.638   0.303  0.00  0.00    +0.022 A 
ATOM     11  C   UNL     1       6.898  -6.821   0.371  0.00  0.00    +0.028 A 
ATOM     12 CL   UNL     1      10.669  -6.726  -0.938  0.00  0.00    -0.084 Cl
ENDBRANCH   5   6
BRANCH   1  14
ATOM     13  C   UNL     1       4.696 -10.803   0.489  0.00  0.00    -0.005 C 
ATOM     14  C   UNL     1       4.755 -10.074  -0.855  0.00  0.00    -0.003 C 
BRANCH  14  17
ATOM     15  C   UNL     1       3.961 -10.124  -3.142  0.00  0.00    -0.096 C 
ATOM     16  C   UNL     1       4.573 -12.185  -2.028  0.00  0.00    -0.096 C 
ATOM     17  N   UNL     1       3.978 -10.843  -1.851  0.00  0.00    +0.382 N 
ATOM     18  H   UNL     1       3.014 -10.947  -1.514  0.00  0.00    -0.082 HD
ENDBRANCH  14  17
ENDBRANCH   1  14
BRANCH   4  19
ATOM     19  S   UNL     1       4.135  -4.812  -0.398  0.00  0.00    -0.076 S 
BRANCH  19  20
ATOM     20  C   UNL     1       2.425  -4.236  -0.258  0.00  0.00    +0.173 C 
BRANCH  20  21
ATOM     21  C   UNL     1       2.410  -2.734  -0.137  0.00  0.00    +0.227 C 
ATOM     22  O   UNL     1       3.452  -2.114  -0.144  0.00  0.00    -0.275 OA
ATOM     23  N   UNL     1       1.237  -2.079  -0.020  0.00  0.00    -0.285 N 
ATOM     24  H   UNL     1       0.409  -2.578   0.062  0.00  0.00    +0.155 HD
BRANCH  23  25
ATOM     25  C   UNL     1       1.214  -0.680  -0.019  0.00  0.00    +0.033 A 
ATOM     26  C   UNL     1       2.137   0.031  -0.774  0.00  0.00    +0.023 A 
ATOM     27  C   UNL     1       2.111   1.412  -0.771  0.00  0.00    +0.006 A 
ATOM     28  C   UNL     1       1.168   2.086  -0.017  0.00  0.00    -0.042 A 
ATOM     29  C   UNL     1       0.248   1.380   0.736  0.00  0.00    +0.006 A 
ATOM     30  C   UNL     1       0.268  -0.001   0.737  0.00  0.00    +0.023 A 
BRANCH  28  31
ATOM     31  C   UNL     1       1.143   3.593  -0.015  0.00  0.00    -0.013 C 
ATOM     32  C   UNL     1       0.910   4.100  -1.440  0.00  0.00    +0.015 C 
ATOM     33  C   UNL     1       0.013   4.083   0.892  0.00  0.00    +0.015 C 
ATOM     34  C   UNL     1       2.481   4.125   0.503  0.00  0.00    +0.015 C 
ENDBRANCH  28  31
ENDBRANCH  23  25
ENDBRANCH  20  21
ENDBRANCH  19  20
ENDBRANCH   4  19
TORSDOF 8
