REMARK  Name = ZINC66981501
REMARK  9 active torsions:
REMARK  status: ('A' for Active; 'I' for Inactive)
REMARK    1  A    between atoms: C_1  and  C_2
REMARK    2  A    between atoms: C_5  and  C_29
REMARK    3  A    between atoms: N_8  and  C_10
REMARK    4  A    between atoms: C_10  and  C_11
REMARK    5  A    between atoms: C_11  and  C_12
REMARK    6  A    between atoms: C_12  and  N_13
REMARK    7  A    between atoms: N_16  and  C_17
REMARK    8  A    between atoms: C_19  and  N_25
REMARK    9  A    between atoms: C_26  and  C_28
REMARK                            x       y       z     vdW  Elec       q    Type
REMARK                         _______ _______ _______ _____ _____    ______ ____
ROOT
ATOM      1  N   UNL     1       2.245   0.391   6.085  0.00  0.00    -0.299 N 
ATOM      2  C   UNL     1       2.695   0.139   7.330  0.00  0.00    +0.304 C 
ATOM      3  O   UNL     1       3.647  -0.599   7.495  0.00  0.00    -0.253 OA
ATOM      4  N   UNL     1       2.089   0.705   8.393  0.00  0.00    -0.267 N 
ATOM      5  H   UNL     1       1.485   0.980   5.954  0.00  0.00    +0.150 HD
ATOM      6  H   UNL     1       1.371   1.344   8.259  0.00  0.00    +0.156 HD
ENDROOT
BRANCH   4   7
ATOM      7  C   UNL     1       2.496   0.371   9.692  0.00  0.00    +0.072 A 
ATOM      8  C   UNL     1       3.831   0.100   9.953  0.00  0.00    +0.052 A 
ATOM      9  C   UNL     1       4.231  -0.230  11.239  0.00  0.00    +0.071 A 
ATOM     10  C   UNL     1       3.294  -0.288  12.265  0.00  0.00    +0.147 A 
ATOM     11  C   UNL     1       1.963  -0.017  12.003  0.00  0.00    +0.080 A 
ATOM     12  C   UNL     1       1.563   0.318  10.721  0.00  0.00    +0.147 A 
ATOM     13  F   UNL     1       0.263   0.588  10.469  0.00  0.00    -0.203 F 
ATOM     14  F   UNL     1       3.683  -0.609  13.518  0.00  0.00    -0.203 F 
BRANCH   9  15
ATOM     15  N   UNL     1       5.580  -0.506  11.505  0.00  0.00    -0.283 N 
ATOM     16  C   UNL     1       6.547   0.159  10.842  0.00  0.00    +0.214 C 
ATOM     17  O   UNL     1       6.252   0.935   9.958  0.00  0.00    -0.276 OA
ATOM     18  C   UNL     1       7.994  -0.064  11.198  0.00  0.00    +0.109 C 
ATOM     19  H   UNL     1       5.817  -1.174  12.167  0.00  0.00    +0.155 HD
ENDBRANCH   9  15
ENDBRANCH   4   7
BRANCH   1  20
ATOM     20  C   UNL     1       2.903  -0.225   4.930  0.00  0.00    +0.104 C 
BRANCH  20  21
ATOM     21  C   UNL     1       2.202   0.222   3.646  0.00  0.00    +0.000 C 
BRANCH  21  22
ATOM     22  C   UNL     1       2.889  -0.421   2.439  0.00  0.00    -0.077 C 
BRANCH  22  28
ATOM     23  C   UNL     1       0.083   1.537  -0.030  0.00  0.00    +0.005 C 
ATOM     24  C   UNL     1       0.110   0.007  -0.046  0.00  0.00    -0.031 C 
ATOM     25  C   UNL     1       0.844  -0.478  -1.298  0.00  0.00    +0.003 C 
ATOM     26  C   UNL     1       2.299  -0.001  -1.243  0.00  0.00    -0.031 C 
ATOM     27  C   UNL     1       2.948  -0.512   0.045  0.00  0.00    -0.076 C 
ATOM     28  N   UNL     1       2.217   0.008   1.206  0.00  0.00    +0.380 N 
ATOM     29  C   UNL     1       0.840  -0.504   1.198  0.00  0.00    -0.076 C 
ATOM     30  C   UNL     1       3.062  -0.546  -2.452  0.00  0.00    +0.005 C 
ATOM     31  H   UNL     1       2.200   1.016   1.168  0.00  0.00    -0.082 HD
ENDBRANCH  22  28
ENDBRANCH  21  22
ENDBRANCH  20  21
ENDBRANCH   1  20
TORSDOF 6
