REMARK  Name = ZINC42506602
REMARK  8 active torsions:
REMARK  status: ('A' for Active; 'I' for Inactive)
REMARK    1  A    between atoms: C_3  and  C_11
REMARK    2  A    between atoms: C_6  and  C_7
REMARK    3  A    between atoms: C_7  and  N_9
REMARK    4  A    between atoms: C_11  and  N_12
REMARK    5  A    between atoms: N_12  and  C_13
REMARK    6  A    between atoms: N_12  and  C_16
REMARK    7  A    between atoms: C_13  and  C_14
REMARK    8  A    between atoms: C_14  and  O_15
REMARK                            x       y       z     vdW  Elec       q    Type
REMARK                         _______ _______ _______ _____ _____    ______ ____
ROOT
ATOM      1  C   UNL     1       3.957   2.365  -0.084  0.00  0.00    -0.040 C 
ENDROOT
BRANCH   1   4
ATOM      2  C   UNL     1       0.469   1.276  -1.024  0.00  0.00    +0.010 A 
ATOM      3  C   UNL     1       1.546   2.067  -0.683  0.00  0.00    +0.005 A 
ATOM      4  C   UNL     1       2.784   1.494  -0.454  0.00  0.00    -0.029 A 
ATOM      5  C   UNL     1       2.951   0.123  -0.565  0.00  0.00    +0.125 A 
ATOM      6  C   UNL     1       1.880  -0.681  -0.905  0.00  0.00    +0.048 A 
ATOM      7  C   UNL     1       0.628  -0.107  -1.138  0.00  0.00    +0.006 A 
ATOM      8  F   UNL     1       4.163  -0.430  -0.340  0.00  0.00    -0.205 F 
BRANCH   7   9
ATOM      9  C   UNL     1      -0.521  -0.959  -1.502  0.00  0.00    +0.077 C 
ATOM     10  S   UNL     1      -1.704  -0.379  -2.595  0.00  0.00    -0.035 S 
BRANCH   9  11
ATOM     11  N   UNL     1      -0.640  -2.192  -0.973  0.00  0.00    -0.352 N 
ATOM     12  H   UNL     1       0.030  -2.521  -0.353  0.00  0.00    +0.143 HD
ATOM     13  H   UNL     1      -1.396  -2.752  -1.212  0.00  0.00    +0.143 HD
ENDBRANCH   9  11
ENDBRANCH   7   9
ENDBRANCH   1   4
BRANCH   1  14
ATOM     14  N   UNL     1       4.091   2.409   1.379  0.00  0.00    +0.386 N 
ATOM     15  H   UNL     1       3.210   2.681   1.789  0.00  0.00    -0.081 HD
BRANCH  14  16
ATOM     16  C   UNL     1       5.125   3.386   1.746  0.00  0.00    -0.068 C 
ATOM     17  C   UNL     1       5.372   3.323   3.255  0.00  0.00    -0.015 C 
ATOM     18  C   UNL     1       6.449   4.340   3.638  0.00  0.00    -0.002 C 
ATOM     19  C   UNL     1       5.982   5.746   3.255  0.00  0.00    -0.000 C 
ATOM     20  C   UNL     1       5.735   5.809   1.746  0.00  0.00    -0.002 C 
ATOM     21  C   UNL     1       4.658   4.791   1.363  0.00  0.00    -0.015 C 
ENDBRANCH  14  16
BRANCH  14  22
ATOM     22  C   UNL     1       4.473   1.081   1.875  0.00  0.00    -0.050 C 
BRANCH  22  23
ATOM     23  C   UNL     1       5.845   0.701   1.313  0.00  0.00    +0.137 C 
BRANCH  23  24
ATOM     24  O   UNL     1       6.846   1.539   1.895  0.00  0.00    -0.397 OA
ATOM     25  H   UNL     1       7.743   1.354   1.584  0.00  0.00    +0.209 HD
ENDBRANCH  23  24
ENDBRANCH  22  23
ENDBRANCH  14  22
ENDBRANCH   1  14
TORSDOF 8
