REMARK  Name = ZINC12592620
REMARK  7 active torsions:
REMARK  status: ('A' for Active; 'I' for Inactive)
REMARK    1  A    between atoms: C_1  and  C_2
REMARK    2  A    between atoms: C_2  and  C_27
REMARK    3  A    between atoms: N_8  and  C_9
REMARK    4  A    between atoms: C_16  and  N_50
REMARK    5  A    between atoms: C_19  and  C_20
REMARK    6  A    between atoms: C_19  and  N_50
REMARK    7  A    between atoms: C_23  and  O_26
REMARK                            x       y       z     vdW  Elec       q    Type
REMARK                         _______ _______ _______ _____ _____    ______ ____
ROOT
ATOM      1  C   UNL     1      -0.959   0.178  -6.059  0.00  0.00    +0.011 C 
ATOM      2  C   UNL     1      -0.041   0.596  -4.909  0.00  0.00    -0.031 C 
ATOM      3  C   UNL     1       0.676   1.901  -5.276  0.00  0.00    +0.062 C 
ATOM      4  C   UNL     1       1.377   2.421  -4.046  0.00  0.00    +0.047 A 
ATOM      5  C   UNL     1       1.104   2.008  -2.782  0.00  0.00    -0.020 A 
ATOM      6  C   UNL     1       1.945   2.699  -1.912  0.00  0.00    +0.137 A 
ATOM      7  N   UNL     1       2.697   3.502  -2.624  0.00  0.00    -0.174 NA
ATOM      8  N   UNL     1       2.354   3.344  -3.976  0.00  0.00    -0.237 N 
ATOM      9  C   UNL     1       0.060   0.975  -2.437  0.00  0.00    -0.037 C 
ATOM     10  C   UNL     1      -0.873   0.809  -3.643  0.00  0.00    -0.005 C 
ATOM     11  C   UNL     1       0.995  -0.502  -4.659  0.00  0.00    +0.011 C 
ENDROOT
BRANCH   8  12
ATOM     12  C   UNL     1       2.927   4.025  -5.059  0.00  0.00    +0.066 A 
ATOM     13  C   UNL     1       4.299   4.232  -5.103  0.00  0.00    +0.030 A 
ATOM     14  C   UNL     1       4.863   4.897  -6.174  0.00  0.00    +0.040 A 
ATOM     15  C   UNL     1       4.059   5.369  -7.198  0.00  0.00    +0.124 A 
ATOM     16  C   UNL     1       2.689   5.169  -7.153  0.00  0.00    +0.040 A 
ATOM     17  C   UNL     1       2.123   4.499  -6.087  0.00  0.00    +0.030 A 
ATOM     18  F   UNL     1       4.611   6.026  -8.242  0.00  0.00    -0.205 F 
ENDBRANCH   8  12
BRANCH   9  19
ATOM     19  N   UNL     1      -0.722   1.428  -1.271  0.00  0.00    +0.386 N 
ATOM     20  H   UNL     1      -1.647   0.984  -1.291  0.00  0.00    -0.085 HD
ATOM     21  H   UNL     1      -0.830   2.448  -1.311  0.00  0.00    -0.085 HD
BRANCH  19  22
ATOM     22  C   UNL     1      -0.034   1.060  -0.019  0.00  0.00    -0.046 C 
BRANCH  22  23
ATOM     23  C   UNL     1      -0.854   1.535   1.153  0.00  0.00    -0.064 A 
ATOM     24  C   UNL     1      -0.641   2.795   1.679  0.00  0.00    +0.005 A 
ATOM     25  C   UNL     1      -1.395   3.235   2.749  0.00  0.00    +0.045 A 
ATOM     26  C   UNL     1      -2.360   2.405   3.304  0.00  0.00    +0.117 A 
ATOM     27  C   UNL     1      -2.567   1.139   2.778  0.00  0.00    +0.045 A 
ATOM     28  C   UNL     1      -1.814   0.706   1.704  0.00  0.00    +0.005 A 
BRANCH  26  29
ATOM     29  O   UNL     1      -3.099   2.833   4.360  0.00  0.00    -0.507 OA
ATOM     30  H   UNL     1      -2.711   2.628   5.222  0.00  0.00    +0.292 HD
ENDBRANCH  26  29
ENDBRANCH  22  23
ENDBRANCH  19  22
ENDBRANCH   9  19
TORSDOF 5
