REMARK  Name = ZINC47970751
REMARK  14 active torsions:
REMARK  status: ('A' for Active; 'I' for Inactive)
REMARK    1  A    between atoms: C_1  and  C_2
REMARK    2  A    between atoms: C_2  and  N_3
REMARK    3  A    between atoms: N_3  and  C_4
REMARK    4  A    between atoms: N_3  and  C_6
REMARK    5  A    between atoms: C_4  and  C_5
REMARK    6  A    between atoms: C_6  and  C_8
REMARK    7  A    between atoms: C_6  and  C_12
REMARK    8  A    between atoms: C_8  and  C_9
REMARK    9  A    between atoms: C_9  and  C_10
REMARK   10  A    between atoms: C_9  and  C_11
REMARK   11  A    between atoms: C_12  and  N_13
REMARK   12  A    between atoms: C_14  and  C_16
REMARK   13  A    between atoms: N_18  and  C_19
REMARK   14  A    between atoms: C_20  and  C_24
REMARK                            x       y       z     vdW  Elec       q    Type
REMARK                         _______ _______ _______ _____ _____    ______ ____
ROOT
ATOM      1  N   UNL     1       2.431  -2.541   2.234  0.00  0.00    -0.309 N 
ATOM      2  C   UNL     1       2.704  -3.378   3.254  0.00  0.00    +0.299 C 
ATOM      3  O   UNL     1       3.289  -2.969   4.236  0.00  0.00    -0.265 OA
ATOM      4  H   UNL     1       1.901  -2.849   1.482  0.00  0.00    +0.149 HD
ENDROOT
BRANCH   2   5
ATOM      5  C   UNL     1       2.288  -4.810   3.177  0.00  0.00    +0.304 C 
ATOM      6  O   UNL     1       1.623  -5.199   2.239  0.00  0.00    -0.265 OA
ATOM      7  N   UNL     1       2.650  -5.671   4.149  0.00  0.00    -0.272 N 
ATOM      8  H   UNL     1       3.181  -5.360   4.899  0.00  0.00    +0.156 HD
BRANCH   7   9
ATOM      9  C   UNL     1       2.264  -6.998   4.077  0.00  0.00    +0.084 A 
ATOM     10  C   UNL     1       2.537  -8.016   4.980  0.00  0.00    +0.065 A 
ATOM     11  C   UNL     1       2.009  -9.322   4.660  0.00  0.00    +0.022 A 
ATOM     12  C   UNL     1       1.307  -9.406   3.514  0.00  0.00    +0.048 A 
ATOM     13  S   UNL     1       1.352  -7.744   2.882  0.00  0.00    -0.081 S 
BRANCH  10  14
ATOM     14  C   UNL     1       3.322  -7.778   6.196  0.00  0.00    +0.244 C 
ATOM     15  O   UNL     1       3.752  -6.665   6.435  0.00  0.00    -0.270 OA
ATOM     16  N   UNL     1       3.567  -8.792   7.049  0.00  0.00    -0.325 N 
ATOM     17  H   UNL     1       3.224  -9.680   6.859  0.00  0.00    +0.145 HD
ATOM     18  H   UNL     1       4.085  -8.635   7.854  0.00  0.00    +0.145 HD
ENDBRANCH  10  14
ENDBRANCH   7   9
ENDBRANCH   2   5
BRANCH   1  19
ATOM     19  C   UNL     1       2.935  -1.165   2.261  0.00  0.00    +0.089 C 
BRANCH  19  20
ATOM     20  C   UNL     1       2.383  -0.397   1.058  0.00  0.00    -0.051 C 
BRANCH  20  21
ATOM     21  N   UNL     1       0.918  -0.509   1.035  0.00  0.00    +0.382 N 
ATOM     22  H   UNL     1       0.657  -1.482   0.975  0.00  0.00    -0.081 HD
BRANCH  21  24
ATOM     23  C   UNL     1       0.218  -1.020   3.325  0.00  0.00    -0.017 C 
ATOM     24  C   UNL     1       0.363   0.072   2.264  0.00  0.00    -0.082 C 
ENDBRANCH  21  24
BRANCH  21  25
ATOM     25  C   UNL     1       0.390   0.212  -0.130  0.00  0.00    -0.082 C 
ATOM     26  C   UNL     1       0.876  -0.466  -1.413  0.00  0.00    -0.017 C 
ENDBRANCH  21  25
ENDBRANCH  20  21
BRANCH  20  27
ATOM     27  C   UNL     1       2.780   1.076   1.168  0.00  0.00    -0.011 C 
BRANCH  27  28
ATOM     28  C   UNL     1       4.301   1.204   1.068  0.00  0.00    -0.019 C 
ATOM     29  C   UNL     1       4.760   0.754  -0.321  0.00  0.00    +0.007 C 
ATOM     30  C   UNL     1       4.707   2.662   1.292  0.00  0.00    +0.007 C 
ENDBRANCH  27  28
ENDBRANCH  20  27
ENDBRANCH  19  20
ENDBRANCH   1  19
TORSDOF 10
