REMARK  Name = ZINC11818691
REMARK  12 active torsions:
REMARK  status: ('A' for Active; 'I' for Inactive)
REMARK    1  A    between atoms: C_2  and  C_3
REMARK    2  A    between atoms: C_3  and  C_4
REMARK    3  A    between atoms: C_4  and  C_5
REMARK    4  A    between atoms: C_4  and  C_8
REMARK    5  A    between atoms: C_4  and  O_29
REMARK    6  A    between atoms: C_5  and  C_6
REMARK    7  A    between atoms: C_8  and  N_9
REMARK    8  A    between atoms: C_10  and  C_12
REMARK    9  A    between atoms: C_12  and  C_13
REMARK   10  A    between atoms: C_20  and  C_21
REMARK   11  A    between atoms: C_20  and  N_60
REMARK   12  A    between atoms: C_22  and  C_23
REMARK                            x       y       z     vdW  Elec       q    Type
REMARK                         _______ _______ _______ _____ _____    ______ ____
ROOT
ATOM      1  C   UNL     1      -1.030  -3.783   3.009  0.00  0.00    +0.028 C 
ATOM      2  C   UNL     1      -0.208  -4.569   3.992  0.00  0.00    +0.200 C 
ATOM      3  O   UNL     1       0.991  -4.389   4.022  0.00  0.00    -0.278 OA
ATOM      4  N   UNL     1      -0.741  -5.458   4.834  0.00  0.00    -0.318 N 
ATOM      5  C   UNL     1      -2.176  -5.722   4.906  0.00  0.00    +0.085 C 
ATOM      6  C   UNL     1      -2.866  -5.215   3.638  0.00  0.00    -0.058 C 
ATOM      7  H   UNL     1      -0.150  -5.950   5.425  0.00  0.00    +0.149 HD
ATOM      8  N   UNL     1      -2.446  -3.816   3.417  0.00  0.00    +0.391 N 
ATOM      9  H   UNL     1      -2.556  -3.291   4.293  0.00  0.00    -0.080 HD
ENDROOT
BRANCH   1  10
ATOM     10  C   UNL     1      -0.550  -2.330   2.994  0.00  0.00    +0.089 C 
BRANCH  10  12
ATOM     11  N   UNL     1      -0.526  -0.400   4.541  0.00  0.00    -0.313 N 
ATOM     12  C   UNL     1      -0.792  -1.707   4.344  0.00  0.00    +0.212 C 
ATOM     13  O   UNL     1      -1.226  -2.381   5.254  0.00  0.00    -0.276 OA
ATOM     14  H   UNL     1      -0.179   0.139   3.813  0.00  0.00    +0.149 HD
BRANCH  11  15
ATOM     15  C   UNL     1      -0.761   0.206   5.854  0.00  0.00    +0.139 C 
BRANCH  15  16
ATOM     16  C   UNL     1      -0.381   1.687   5.807  0.00  0.00    +0.088 C 
BRANCH  16  17
ATOM     17  O   UNL     1      -1.255   2.376   4.911  0.00  0.00    -0.386 OA
ATOM     18  H   UNL     1      -2.188   2.329   5.158  0.00  0.00    +0.210 HD
ENDBRANCH  16  17
BRANCH  16  19
ATOM     19  C   UNL     1      -0.507   2.291   7.207  0.00  0.00    +0.063 C 
BRANCH  19  21
ATOM     20  C   UNL     1      -2.165   1.499   8.816  0.00  0.00    +0.004 C 
ATOM     21  C   UNL     1      -1.925   2.134   7.695  0.00  0.00    -0.032 C 
ENDBRANCH  19  21
ENDBRANCH  16  19
BRANCH  16  22
ATOM     22  C   UNL     1       1.063   1.828   5.320  0.00  0.00    +0.063 C 
BRANCH  22  23
ATOM     23  C   UNL     1       1.431   3.288   5.255  0.00  0.00    -0.032 C 
ATOM     24  C   UNL     1       2.461   3.734   5.931  0.00  0.00    +0.004 C 
ENDBRANCH  22  23
ENDBRANCH  16  22
ENDBRANCH  15  16
ENDBRANCH  11  15
ENDBRANCH  10  12
ENDBRANCH   1  10
BRANCH   8  25
ATOM     25  C   UNL     1      -3.289  -3.191   2.373  0.00  0.00    -0.050 C 
BRANCH  25  26
ATOM     26  C   UNL     1      -4.652  -2.907   2.950  0.00  0.00    -0.045 C 
ATOM     27  C   UNL     1      -5.146  -1.678   2.910  0.00  0.00    +0.002 C 
BRANCH  27  28
ATOM     28  C   UNL     1      -6.483  -1.400   3.476  0.00  0.00    -0.025 A 
ATOM     29  C   UNL     1      -7.229  -2.430   4.049  0.00  0.00    +0.008 A 
ATOM     30  C   UNL     1      -8.473  -2.162   4.582  0.00  0.00    +0.001 A 
ATOM     31  C   UNL     1      -8.986  -0.878   4.538  0.00  0.00    +0.000 A 
ATOM     32  C   UNL     1      -8.254   0.147   3.966  0.00  0.00    +0.001 A 
ATOM     33  C   UNL     1      -7.006  -0.106   3.436  0.00  0.00    +0.008 A 
ENDBRANCH  27  28
ENDBRANCH  25  26
ENDBRANCH   8  25
TORSDOF 12
