REMARK  Name = ZINC39631917
REMARK  13 active torsions:
REMARK  status: ('A' for Active; 'I' for Inactive)
REMARK    1  A    between atoms: C_1  and  C_2
REMARK    2  A    between atoms: C_4  and  C_11
REMARK    3  A    between atoms: C_5  and  C_7
REMARK    4  A    between atoms: C_15  and  C_24
REMARK    5  A    between atoms: N_26  and  C_27
REMARK    6  A    between atoms: C_27  and  C_29
REMARK    7  A    between atoms: C_27  and  C_30
REMARK    8  A    between atoms: C_30  and  C_31
REMARK    9  A    between atoms: C_31  and  C_32
REMARK   10  A    between atoms: C_32  and  C_33
REMARK   11  A    between atoms: C_33  and  C_34
REMARK   12  A    between atoms: C_33  and  C_35
REMARK   13  A    between atoms: C_33  and  O_36
REMARK                            x       y       z     vdW  Elec       q    Type
REMARK                         _______ _______ _______ _____ _____    ______ ____
ROOT
ATOM      1  C   UNL     1      -1.362  -3.411  -0.014  0.00  0.00    +0.250 C 
ATOM      2  O   UNL     1      -0.804  -4.487  -0.120  0.00  0.00    -0.270 OA
ATOM      3  N   UNL     1      -2.704  -3.356   0.096  0.00  0.00    -0.296 N 
ATOM      4  C   UNL     1      -3.565  -2.150   0.116  0.00  0.00    +0.121 C 
ATOM      5  C   UNL     1      -4.807  -2.543  -0.715  0.00  0.00    +0.100 C 
ATOM      6  C   UNL     1      -4.861  -4.078  -0.638  0.00  0.00    -0.004 C 
ATOM      7  C   UNL     1      -3.653  -4.489   0.218  0.00  0.00    +0.115 C 
ATOM      8  C   UNL     1      -6.158  -4.529   0.026  0.00  0.00    -0.010 C 
ATOM      9  C   UNL     1      -6.214  -6.060   0.038  0.00  0.00    -0.082 C 
ATOM     10  N   UNL     1      -6.144  -6.565  -1.338  0.00  0.00    +0.379 N 
ATOM     11  C   UNL     1      -4.853  -6.206  -1.938  0.00  0.00    -0.082 C 
ATOM     12  C   UNL     1      -4.739  -4.681  -2.034  0.00  0.00    -0.010 C 
ATOM     13  H   UNL     1      -6.242  -7.569  -1.332  0.00  0.00    -0.086 HD
ATOM     14  H   UNL     1      -6.891  -6.160  -1.882  0.00  0.00    -0.086 HD
ENDROOT
BRANCH   1  18
ATOM     15  C   UNL     1       0.159   1.391   0.792  0.00  0.00    +0.086 C 
ATOM     16  C   UNL     1       0.083  -0.050   0.360  0.00  0.00    +0.103 A 
ATOM     17  C   UNL     1      -0.942  -0.882   0.602  0.00  0.00    +0.058 A 
ATOM     18  C   UNL     1      -0.570  -2.168  -0.005  0.00  0.00    +0.087 A 
ATOM     19  C   UNL     1       0.661  -1.971  -0.558  0.00  0.00    +0.220 A 
ATOM     20  O   UNL     1       1.026  -0.705  -0.334  0.00  0.00    -0.455 OA
BRANCH  19  21
ATOM     21  C   UNL     1       1.469  -3.003  -1.302  0.00  0.00    +0.451 C 
ATOM     22  F   UNL     1       1.151  -2.953  -2.663  0.00  0.00    -0.163 F 
ATOM     23  F   UNL     1       2.833  -2.740  -1.131  0.00  0.00    -0.163 F 
ATOM     24  F   UNL     1       1.174  -4.276  -0.801  0.00  0.00    -0.163 F 
ENDBRANCH  19  21
ENDBRANCH   1  18
BRANCH   5  25
ATOM     25  C   UNL     1      -6.052  -1.942  -0.114  0.00  0.00    +0.218 C 
ATOM     26  O   UNL     1      -6.083  -1.666   1.067  0.00  0.00    -0.275 OA
ATOM     27  N   UNL     1      -7.130  -1.711  -0.889  0.00  0.00    -0.312 N 
ATOM     28  H   UNL     1      -7.105  -1.932  -1.833  0.00  0.00    +0.149 HD
BRANCH  27  29
ATOM     29  C   UNL     1      -8.340  -1.126  -0.305  0.00  0.00    +0.070 C 
ATOM     30  C   UNL     1      -8.211   0.398  -0.284  0.00  0.00    +0.028 C 
BRANCH  29  31
ATOM     31  C   UNL     1      -9.555  -1.524  -1.145  0.00  0.00    +0.022 C 
BRANCH  31  32
ATOM     32  C   UNL     1      -9.758  -3.038  -1.064  0.00  0.00    +0.005 C 
BRANCH  32  33
ATOM     33  C   UNL     1     -10.973  -3.436  -1.905  0.00  0.00    +0.034 C 
BRANCH  33  34
ATOM     34  C   UNL     1     -11.175  -4.950  -1.823  0.00  0.00    +0.061 C 
ATOM     35  C   UNL     1     -12.312  -5.364  -2.761  0.00  0.00    +0.041 C 
ATOM     36  C   UNL     1      -9.886  -5.661  -2.241  0.00  0.00    +0.041 C 
BRANCH  34  37
ATOM     37  O   UNL     1     -11.507  -5.316  -0.482  0.00  0.00    -0.389 OA
ATOM     38  H   UNL     1     -12.315  -4.902  -0.151  0.00  0.00    +0.210 HD
ENDBRANCH  34  37
ENDBRANCH  33  34
ENDBRANCH  32  33
ENDBRANCH  31  32
ENDBRANCH  29  31
ENDBRANCH  27  29
ENDBRANCH   5  25
TORSDOF 9
