REMARK  Name = ZINC08894069
REMARK  8 active torsions:
REMARK  status: ('A' for Active; 'I' for Inactive)
REMARK    1  A    between atoms: C_1  and  C_2
REMARK    2  A    between atoms: C_6  and  C_10
REMARK    3  A    between atoms: C_7  and  O_8
REMARK    4  A    between atoms: O_8  and  C_9
REMARK    5  A    between atoms: N_12  and  C_13
REMARK    6  A    between atoms: C_13  and  N_15
REMARK    7  A    between atoms: C_21  and  O_25
REMARK    8  A    between atoms: O_25  and  C_26
REMARK                            x       y       z     vdW  Elec       q    Type
REMARK                         _______ _______ _______ _____ _____    ______ ____
ROOT
ATOM      1  C   UNL     1      -3.596  -0.802   0.034  0.00  0.00    +0.143 C 
ATOM      2  S   UNL     1      -3.567  -2.514   0.024  0.00  0.00    -0.018 S 
ENDROOT
BRANCH   1   3
ATOM      3  N   UNL     1      -4.774  -0.148   0.049  0.00  0.00    -0.276 N 
ATOM      4  C   UNL     1      -5.962  -0.861   0.057  0.00  0.00    +0.165 A 
ATOM      5  N   UNL     1      -6.142  -2.161   0.052  0.00  0.00    -0.225 NA
ATOM      6  C   UNL     1      -7.371  -2.724   0.061  0.00  0.00    +0.082 A 
ATOM      7  C   UNL     1      -7.699  -4.100   0.058  0.00  0.00    +0.052 A 
ATOM      8  C   UNL     1      -9.007  -4.509   0.069  0.00  0.00    +0.085 A 
ATOM      9  C   UNL     1     -10.055  -3.592   0.084  0.00  0.00    +0.140 A 
ATOM     10  C   UNL     1      -9.766  -2.235   0.087  0.00  0.00    +0.064 A 
ATOM     11  C   UNL     1      -8.457  -1.821   0.076  0.00  0.00    +0.044 A 
ATOM     12  S   UNL     1      -7.639  -0.244   0.084  0.00  0.00    -0.052 S 
ATOM     13 CL   UNL     1      -9.366  -6.208   0.064  0.00  0.00    -0.080 Cl
ATOM     14  H   UNL     1      -4.791   0.821   0.054  0.00  0.00    +0.156 HD
BRANCH   9  15
ATOM     15  O   UNL     1     -11.345  -4.021   0.095  0.00  0.00    -0.494 OA
ATOM     16  C   UNL     1     -12.363  -3.017   0.110  0.00  0.00    +0.277 C 
ENDBRANCH   9  15
ENDBRANCH   1   3
BRANCH   1  19
ATOM     17  C   UNL     1      -1.262  -0.763   0.011  0.00  0.00    +0.253 C 
ATOM     18  O   UNL     1      -1.242  -1.978   0.004  0.00  0.00    -0.270 OA
ATOM     19  N   UNL     1      -2.441  -0.109   0.026  0.00  0.00    -0.263 N 
ATOM     20  H   UNL     1      -2.457   0.861   0.031  0.00  0.00    +0.157 HD
BRANCH  17  26
ATOM     21  C   UNL     1       3.736  -0.678  -0.037  0.00  0.00    +0.047 C 
ATOM     22  C   UNL     1       2.413   0.043  -0.021  0.00  0.00    -0.007 A 
ATOM     23  C   UNL     1       2.381   1.424  -0.013  0.00  0.00    +0.022 A 
ATOM     24  C   UNL     1       1.169   2.096   0.002  0.00  0.00    +0.019 A 
ATOM     25  C   UNL     1      -0.017   1.393   0.010  0.00  0.00    +0.032 A 
ATOM     26  C   UNL     1       0.002  -0.004   0.002  0.00  0.00    +0.080 A 
ATOM     27  C   UNL     1       1.230  -0.680  -0.013  0.00  0.00    +0.135 A 
ATOM     28 BR   UNL     1       1.142   3.987   0.012  0.00  0.00    -0.050 Br
BRANCH  27  29
ATOM     29  O   UNL     1       1.261  -2.037  -0.021  0.00  0.00    -0.494 OA
ATOM     30  C   UNL     1       1.263  -2.679  -1.297  0.00  0.00    +0.277 C 
ENDBRANCH  27  29
ENDBRANCH  17  26
ENDBRANCH   1  19
TORSDOF 5
