REMARK  Name = ZINC59369299
REMARK  8 active torsions:
REMARK  status: ('A' for Active; 'I' for Inactive)
REMARK    1  A    between atoms: C_1  and  N_2
REMARK    2  A    between atoms: N_2  and  C_3
REMARK    3  A    between atoms: N_2  and  C_4
REMARK    4  A    between atoms: C_4  and  C_5
REMARK    5  A    between atoms: C_5  and  C_6
REMARK    6  A    between atoms: C_6  and  N_7
REMARK    7  A    between atoms: C_8  and  C_10
REMARK    8  A    between atoms: C_11  and  N_25
REMARK                            x       y       z     vdW  Elec       q    Type
REMARK                         _______ _______ _______ _____ _____    ______ ____
ROOT
ATOM      1  C   UNL     1      -6.143  -0.503  -4.184  0.00  0.00    +0.087 A 
ATOM      2  C   UNL     1      -7.522  -0.408  -4.102  0.00  0.00    +0.086 A 
ATOM      3  C   UNL     1      -8.278   0.455  -5.021  0.00  0.00    +0.201 A 
ATOM      4  O   UNL     1      -9.496   0.522  -4.929  0.00  0.00    -0.286 OA
ATOM      5  C   UNL     1      -7.611   1.200  -5.999  0.00  0.00    +0.070 A 
ATOM      6  C   UNL     1      -6.252   1.126  -6.103  0.00  0.00    +0.043 A 
ATOM      7  S   UNL     1      -5.311   2.034  -7.312  0.00  0.00    -0.085 S 
ATOM      8  C   UNL     1      -3.572   1.691  -7.150  0.00  0.00    +0.038 A 
ATOM      9  C   UNL     1      -2.619   2.263  -7.963  0.00  0.00    +0.017 A 
ATOM     10  C   UNL     1      -1.300   1.945  -7.769  0.00  0.00    +0.001 A 
ATOM     11  C   UNL     1      -0.937   1.053  -6.763  0.00  0.00    +0.002 A 
ATOM     12  C   UNL     1      -1.861   0.476  -5.950  0.00  0.00    +0.029 A 
ATOM     13  C   UNL     1      -3.234   0.776  -6.112  0.00  0.00    +0.078 A 
ATOM     14  N   UNL     1      -4.133   0.217  -5.321  0.00  0.00    -0.245 NA
ATOM     15  C   UNL     1      -5.428   0.282  -5.208  0.00  0.00    +0.092 A 
ENDROOT
BRANCH   1  17
ATOM     16  N   UNL     1      -4.052  -1.360  -3.260  0.00  0.00    -0.311 N 
ATOM     17  C   UNL     1      -5.399  -1.371  -3.258  0.00  0.00    +0.248 C 
ATOM     18  O   UNL     1      -6.001  -2.098  -2.490  0.00  0.00    -0.270 OA
ATOM     19  H   UNL     1      -3.572  -0.836  -3.920  0.00  0.00    +0.149 HD
BRANCH  16  20
ATOM     20  C   UNL     1      -3.312  -2.141  -2.265  0.00  0.00    +0.102 C 
BRANCH  20  21
ATOM     21  C   UNL     1      -1.809  -1.956  -2.487  0.00  0.00    +0.000 C 
BRANCH  21  22
ATOM     22  C   UNL     1      -1.036  -2.772  -1.448  0.00  0.00    -0.078 C 
BRANCH  22  24
ATOM     23  C   UNL     1       0.770  -1.194  -1.405  0.00  0.00    -0.097 C 
ATOM     24  N   UNL     1       0.406  -2.594  -1.661  0.00  0.00    +0.376 N 
ATOM     25  C   UNL     1       1.148  -3.468  -0.742  0.00  0.00    -0.097 C 
ATOM     26  H   UNL     1       0.638  -2.833  -2.613  0.00  0.00    -0.083 HD
ENDBRANCH  22  24
ENDBRANCH  21  22
ENDBRANCH  20  21
ENDBRANCH  16  20
ENDBRANCH   1  17
BRANCH   2  27
ATOM     27  N   UNL     1      -8.197  -1.135  -3.144  0.00  0.00    -0.354 N 
ATOM     28  H   UNL     1      -7.748  -1.388  -2.322  0.00  0.00    +0.142 HD
ATOM     29  H   UNL     1      -9.120  -1.392  -3.292  0.00  0.00    +0.142 HD
ENDBRANCH   2  27
TORSDOF 6
