REMARK  Name = ZINC19867024
REMARK  8 active torsions:
REMARK  status: ('A' for Active; 'I' for Inactive)
REMARK    1  A    between atoms: C_1  and  C_2
REMARK    2  A    between atoms: C_5  and  C_8
REMARK    3  A    between atoms: C_8  and  C_10
REMARK    4  A    between atoms: C_10  and  S_11
REMARK    5  A    between atoms: S_11  and  C_12
REMARK    6  A    between atoms: C_14  and  N_29
REMARK    7  A    between atoms: C_15  and  C_27
REMARK    8  A    between atoms: C_17  and  C_19
REMARK                            x       y       z     vdW  Elec       q    Type
REMARK                         _______ _______ _______ _____ _____    ______ ____
ROOT
ATOM      1  C   UNL     1       0.119  -7.495   2.353  0.00  0.00    +0.089 C 
ATOM      2  N   UNL     1       0.135  -6.669   3.362  0.00  0.00    -0.229 NA
ATOM      3  C   UNL     1       0.127  -7.099   4.635  0.00  0.00    +0.131 C 
ATOM      4  C   UNL     1      -0.229  -8.396   4.940  0.00  0.00    +0.076 C 
ATOM      5  C   UNL     1      -0.645  -9.332   3.832  0.00  0.00    +0.026 C 
ATOM      6  C   UNL     1       0.133  -8.986   2.564  0.00  0.00    +0.141 C 
ATOM      7  C   UNL     1      -0.346 -10.775   4.242  0.00  0.00    +0.013 C 
ATOM      8  C   UNL     1      -0.768 -11.723   3.117  0.00  0.00    +0.001 C 
ATOM      9  C   UNL     1      -2.267 -11.566   2.853  0.00  0.00    +0.000 C 
ATOM     10  C   UNL     1      -2.564 -10.122   2.441  0.00  0.00    +0.001 C 
ATOM     11  C   UNL     1      -2.143  -9.175   3.566  0.00  0.00    +0.013 C 
ENDROOT
BRANCH   6  12
ATOM     12  C   UNL     1       1.556  -9.459   2.709  0.00  0.00    +0.221 C 
ATOM     13  O   UNL     1       2.257  -9.012   3.593  0.00  0.00    -0.275 OA
ATOM     14  N   UNL     1       2.050 -10.379   1.857  0.00  0.00    -0.329 N 
ATOM     15  H   UNL     1       1.490 -10.737   1.151  0.00  0.00    +0.145 HD
ATOM     16  H   UNL     1       2.967 -10.684   1.951  0.00  0.00    +0.145 HD
ENDBRANCH   6  12
BRANCH   3  17
ATOM     17  N   UNL     1       0.479  -6.233   5.650  0.00  0.00    -0.342 N 
ATOM     18  H   UNL     1       0.730  -5.320   5.442  0.00  0.00    +0.144 HD
ATOM     19  H   UNL     1       0.475  -6.538   6.571  0.00  0.00    +0.144 HD
ENDBRANCH   3  17
BRANCH   4  20
ATOM     20  C   UNL     1      -0.204  -8.852   6.297  0.00  0.00    +0.099 C 
ATOM     21  N   UNL     1      -0.184  -9.213   7.374  0.00  0.00    -0.191 NA
ENDBRANCH   4  20
BRANCH   1  22
ATOM     22  S   UNL     1       0.075  -6.892   0.807  0.00  0.00    -0.101 S 
BRANCH  22  23
ATOM     23  C   UNL     1       0.070  -5.092   1.038  0.00  0.00    +0.155 C 
BRANCH  23  24
ATOM     24  C   UNL     1       0.031  -4.413  -0.307  0.00  0.00    +0.173 C 
ATOM     25  O   UNL     1       0.009  -5.078  -1.321  0.00  0.00    -0.291 OA
BRANCH  24  30
ATOM     26  C   UNL     1      -0.012   1.326  -0.629  0.00  0.00    +0.044 C 
ATOM     27  C   UNL     1      -0.000  -0.178  -0.545  0.00  0.00    -0.050 A 
ATOM     28  C   UNL     1      -0.025  -0.933  -1.705  0.00  0.00    +0.004 A 
ATOM     29  C   UNL     1      -0.015  -2.310  -1.636  0.00  0.00    +0.011 A 
ATOM     30  C   UNL     1       0.021  -2.944  -0.390  0.00  0.00    +0.018 A 
ATOM     31  C   UNL     1       0.047  -2.174   0.778  0.00  0.00    +0.011 A 
ATOM     32  C   UNL     1       0.041  -0.798   0.692  0.00  0.00    +0.004 A 
ENDBRANCH  24  30
ENDBRANCH  23  24
ENDBRANCH  22  23
ENDBRANCH   1  22
TORSDOF 7
