REMARK  Name = ZINC13140986
REMARK  7 active torsions:
REMARK  status: ('A' for Active; 'I' for Inactive)
REMARK    1  A    between atoms: C_1  and  C_2
REMARK    2  A    between atoms: C_5  and  S_8
REMARK    3  A    between atoms: S_8  and  N_11
REMARK    4  A    between atoms: C_17  and  C_19
REMARK    5  A    between atoms: C_19  and  N_20
REMARK    6  A    between atoms: C_23  and  C_27
REMARK    7  A    between atoms: C_23  and  C_28
REMARK                            x       y       z     vdW  Elec       q    Type
REMARK                         _______ _______ _______ _____ _____    ______ ____
ROOT
ATOM      1  C   UNL     1       2.663   9.395   2.745  0.00  0.00    +0.213 C 
ENDROOT
BRANCH   1   2
ATOM      2  N   UNL     1       1.809   8.691   1.786  0.00  0.00    -0.215 N 
ATOM      3  C   UNL     1       2.272   7.994   0.729  0.00  0.00    +0.251 C 
ATOM      4  O   UNL     1       3.430   7.837   0.406  0.00  0.00    -0.272 OA
ATOM      5  C   UNL     1       1.044   7.447   0.029  0.00  0.00    +0.135 C 
ATOM      6  N   UNL     1      -0.074   7.946   0.849  0.00  0.00    -0.281 N 
ATOM      7  C   UNL     1       0.473   8.660   1.850  0.00  0.00    +0.310 C 
ATOM      8  O   UNL     1      -0.175   9.216   2.715  0.00  0.00    -0.252 OA
ATOM      9  C   UNL     1       0.952   7.989  -1.399  0.00  0.00    +0.047 C 
ATOM     10  H   UNL     1      -1.019   7.790   0.697  0.00  0.00    +0.152 HD
BRANCH   5  11
ATOM     11  C   UNL     1       1.064   5.940   0.022  0.00  0.00    -0.015 A 
ATOM     12  C   UNL     1       2.286   5.270   0.007  0.00  0.00    +0.007 A 
ATOM     13  C   UNL     1       2.340   3.910  -0.000  0.00  0.00    +0.009 A 
ATOM     14  C   UNL     1       1.147   3.167   0.008  0.00  0.00    -0.018 A 
ATOM     15  C   UNL     1       1.163   1.762   0.000  0.00  0.00    +0.008 A 
ATOM     16  C   UNL     1      -0.013   1.076   0.008  0.00  0.00    +0.001 A 
ATOM     17  C   UNL     1      -1.235   1.746   0.017  0.00  0.00    +0.001 A 
ATOM     18  C   UNL     1      -1.288   3.106   0.031  0.00  0.00    +0.008 A 
ATOM     19  C   UNL     1      -0.096   3.849   0.023  0.00  0.00    -0.018 A 
ATOM     20  C   UNL     1      -0.111   5.254   0.030  0.00  0.00    +0.014 A 
ENDBRANCH   5  11
ENDBRANCH   1   2
BRANCH   1  27
ATOM     21  N   UNL     1       6.008  12.824   3.733  0.00  0.00    -0.174 NA
ATOM     22  C   UNL     1       5.394  13.272   2.475  0.00  0.00    +0.128 C 
ATOM     23  C   UNL     1       3.882  13.028   2.554  0.00  0.00    +0.125 C 
ATOM     24  N   UNL     1       3.652  11.648   3.002  0.00  0.00    -0.298 N 
ATOM     25  C   UNL     1       4.261  11.201   4.263  0.00  0.00    +0.125 C 
ATOM     26  C   UNL     1       5.778  11.443   4.181  0.00  0.00    +0.128 C 
ATOM     27  C   UNL     1       2.890  10.808   2.273  0.00  0.00    +0.234 C 
ATOM     28  O   UNL     1       2.388  11.189   1.237  0.00  0.00    -0.274 OA
BRANCH  21  29
ATOM     29  S   UNL     1       6.943  13.856   4.629  0.00  0.00    +0.061 S 
ATOM     30  O   UNL     1       7.808  13.045   5.411  0.00  0.00    -0.153 OA
ATOM     31  O   UNL     1       7.430  14.845   3.732  0.00  0.00    -0.153 OA
BRANCH  29  36
ATOM     32  C   UNL     1       3.272  16.688   8.491  0.00  0.00    +0.044 C 
ATOM     33  C   UNL     1       4.189  15.980   7.527  0.00  0.00    -0.050 A 
ATOM     34  C   UNL     1       4.791  14.790   7.891  0.00  0.00    +0.005 A 
ATOM     35  C   UNL     1       5.632  14.142   7.006  0.00  0.00    +0.029 A 
ATOM     36  C   UNL     1       5.871  14.683   5.757  0.00  0.00    +0.105 A 
ATOM     37  C   UNL     1       5.273  15.875   5.394  0.00  0.00    +0.029 A 
ATOM     38  C   UNL     1       4.428  16.522   6.277  0.00  0.00    +0.005 A 
ENDBRANCH  29  36
ENDBRANCH  21  29
ENDBRANCH   1  27
TORSDOF 5
