REMARK  Name = ZINC34747546
REMARK  4 active torsions:
REMARK  status: ('A' for Active; 'I' for Inactive)
REMARK    1  A    between atoms: C_7  and  C_9
REMARK    2  A    between atoms: C_9  and  N_10
REMARK    3  A    between atoms: N_23  and  C_26
REMARK    4  A    between atoms: C_26  and  C_27
REMARK                            x       y       z     vdW  Elec       q    Type
REMARK                         _______ _______ _______ _____ _____    ______ ____
ROOT
ATOM      1  N   UNL     1       4.324  -2.831   1.696  0.00  0.00    -0.271 N 
ATOM      2  C   UNL     1       4.977  -3.254   0.598  0.00  0.00    +0.264 A 
ATOM      3  O   UNL     1       4.433  -3.231  -0.492  0.00  0.00    -0.267 OA
ATOM      4  C   UNL     1       6.320  -3.731   0.729  0.00  0.00    +0.076 A 
ATOM      5  C   UNL     1       7.210  -4.235  -0.319  0.00  0.00    -0.023 A 
ATOM      6  C   UNL     1       8.442  -4.629   0.063  0.00  0.00    -0.004 A 
ATOM      7  S   UNL     1       8.491  -4.357   1.813  0.00  0.00    -0.073 S 
ATOM      8  C   UNL     1       6.851  -3.714   2.029  0.00  0.00    +0.117 A 
ATOM      9  N   UNL     1       6.151  -3.282   3.073  0.00  0.00    -0.208 NA
ATOM     10  C   UNL     1       4.919  -2.844   2.923  0.00  0.00    +0.202 A 
ATOM     11  N   UNL     1       4.221  -2.398   4.018  0.00  0.00    -0.304 N 
ATOM     12  C   UNL     1       3.402  -3.321   4.820  0.00  0.00    +0.089 C 
ATOM     13  C   UNL     1       3.777  -3.145   6.295  0.00  0.00    -0.059 C 
ATOM     14  N   UNL     1       3.640  -1.732   6.670  0.00  0.00    +0.387 N 
ATOM     15  C   UNL     1       4.605  -0.920   5.918  0.00  0.00    -0.059 C 
ATOM     16  C   UNL     1       4.276  -0.986   4.427  0.00  0.00    +0.089 C 
ATOM     17  C   UNL     1       9.530  -5.179  -0.809  0.00  0.00    +0.043 C 
ATOM     18  C   UNL     1       8.913  -5.581  -2.157  0.00  0.00    +0.005 C 
ATOM     19  C   UNL     1       8.031  -4.432  -2.655  0.00  0.00    +0.005 C 
ATOM     20  C   UNL     1       6.782  -4.320  -1.781  0.00  0.00    +0.037 C 
ATOM     21  H   UNL     1       2.704  -1.419   6.460  0.00  0.00    -0.081 HD
ENDROOT
BRANCH   1  22
ATOM     22  C   UNL     1       2.949  -2.342   1.570  0.00  0.00    +0.224 C 
BRANCH  22  29
ATOM     23  C   UNL     1      -0.442   0.809  -0.352  0.00  0.00    +0.003 C 
ATOM     24  C   UNL     1       0.951   1.392  -0.603  0.00  0.00    +0.019 C 
ATOM     25  C   UNL     1       1.811   1.206   0.652  0.00  0.00    +0.108 C 
ATOM     26  N   UNL     1       1.809  -0.216   1.020  0.00  0.00    -0.300 N 
ATOM     27  C   UNL     1       0.519  -0.899   1.196  0.00  0.00    +0.108 C 
ATOM     28  C   UNL     1      -0.326  -0.689  -0.064  0.00  0.00    +0.019 C 
ATOM     29  C   UNL     1       2.967  -0.883   1.192  0.00  0.00    +0.236 C 
ATOM     30  O   UNL     1       4.025  -0.308   1.044  0.00  0.00    -0.274 OA
ENDBRANCH  22  29
ENDBRANCH   1  22
BRANCH  14  31
ATOM     31  C   UNL     1       3.893  -1.582   8.109  0.00  0.00    +0.019 C 
BRANCH  31  32
ATOM     32  C   UNL     1       3.633  -0.155   8.518  0.00  0.00    +0.199 C 
ATOM     33  O   UNL     1       3.273   0.657   7.692  0.00  0.00    -0.278 OA
ATOM     34  N   UNL     1       3.801   0.220   9.802  0.00  0.00    -0.303 N 
ATOM     35  C   UNL     1       4.237  -0.656  10.899  0.00  0.00    +0.108 C 
ATOM     36  C   UNL     1       4.260   0.198  12.185  0.00  0.00    +0.020 C 
ATOM     37  C   UNL     1       3.293   1.362  11.846  0.00  0.00    +0.020 C 
ATOM     38  C   UNL     1       3.583   1.576  10.337  0.00  0.00    +0.108 C 
ENDBRANCH  31  32
ENDBRANCH  14  31
TORSDOF 4
