REMARK  Name = ZINC02625952
REMARK  12 active torsions:
REMARK  status: ('A' for Active; 'I' for Inactive)
REMARK    1  A    between atoms: C_1  and  C_2
REMARK    2  A    between atoms: C_2  and  N_3
REMARK    3  A    between atoms: C_6  and  C_19
REMARK    4  A    between atoms: C_7  and  N_18
REMARK    5  A    between atoms: N_8  and  C_11
REMARK    6  A    between atoms: C_11  and  C_12
REMARK    7  A    between atoms: C_19  and  C_21
REMARK    8  A    between atoms: C_21  and  N_64
REMARK    9  A    between atoms: C_22  and  C_23
REMARK   10  A    between atoms: C_22  and  N_64
REMARK   11  A    between atoms: C_24  and  C_25
REMARK   12  A    between atoms: C_24  and  N_64
REMARK                            x       y       z     vdW  Elec       q    Type
REMARK                         _______ _______ _______ _____ _____    ______ ____
ROOT
ATOM      1  N   UNL     1       6.991   9.462   0.064  0.00  0.00    -0.260 N 
ATOM      2  C   UNL     1       5.987   8.585  -0.145  0.00  0.00    +0.269 A 
ATOM      3  O   UNL     1       6.223   7.412  -0.364  0.00  0.00    -0.267 OA
ATOM      4  C   UNL     1       4.604   9.078  -0.108  0.00  0.00    +0.118 A 
ATOM      5  C   UNL     1       4.400  10.444   0.156  0.00  0.00    +0.116 A 
ATOM      6  N   UNL     1       5.486  11.246   0.360  0.00  0.00    -0.277 N 
ATOM      7  C   UNL     1       6.734  10.757   0.312  0.00  0.00    +0.334 A 
ATOM      8  O   UNL     1       7.667  11.513   0.500  0.00  0.00    -0.246 OA
ENDROOT
BRANCH   5   9
ATOM      9  N   UNL     1       3.141  10.957   0.208  0.00  0.00    -0.344 N 
ATOM     10  H   UNL     1       2.375  10.362   0.225  0.00  0.00    +0.144 HD
ATOM     11  H   UNL     1       3.009  11.917   0.229  0.00  0.00    +0.144 HD
ENDBRANCH   5   9
BRANCH   1  13
ATOM     12  C   UNL     1       8.805   8.550   1.427  0.00  0.00    +0.027 C 
ATOM     13  C   UNL     1       8.379   8.995   0.026  0.00  0.00    +0.126 C 
ENDBRANCH   1  13
BRANCH   4  14
ATOM     14  C   UNL     1       3.515   8.207  -0.326  0.00  0.00    +0.155 C 
ATOM     15  O   UNL     1       2.388   8.653  -0.406  0.00  0.00    -0.294 OA
BRANCH  14  16
ATOM     16  C   UNL     1       3.750   6.725  -0.458  0.00  0.00    +0.003 C 
BRANCH  16  17
ATOM     17  N   UNL     1       2.444   6.047  -0.592  0.00  0.00    +0.389 N 
ATOM     18  H   UNL     1       1.870   6.560  -1.272  0.00  0.00    -0.081 HD
BRANCH  17  19
ATOM     19  C   UNL     1       1.746   6.031   0.711  0.00  0.00    -0.081 C 
ATOM     20  C   UNL     1       2.525   5.193   1.726  0.00  0.00    -0.017 C 
ENDBRANCH  17  19
BRANCH  17  21
ATOM     21  C   UNL     1       2.639   4.664  -1.077  0.00  0.00    -0.003 C 
BRANCH  21  22
ATOM     22  C   UNL     1       1.295   4.073  -1.414  0.00  0.00    +0.094 A 
ATOM     23  N   UNL     1       1.253   2.804  -1.899  0.00  0.00    -0.312 N 
ATOM     24  H   UNL     1       2.103   2.292  -2.021  0.00  0.00    +0.170 HD
ATOM     25  C   UNL     1       0.070   2.228  -2.218  0.00  0.00    +0.259 A 
ATOM     26  O   UNL     1       0.018   1.092  -2.653  0.00  0.00    -0.267 OA
ATOM     27  C   UNL     1      -1.147   3.029  -2.024  0.00  0.00    +0.065 A 
ATOM     28  C   UNL     1      -2.414   2.526  -2.316  0.00  0.00    +0.015 A 
ATOM     29  C   UNL     1      -3.522   3.319  -2.110  0.00  0.00    +0.001 A 
ATOM     30  C   UNL     1      -3.386   4.607  -1.609  0.00  0.00    +0.002 A 
ATOM     31  C   UNL     1      -2.144   5.120  -1.309  0.00  0.00    +0.028 A 
ATOM     32  C   UNL     1      -1.006   4.336  -1.509  0.00  0.00    +0.078 A 
ATOM     33  N   UNL     1       0.237   4.801  -1.228  0.00  0.00    -0.236 NA
ENDBRANCH  21  22
ENDBRANCH  17  21
ENDBRANCH  16  17
ENDBRANCH  14  16
ENDBRANCH   4  14
BRANCH   6  34
ATOM     34  C   UNL     1       5.283  12.671   0.635  0.00  0.00    +0.163 C 
BRANCH  34  35
ATOM     35  C   UNL     1       5.158  12.882   2.122  0.00  0.00    -0.028 A 
ATOM     36  C   UNL     1       3.915  12.831   2.725  0.00  0.00    +0.005 A 
ATOM     37  C   UNL     1       3.800  13.020   4.090  0.00  0.00    +0.000 A 
ATOM     38  C   UNL     1       4.927  13.270   4.850  0.00  0.00    +0.000 A 
ATOM     39  C   UNL     1       6.170  13.326   4.246  0.00  0.00    +0.000 A 
ATOM     40  C   UNL     1       6.285  13.132   2.882  0.00  0.00    +0.005 A 
ENDBRANCH  34  35
ENDBRANCH   6  34
TORSDOF 10
