REMARK  Name = ZINC07660810
REMARK  11 active torsions:
REMARK  status: ('A' for Active; 'I' for Inactive)
REMARK    1  A    between atoms: C_1  and  C_2
REMARK    2  A    between atoms: C_2  and  C_4
REMARK    3  A    between atoms: C_2  and  N_20
REMARK    4  A    between atoms: N_9  and  C_10
REMARK    5  A    between atoms: N_20  and  C_21
REMARK    6  A    between atoms: N_20  and  C_22
REMARK    7  A    between atoms: C_22  and  C_23
REMARK    8  A    between atoms: N_25  and  C_26
REMARK    9  A    between atoms: C_26  and  C_27
REMARK   10  A    between atoms: C_26  and  C_28
REMARK   11  A    between atoms: C_26  and  C_29
REMARK                            x       y       z     vdW  Elec       q    Type
REMARK                         _______ _______ _______ _____ _____    ______ ____
ROOT
ATOM      1  C   UNL     1       0.572  -0.436   1.273  0.00  0.00    +0.207 C 
ATOM      2  O   UNL     1       1.514  -1.197   1.213  0.00  0.00    -0.277 OA
ATOM      3  N   UNL     1       0.121  -0.016   2.471  0.00  0.00    -0.242 N 
ATOM      4  C   UNL     1       0.717  -0.441   3.603  0.00  0.00    +0.306 C 
ATOM      5  O   UNL     1       1.661  -1.204   3.542  0.00  0.00    -0.252 OA
ATOM      6  N   UNL     1       0.266  -0.021   4.801  0.00  0.00    -0.294 N 
ATOM      7  H   UNL     1      -0.633   0.593   2.519  0.00  0.00    +0.159 HD
ATOM      8  H   UNL     1      -0.488   0.588   4.849  0.00  0.00    +0.151 HD
ENDROOT
BRANCH   6   9
ATOM      9  C   UNL     1       0.913  -0.483   6.031  0.00  0.00    +0.037 C 
ATOM     10  C   UNL     1       0.819  -2.008   6.115  0.00  0.00    +0.029 C 
ATOM     11  C   UNL     1       1.496  -2.490   7.399  0.00  0.00    -0.008 C 
ATOM     12  C   UNL     1       0.796  -1.869   8.609  0.00  0.00    +0.007 C 
ATOM     13  C   UNL     1       0.890  -0.344   8.525  0.00  0.00    -0.008 C 
ATOM     14  C   UNL     1       0.213   0.139   7.241  0.00  0.00    +0.029 C 
ATOM     15  C   UNL     1       2.361   0.076   8.516  0.00  0.00    +0.007 C 
ATOM     16  C   UNL     1       3.061  -0.545   7.306  0.00  0.00    -0.008 C 
ATOM     17  C   UNL     1       2.967  -2.070   7.390  0.00  0.00    +0.007 C 
ATOM     18  C   UNL     1       2.385  -0.062   6.021  0.00  0.00    +0.029 C 
ENDBRANCH   6   9
BRANCH   1  20
ATOM     19  C   UNL     1       0.540   1.358  -0.439  0.00  0.00    -0.004 C 
ATOM     20  C   UNL     1      -0.095   0.039   0.007  0.00  0.00    +0.017 C 
BRANCH  20  21
ATOM     21  N   UNL     1       0.079  -0.969  -1.046  0.00  0.00    +0.391 N 
ATOM     22  C   UNL     1      -0.523  -0.482  -2.294  0.00  0.00    -0.094 C 
ATOM     23  H   UNL     1       1.063  -1.138  -1.192  0.00  0.00    -0.080 HD
BRANCH  21  24
ATOM     24  C   UNL     1      -0.577  -2.219  -0.641  0.00  0.00    +0.019 C 
BRANCH  24  25
ATOM     25  C   UNL     1      -0.257  -3.302  -1.640  0.00  0.00    +0.197 C 
ATOM     26  O   UNL     1       0.449  -3.055  -2.595  0.00  0.00    -0.278 OA
ATOM     27  N   UNL     1      -0.754  -4.543  -1.471  0.00  0.00    -0.312 N 
ATOM     28  H   UNL     1      -1.318  -4.739  -0.707  0.00  0.00    +0.149 HD
BRANCH  27  29
ATOM     29  C   UNL     1      -0.443  -5.595  -2.442  0.00  0.00    +0.026 C 
ATOM     30  C   UNL     1       1.071  -5.808  -2.495  0.00  0.00    +0.031 C 
ATOM     31  C   UNL     1      -1.126  -6.897  -2.020  0.00  0.00    +0.031 C 
ATOM     32  C   UNL     1      -0.948  -5.178  -3.825  0.00  0.00    +0.031 C 
ENDBRANCH  27  29
ENDBRANCH  24  25
ENDBRANCH  21  24
ENDBRANCH  20  21
ENDBRANCH   1  20
TORSDOF 6
