REMARK  Name = ZINC36880836
REMARK  6 active torsions:
REMARK  status: ('A' for Active; 'I' for Inactive)
REMARK    1  A    between atoms: C_1  and  C_2
REMARK    2  A    between atoms: C_2  and  N_3
REMARK    3  A    between atoms: N_3  and  C_4
REMARK    4  A    between atoms: C_7  and  N_10
REMARK    5  A    between atoms: N_10  and  S_11
REMARK    6  A    between atoms: S_11  and  C_14
REMARK                            x       y       z     vdW  Elec       q    Type
REMARK                         _______ _______ _______ _____ _____    ______ ____
ROOT
ATOM      1  N   UNL     1       2.146  -6.085   1.292  0.00  0.00    -0.187 NA
ATOM      2  H   UNL     1       1.473  -6.639   0.867  0.00  0.00    +0.148 HD
ENDROOT
BRANCH   1   6
ATOM      3  C   UNL     1       0.315  -2.249   0.925  0.00  0.00    -0.072 C 
ATOM      4  C   UNL     1       1.629  -2.498   0.182  0.00  0.00    -0.014 C 
ATOM      5  C   UNL     1       1.857  -4.004   0.040  0.00  0.00    +0.019 C 
ATOM      6  C   UNL     1       1.927  -4.643   1.428  0.00  0.00    +0.076 C 
ATOM      7  C   UNL     1       0.613  -4.394   2.171  0.00  0.00    +0.019 C 
ATOM      8  C   UNL     1       0.385  -2.888   2.313  0.00  0.00    -0.014 C 
BRANCH   3   9
ATOM      9  N   UNL     1       0.095  -0.803   1.062  0.00  0.00    +0.381 N 
ATOM     10  H   UNL     1       0.896  -0.383   1.509  0.00  0.00    -0.086 HD
ATOM     11  H   UNL     1      -0.728  -0.639   1.622  0.00  0.00    -0.086 HD
BRANCH   9  13
ATOM     12  C   UNL     1      -0.320   1.298  -0.126  0.00  0.00    -0.017 C 
ATOM     13  C   UNL     1      -0.091  -0.208  -0.269  0.00  0.00    -0.086 C 
ENDBRANCH   9  13
ENDBRANCH   3   9
ENDBRANCH   1   6
BRANCH   1  14
ATOM     14  S   UNL     1       3.542  -6.769   1.863  0.00  0.00    +0.061 S 
ATOM     15  O   UNL     1       3.431  -8.167   1.638  0.00  0.00    -0.153 OA
ATOM     16  O   UNL     1       4.615  -5.996   1.343  0.00  0.00    -0.153 OA
BRANCH  14  17
ATOM     17  C   UNL     1       3.556  -6.540   3.610  0.00  0.00    +0.132 A 
ATOM     18  C   UNL     1       4.526  -5.754   4.208  0.00  0.00    +0.057 A 
ATOM     19  C   UNL     1       4.507  -5.599   5.555  0.00  0.00    +0.081 A 
ATOM     20  S   UNL     1       3.091  -6.580   6.021  0.00  0.00    -0.063 S 
ATOM     21  C   UNL     1       2.614  -7.127   4.389  0.00  0.00    +0.106 A 
ATOM     22 CL   UNL     1       1.290  -8.147   3.922  0.00  0.00    -0.074 Cl
ATOM     23 CL   UNL     1       5.583  -4.684   6.564  0.00  0.00    -0.076 Cl
ENDBRANCH  14  17
ENDBRANCH   1  14
TORSDOF 5
