REMARK  Name = ZINC00586640
REMARK  7 active torsions:
REMARK  status: ('A' for Active; 'I' for Inactive)
REMARK    1  A    between atoms: C_1  and  C_2
REMARK    2  A    between atoms: C_2  and  O_3
REMARK    3  A    between atoms: O_3  and  C_4
REMARK    4  A    between atoms: N_6  and  C_7
REMARK    5  A    between atoms: C_22  and  C_24
REMARK    6  A    between atoms: C_24  and  N_61
REMARK    7  A    between atoms: C_25  and  N_61
REMARK                            x       y       z     vdW  Elec       q    Type
REMARK                         _______ _______ _______ _____ _____    ______ ____
ROOT
ATOM      1  C   UNL     1      -1.795   2.182  -3.746  0.00  0.00    +0.038 A 
ATOM      2  C   UNL     1      -0.685   1.349  -3.669  0.00  0.00    +0.024 A 
ATOM      3  C   UNL     1      -0.142   1.049  -2.443  0.00  0.00    +0.007 A 
ATOM      4  C   UNL     1      -0.676   1.565  -1.258  0.00  0.00    -0.025 A 
ATOM      5  C   UNL     1      -1.761   2.409  -1.338  0.00  0.00    +0.046 A 
ATOM      6  C   UNL     1      -2.327   2.705  -2.583  0.00  0.00    +0.047 A 
ATOM      7  N   UNL     1      -2.342   3.044  -0.243  0.00  0.00    -0.241 N 
ATOM      8  C   UNL     1      -1.601   3.672   0.758  0.00  0.00    +0.044 A 
ATOM      9  C   UNL     1      -1.673   5.043   0.960  0.00  0.00    +0.024 A 
ATOM     10  C   UNL     1      -0.934   5.612   1.982  0.00  0.00    +0.002 A 
ATOM     11  C   UNL     1      -0.139   4.816   2.786  0.00  0.00    +0.000 A 
ATOM     12  C   UNL     1      -0.068   3.451   2.571  0.00  0.00    +0.005 A 
ATOM     13  C   UNL     1      -0.800   2.882   1.540  0.00  0.00    -0.025 A 
ATOM     14  C   UNL     1      -0.708   1.410   1.273  0.00  0.00    +0.042 C 
ATOM     15  C   UNL     1       0.030   1.106  -0.007  0.00  0.00    +0.042 C 
ATOM     16  C   UNL     1      -3.686   3.054  -0.147  0.00  0.00    +0.207 C 
ATOM     17  O   UNL     1      -4.359   2.517  -1.001  0.00  0.00    -0.277 OA
ENDROOT
BRANCH   1  20
ATOM     18  C   UNL     1      -2.351   1.574  -5.979  0.00  0.00    +0.405 C 
ATOM     19  O   UNL     1      -1.927   0.455  -5.768  0.00  0.00    -0.226 OA
ATOM     20  N   UNL     1      -2.368   2.486  -4.987  0.00  0.00    -0.251 N 
ATOM     21  H   UNL     1      -2.776   3.354  -5.132  0.00  0.00    +0.158 HD
BRANCH  18  22
ATOM     22  O   UNL     1      -2.804   1.903  -7.203  0.00  0.00    -0.450 OA
BRANCH  22  24
ATOM     23  C   UNL     1      -3.308   1.426  -9.537  0.00  0.00    +0.048 C 
ATOM     24  C   UNL     1      -2.756   0.871  -8.223  0.00  0.00    +0.230 C 
ENDBRANCH  22  24
ENDBRANCH  18  22
ENDBRANCH   1  20
BRANCH  16  25
ATOM     25  C   UNL     1      -4.353   3.731   1.023  0.00  0.00    +0.016 C 
BRANCH  25  26
ATOM     26  N   UNL     1      -5.816   3.598   0.889  0.00  0.00    +0.387 N 
ATOM     27  H   UNL     1      -6.066   2.602   0.874  0.00  0.00    -0.085 HD
ATOM     28  H   UNL     1      -6.117   4.039   0.012  0.00  0.00    -0.085 HD
BRANCH  26  29
ATOM     29  C   UNL     1      -6.496   4.253   2.022  0.00  0.00    -0.071 C 
ATOM     30  C   UNL     1      -6.578   3.280   3.200  0.00  0.00    -0.016 C 
ATOM     31  C   UNL     1      -7.291   3.957   4.372  0.00  0.00    -0.002 C 
ATOM     32  C   UNL     1      -8.704   4.361   3.945  0.00  0.00    -0.000 C 
ATOM     33  C   UNL     1      -8.621   5.334   2.767  0.00  0.00    -0.002 C 
ATOM     34  C   UNL     1      -7.908   4.657   1.595  0.00  0.00    -0.016 C 
ENDBRANCH  26  29
ENDBRANCH  25  26
ENDBRANCH  16  25
TORSDOF 6
