REMARK  Name = ZINC63111963
REMARK  7 active torsions:
REMARK  status: ('A' for Active; 'I' for Inactive)
REMARK    1  A    between atoms: C_7  and  C_10
REMARK    2  A    between atoms: C_10  and  C_11
REMARK    3  A    between atoms: C_11  and  N_12
REMARK    4  A    between atoms: C_13  and  C_15
REMARK    5  A    between atoms: C_15  and  C_16
REMARK    6  A    between atoms: C_16  and  C_18
REMARK    7  A    between atoms: C_16  and  N_25
REMARK                            x       y       z     vdW  Elec       q    Type
REMARK                         _______ _______ _______ _____ _____    ______ ____
ROOT
ATOM      1  N   UNL     1      -0.142  -4.716  -1.744  0.00  0.00    -0.315 N 
ATOM      2  C   UNL     1      -0.614  -5.358  -2.831  0.00  0.00    +0.215 C 
ATOM      3  O   UNL     1      -0.227  -5.042  -3.937  0.00  0.00    -0.276 OA
ATOM      4  H   UNL     1      -0.451  -4.968  -0.860  0.00  0.00    +0.149 HD
ENDROOT
BRANCH   1   5
ATOM      5  C   UNL     1       0.838  -3.637  -1.898  0.00  0.00    +0.108 C 
BRANCH   5   6
ATOM      6  C   UNL     1       1.205  -3.082  -0.520  0.00  0.00    +0.052 C 
BRANCH   6  13
ATOM      7  C   UNL     1       0.776   1.479  -0.791  0.00  0.00    +0.001 A 
ATOM      8  C   UNL     1       1.998   2.151  -0.938  0.00  0.00    +0.002 A 
ATOM      9  C   UNL     1       3.182   1.506  -0.993  0.00  0.00    +0.026 A 
ATOM     10  C   UNL     1       3.234   0.087  -0.902  0.00  0.00    +0.043 A 
ATOM     11  N   UNL     1       4.239  -0.753  -0.930  0.00  0.00    -0.380 N 
ATOM     12  C   UNL     1       3.713  -2.116  -0.794  0.00  0.00    +0.144 C 
ATOM     13  C   UNL     1       2.212  -1.972  -0.678  0.00  0.00    -0.040 C 
ATOM     14  C   UNL     1       1.957  -0.645  -0.746  0.00  0.00    -0.001 A 
ATOM     15  C   UNL     1       0.713   0.132  -0.694  0.00  0.00    +0.010 A 
ATOM     16  H   UNL     1       5.174  -0.514  -1.024  0.00  0.00    +0.160 HD
ENDBRANCH   6  13
ENDBRANCH   5   6
ENDBRANCH   1   5
BRANCH   2  17
ATOM     17  C   UNL     1      -1.621  -6.467  -2.673  0.00  0.00    +0.122 C 
BRANCH  17  18
ATOM     18  C   UNL     1      -1.988  -7.023  -4.051  0.00  0.00    +0.113 C 
BRANCH  18  19
ATOM     19  C   UNL     1      -2.900  -8.211  -3.886  0.00  0.00    -0.026 A 
ATOM     20  C   UNL     1      -4.222  -8.024  -3.528  0.00  0.00    +0.005 A 
ATOM     21  C   UNL     1      -5.059  -9.113  -3.377  0.00  0.00    +0.001 A 
ATOM     22  C   UNL     1      -4.574 -10.391  -3.584  0.00  0.00    +0.015 A 
ATOM     23  C   UNL     1      -3.252 -10.579  -3.943  0.00  0.00    +0.018 A 
ATOM     24  C   UNL     1      -2.416  -9.488  -4.099  0.00  0.00    +0.020 A 
ATOM     25 BR   UNL     1      -2.588 -12.327  -4.226  0.00  0.00    -0.050 Br
ENDBRANCH  18  19
BRANCH  18  26
ATOM     26  N   UNL     1      -2.672  -5.987  -4.829  0.00  0.00    -0.292 N 
ATOM     27  C   UNL     1      -2.628  -6.016  -6.175  0.00  0.00    +0.298 C 
ATOM     28  O   UNL     1      -2.099  -6.950  -6.746  0.00  0.00    -0.253 OA
ATOM     29  N   UNL     1      -3.170  -5.010  -6.889  0.00  0.00    -0.313 N 
ATOM     30  H   UNL     1      -3.156  -5.279  -4.375  0.00  0.00    +0.151 HD
ATOM     31  H   UNL     1      -3.592  -4.264  -6.434  0.00  0.00    +0.146 HD
ATOM     32  H   UNL     1      -3.138  -5.031  -7.859  0.00  0.00    +0.146 HD
ENDBRANCH  18  26
ENDBRANCH  17  18
ENDBRANCH   2  17
TORSDOF 7
