REMARK  Name = ZINC66925088
REMARK  10 active torsions:
REMARK  status: ('A' for Active; 'I' for Inactive)
REMARK    1  A    between atoms: C_1  and  N_2
REMARK    2  A    between atoms: N_2  and  C_3
REMARK    3  A    between atoms: N_2  and  C_22
REMARK    4  A    between atoms: C_3  and  C_4
REMARK    5  A    between atoms: C_4  and  C_5
REMARK    6  A    between atoms: C_5  and  N_6
REMARK    7  A    between atoms: N_9  and  C_10
REMARK    8  A    between atoms: C_10  and  C_11
REMARK    9  A    between atoms: C_11  and  O_21
REMARK   10  A    between atoms: C_22  and  C_23
REMARK                            x       y       z     vdW  Elec       q    Type
REMARK                         _______ _______ _______ _____ _____    ______ ____
ROOT
ATOM      1  N   UNL     1      -4.409  -0.353  -2.206  0.00  0.00    -0.299 N 
ATOM      2  C   UNL     1      -5.638  -0.873  -2.395  0.00  0.00    +0.300 C 
ATOM      3  O   UNL     1      -6.117  -1.619  -1.563  0.00  0.00    -0.253 OA
ATOM      4  N   UNL     1      -6.335  -0.566  -3.507  0.00  0.00    -0.296 N 
ATOM      5  H   UNL     1      -4.026   0.242  -2.869  0.00  0.00    +0.150 HD
ATOM      6  H   UNL     1      -5.953   0.029  -4.170  0.00  0.00    +0.150 HD
ENDROOT
BRANCH   1   7
ATOM      7  C   UNL     1      -3.650  -0.687  -0.998  0.00  0.00    +0.104 C 
BRANCH   7   8
ATOM      8  C   UNL     1      -2.298   0.029  -1.030  0.00  0.00    +0.000 C 
BRANCH   8   9
ATOM      9  C   UNL     1      -1.506  -0.320   0.232  0.00  0.00    -0.077 C 
BRANCH   9  11
ATOM     10  C   UNL     1      -0.422   1.819   0.265  0.00  0.00    -0.096 C 
ATOM     11  N   UNL     1      -0.209   0.367   0.201  0.00  0.00    +0.384 N 
ATOM     12  H   UNL     1       0.274   0.136  -0.654  0.00  0.00    -0.082 HD
BRANCH  11  13
ATOM     13  C   UNL     1       0.599  -0.060   1.351  0.00  0.00    +0.036 C 
BRANCH  13  14
ATOM     14  C   UNL     1       1.998   0.551   1.247  0.00  0.00    +0.376 C 
ATOM     15  F   UNL     1       1.909   1.942   1.372  0.00  0.00    -0.173 F 
ATOM     16  F   UNL     1       2.807   0.042   2.269  0.00  0.00    -0.173 F 
ATOM     17  F   UNL     1       2.557   0.229   0.006  0.00  0.00    -0.173 F 
ENDBRANCH  13  14
ENDBRANCH  11  13
ENDBRANCH   9  11
ENDBRANCH   8   9
ENDBRANCH   7   8
ENDBRANCH   1   7
BRANCH   4  18
ATOM     18  C   UNL     1      -7.671  -1.131  -3.713  0.00  0.00    +0.145 C 
BRANCH  18  19
ATOM     19  C   UNL     1      -8.198  -0.706  -5.085  0.00  0.00    +0.107 C 
ATOM     20  C   UNL     1      -7.222  -1.168  -6.165  0.00  0.00    +0.041 C 
ATOM     21  C   UNL     1      -7.868  -0.929  -7.535  0.00  0.00    +0.008 C 
ATOM     22  C   UNL     1      -9.021  -1.917  -7.702  0.00  0.00    +0.035 C 
ATOM     23  C   UNL     1      -9.938  -1.868  -6.507  0.00  0.00    -0.041 A 
ATOM     24  C   UNL     1      -9.559  -1.315  -5.304  0.00  0.00    -0.011 A 
ATOM     25  C   UNL     1     -10.450  -1.307  -4.240  0.00  0.00    +0.007 A 
ATOM     26  C   UNL     1     -11.713  -1.846  -4.379  0.00  0.00    +0.000 A 
ATOM     27  C   UNL     1     -12.095  -2.397  -5.587  0.00  0.00    +0.000 A 
ATOM     28  C   UNL     1     -11.210  -2.407  -6.646  0.00  0.00    +0.004 A 
BRANCH  19  29
ATOM     29  O   UNL     1      -8.307   0.718  -5.127  0.00  0.00    -0.382 OA
ATOM     30  H   UNL     1      -8.906   1.087  -4.463  0.00  0.00    +0.211 HD
ENDBRANCH  19  29
ENDBRANCH  18  19
ENDBRANCH   4  18
TORSDOF 9
