REMARK  Name = ZINC39290137
REMARK  3 active torsions:
REMARK  status: ('A' for Active; 'I' for Inactive)
REMARK    1  A    between atoms: C_1  and  C_2
REMARK    2  A    between atoms: C_5  and  C_20
REMARK    3  A    between atoms: N_12  and  C_13
REMARK                            x       y       z     vdW  Elec       q    Type
REMARK                         _______ _______ _______ _____ _____    ______ ____
ROOT
ATOM      1  C   UNL     1      -0.019   1.526   0.010  0.00  0.00    +0.035 C 
ATOM      2  C   UNL     1       0.002  -0.004   0.002  0.00  0.00    +0.129 C 
ATOM      3  C   UNL     1       0.754  -0.520  -1.198  0.00  0.00    +0.026 C 
ATOM      4  C   UNL     1       0.624  -0.448  -2.543  0.00  0.00    +0.065 C 
ATOM      5  N   UNL     1       1.500  -1.044  -3.342  0.00  0.00    -0.164 NA
ATOM      6  N   UNL     1       2.507  -1.714  -2.917  0.00  0.00    -0.109 NA
ATOM      7  C   UNL     1       2.763  -1.872  -1.608  0.00  0.00    +0.146 C 
ATOM      8  S   UNL     1       4.117  -2.773  -1.074  0.00  0.00    -0.029 S 
ATOM      9  C   UNL     1       1.841  -1.244  -0.646  0.00  0.00    +0.121 C 
ATOM     10  N   UNL     1       1.784  -1.191   0.669  0.00  0.00    -0.176 NA
ATOM     11  N   UNL     1       0.788  -0.521   1.138  0.00  0.00    -0.217 N 
ATOM     12  C   UNL     1      -0.529   0.318  -3.140  0.00  0.00    +0.068 C 
ENDROOT
BRANCH  11  13
ATOM     13  C   UNL     1       0.501  -0.318   2.485  0.00  0.00    +0.054 A 
ATOM     14  C   UNL     1      -0.615   0.426   2.856  0.00  0.00    +0.025 A 
ATOM     15  C   UNL     1      -0.896   0.625   4.193  0.00  0.00    +0.003 A 
ATOM     16  C   UNL     1      -0.071   0.087   5.164  0.00  0.00    +0.020 A 
ATOM     17  C   UNL     1       1.040  -0.654   4.799  0.00  0.00    +0.043 A 
ATOM     18  C   UNL     1       1.325  -0.862   3.464  0.00  0.00    +0.045 A 
ATOM     19 CL   UNL     1       2.072  -1.327   6.022  0.00  0.00    -0.083 Cl
ENDBRANCH  11  13
TORSDOF 1
