REMARK  Name = ZINC13031073
REMARK  13 active torsions:
REMARK  status: ('A' for Active; 'I' for Inactive)
REMARK    1  A    between atoms: C_1  and  C_2
REMARK    2  A    between atoms: C_2  and  N_55
REMARK    3  A    between atoms: C_3  and  C_4
REMARK    4  A    between atoms: C_3  and  N_55
REMARK    5  A    between atoms: N_6  and  C_7
REMARK    6  A    between atoms: C_7  and  C_8
REMARK    7  A    between atoms: C_8  and  C_9
REMARK    8  A    between atoms: C_12  and  S_15
REMARK    9  A    between atoms: S_15  and  N_18
REMARK   10  A    between atoms: C_19  and  C_20
REMARK   11  A    between atoms: C_19  and  N_55
REMARK   12  A    between atoms: N_22  and  C_23
REMARK   13  A    between atoms: C_23  and  C_24
REMARK                            x       y       z     vdW  Elec       q    Type
REMARK                         _______ _______ _______ _____ _____    ______ ____
ROOT
ATOM      1  C   UNL     1       7.931  -1.141  -4.099  0.00  0.00    +0.196 C 
ATOM      2  O   UNL     1       8.358  -1.335  -2.980  0.00  0.00    -0.278 OA
ATOM      3  N   UNL     1       8.614  -1.595  -5.169  0.00  0.00    -0.317 N 
ATOM      4  H   UNL     1       8.272  -1.440  -6.063  0.00  0.00    +0.149 HD
ENDROOT
BRANCH   1   5
ATOM      5  C   UNL     1       6.637  -0.394  -4.293  0.00  0.00    +0.019 C 
BRANCH   5   6
ATOM      6  N   UNL     1       6.092  -0.033  -2.967  0.00  0.00    +0.391 N 
ATOM      7  H   UNL     1       6.056  -0.875  -2.381  0.00  0.00    -0.080 HD
BRANCH   6   9
ATOM      8  C   UNL     1       6.675   0.969  -0.815  0.00  0.00    -0.017 C 
ATOM      9  C   UNL     1       6.965   0.968  -2.317  0.00  0.00    -0.081 C 
ENDBRANCH   6   9
BRANCH   6  10
ATOM     10  C   UNL     1       4.725   0.509  -3.113  0.00  0.00    +0.019 C 
BRANCH  10  11
ATOM     11  C   UNL     1       3.771  -0.638  -3.327  0.00  0.00    +0.197 C 
ATOM     12  O   UNL     1       4.197  -1.768  -3.440  0.00  0.00    -0.278 OA
ATOM     13  N   UNL     1       2.445  -0.409  -3.391  0.00  0.00    -0.312 N 
ATOM     14  H   UNL     1       2.104   0.495  -3.300  0.00  0.00    +0.149 HD
BRANCH  13  15
ATOM     15  C   UNL     1       1.518  -1.524  -3.599  0.00  0.00    +0.146 C 
BRANCH  15  16
ATOM     16  C   UNL     1       0.104  -1.003  -3.632  0.00  0.00    +0.007 A 
ATOM     17  C   UNL     1      -0.623  -0.575  -4.693  0.00  0.00    +0.013 A 
ATOM     18  C   UNL     1      -1.915  -0.130  -4.485  0.00  0.00    +0.008 A 
ATOM     19  C   UNL     1      -2.420  -0.144  -3.227  0.00  0.00    +0.045 A 
ATOM     20  S   UNL     1      -1.048  -0.789  -2.285  0.00  0.00    -0.100 S 
ENDBRANCH  15  16
ENDBRANCH  13  15
ENDBRANCH  10  11
ENDBRANCH   6  10
ENDBRANCH   5   6
ENDBRANCH   1   5
BRANCH   3  21
ATOM     21  C   UNL     1       9.872  -2.322  -4.981  0.00  0.00    +0.109 C 
BRANCH  21  22
ATOM     22  C   UNL     1      10.438  -2.723  -6.344  0.00  0.00    +0.054 C 
BRANCH  22  23
ATOM     23  C   UNL     1      11.732  -3.470  -6.151  0.00  0.00    -0.046 A 
ATOM     24  C   UNL     1      12.931  -2.782  -6.119  0.00  0.00    +0.005 A 
ATOM     25  C   UNL     1      14.117  -3.467  -5.937  0.00  0.00    +0.029 A 
ATOM     26  C   UNL     1      14.106  -4.842  -5.796  0.00  0.00    +0.105 A 
ATOM     27  C   UNL     1      12.909  -5.531  -5.832  0.00  0.00    +0.029 A 
ATOM     28  C   UNL     1      11.722  -4.846  -6.010  0.00  0.00    +0.005 A 
BRANCH  26  29
ATOM     29  S   UNL     1      15.619  -5.716  -5.568  0.00  0.00    +0.056 S 
ATOM     30  O   UNL     1      16.547  -4.787  -5.025  0.00  0.00    -0.153 OA
ATOM     31  O   UNL     1      15.290  -6.935  -4.915  0.00  0.00    -0.153 OA
BRANCH  29  32
ATOM     32  N   UNL     1      16.181  -6.123  -7.072  0.00  0.00    -0.204 NA
ATOM     33  H   UNL     1      17.135  -6.202  -7.228  0.00  0.00    +0.144 HD
ATOM     34  H   UNL     1      15.556  -6.281  -7.797  0.00  0.00    +0.144 HD
ENDBRANCH  29  32
ENDBRANCH  26  29
ENDBRANCH  22  23
ENDBRANCH  21  22
ENDBRANCH   3  21
TORSDOF 12
