REMARK  Name = ZINC30514132
REMARK  8 active torsions:
REMARK  status: ('A' for Active; 'I' for Inactive)
REMARK    1  A    between atoms: C_1  and  C_2
REMARK    2  A    between atoms: C_2  and  C_4
REMARK    3  A    between atoms: C_2  and  N_15
REMARK    4  A    between atoms: N_9  and  C_10
REMARK    5  A    between atoms: C_10  and  C_11
REMARK    6  A    between atoms: N_15  and  C_16
REMARK    7  A    between atoms: C_16  and  C_17
REMARK    8  A    between atoms: C_17  and  N_22
REMARK                            x       y       z     vdW  Elec       q    Type
REMARK                         _______ _______ _______ _____ _____    ______ ____
ROOT
ATOM      1  C   UNL     1       0.121  -0.505  -1.439  0.00  0.00    +0.034 C 
ATOM      2  C   UNL     1       0.002  -0.004   0.002  0.00  0.00    +0.138 C 
ENDROOT
BRANCH   2   3
ATOM      3  C   UNL     1      -1.273  -0.527   0.612  0.00  0.00    +0.237 C 
ATOM      4  O   UNL     1      -2.115   0.247   1.014  0.00  0.00    -0.274 OA
ATOM      5  N   UNL     1      -1.477  -1.856   0.711  0.00  0.00    -0.239 N 
ATOM      6  C   UNL     1      -2.617  -2.323   1.256  0.00  0.00    +0.306 C 
ATOM      7  O   UNL     1      -3.462  -1.547   1.659  0.00  0.00    -0.252 OA
ATOM      8  N   UNL     1      -2.822  -3.652   1.355  0.00  0.00    -0.291 N 
ATOM      9  H   UNL     1      -0.713  -2.558   0.346  0.00  0.00    +0.159 HD
ATOM     10  H   UNL     1      -2.058  -4.354   0.991  0.00  0.00    +0.151 HD
BRANCH   8  11
ATOM     11  C   UNL     1      -4.061  -4.160   1.948  0.00  0.00    +0.219 C 
BRANCH  11  12
ATOM     12  C   UNL     1      -4.040  -5.690   1.940  0.00  0.00    +0.405 C 
ATOM     13  F   UNL     1      -2.946  -6.146   2.683  0.00  0.00    -0.169 F 
ATOM     14  F   UNL     1      -5.224  -6.176   2.506  0.00  0.00    -0.169 F 
ATOM     15  F   UNL     1      -3.932  -6.148   0.622  0.00  0.00    -0.169 F 
ENDBRANCH  11  12
ENDBRANCH   8  11
ENDBRANCH   2   3
BRANCH   2  16
ATOM     16  N   UNL     1      -0.018   1.465   0.010  0.00  0.00    -0.307 NA
ATOM     17  H   UNL     1      -0.550   1.829  -0.881  0.00  0.00    +0.123 HD
BRANCH  16  18
ATOM     18  C   UNL     1       1.346   2.010   0.000  0.00  0.00    +0.069 C 
BRANCH  18  19
ATOM     19  C   UNL     1       1.285   3.539   0.009  0.00  0.00    -0.053 C 
ATOM     20  C   UNL     1       0.574   4.046  -1.263  0.00  0.00    -0.011 C 
ATOM     21  C   UNL     1       1.345   5.336  -1.640  0.00  0.00    -0.001 C 
ATOM     22  C   UNL     1       2.812   4.966  -1.307  0.00  0.00    -0.001 C 
ATOM     23  C   UNL     1       2.708   4.124  -0.019  0.00  0.00    -0.011 C 
BRANCH  19  24
ATOM     24  N   UNL     1       0.572   4.006   1.205  0.00  0.00    +0.385 N 
ATOM     25  C   UNL     1       1.331   3.703   2.421  0.00  0.00    -0.067 C 
ATOM     26  C   UNL     1       0.829   4.574   3.578  0.00  0.00    +0.050 C 
ATOM     27  S   UNL     1      -0.923   4.182   3.872  0.00  0.00    -0.164 S 
ATOM     28  C   UNL     1      -1.647   4.308   2.207  0.00  0.00    +0.050 C 
ATOM     29  C   UNL     1      -0.792   3.474   1.245  0.00  0.00    -0.067 C 
ATOM     30  H   UNL     1       0.481   5.101   1.156  0.00  0.00    -0.081 HD
ENDBRANCH  19  24
ENDBRANCH  18  19
ENDBRANCH  16  18
ENDBRANCH   2  16
TORSDOF 7
