REMARK  Name = ZINC43092898
REMARK  12 active torsions:
REMARK  status: ('A' for Active; 'I' for Inactive)
REMARK    1  A    between atoms: C_1  and  C_2
REMARK    2  A    between atoms: C_2  and  C_3
REMARK    3  A    between atoms: C_3  and  C_4
REMARK    4  A    between atoms: C_4  and  N_5
REMARK    5  A    between atoms: N_5  and  C_6
REMARK    6  A    between atoms: N_5  and  C_9
REMARK    7  A    between atoms: C_6  and  C_7
REMARK    8  A    between atoms: C_7  and  O_8
REMARK    9  A    between atoms: C_9  and  C_11
REMARK   10  A    between atoms: C_9  and  C_18
REMARK   11  A    between atoms: C_18  and  C_20
REMARK   12  A    between atoms: C_18  and  N_21
REMARK                            x       y       z     vdW  Elec       q    Type
REMARK                         _______ _______ _______ _____ _____    ______ ____
ROOT
ATOM      1  C   UNL     1       1.327  -3.991  -2.984  0.00  0.00    +0.073 C 
ENDROOT
BRANCH   1   2
ATOM      2  C   UNL     1       1.979  -4.055  -4.341  0.00  0.00    -0.018 A 
ATOM      3  C   UNL     1       3.012  -3.191  -4.653  0.00  0.00    +0.006 A 
ATOM      4  C   UNL     1       3.611  -3.250  -5.897  0.00  0.00    +0.000 A 
ATOM      5  C   UNL     1       3.178  -4.174  -6.830  0.00  0.00    +0.001 A 
ATOM      6  C   UNL     1       2.145  -5.038  -6.519  0.00  0.00    +0.015 A 
ATOM      7  C   UNL     1       1.549  -4.983  -5.272  0.00  0.00    +0.022 A 
ATOM      8 BR   UNL     1       0.141  -6.170  -4.844  0.00  0.00    -0.050 Br
ENDBRANCH   1   2
BRANCH   1   9
ATOM      9  C   UNL     1       2.198  -4.726  -1.964  0.00  0.00    -0.056 C 
ATOM     10  C   UNL     1       1.508  -4.710  -0.598  0.00  0.00    -0.012 C 
BRANCH   9  11
ATOM     11  N   UNL     1       2.393  -6.116  -2.397  0.00  0.00    +0.381 N 
ATOM     12  H   UNL     1       2.848  -6.127  -3.298  0.00  0.00    -0.090 HD
ATOM     13  H   UNL     1       2.968  -6.601  -1.724  0.00  0.00    -0.090 HD
ATOM     14  H   UNL     1       1.497  -6.575  -2.467  0.00  0.00    -0.090 HD
ENDBRANCH   9  11
ENDBRANCH   1   9
BRANCH   1  15
ATOM     15  N   UNL     1       1.177  -2.587  -2.579  0.00  0.00    -0.295 NA
BRANCH  15  16
ATOM     16  C   UNL     1       2.365  -2.118  -1.854  0.00  0.00    +0.085 C 
BRANCH  16  17
ATOM     17  C   UNL     1       2.038  -0.812  -1.128  0.00  0.00    +0.015 C 
BRANCH  17  19
ATOM     18  C   UNL     1       2.949   0.982   0.353  0.00  0.00    +0.004 C 
ATOM     19  C   UNL     1       3.276  -0.324  -0.373  0.00  0.00    -0.002 C 
ENDBRANCH  17  19
ENDBRANCH  16  17
ENDBRANCH  15  16
BRANCH  15  20
ATOM     20  C   UNL     1       0.896  -1.731  -3.739  0.00  0.00    +0.112 C 
BRANCH  20  21
ATOM     21  C   UNL     1      -0.525  -2.000  -4.239  0.00  0.00    +0.171 C 
BRANCH  21  22
ATOM     22  O   UNL     1      -1.465  -1.589  -3.245  0.00  0.00    -0.394 OA
ATOM     23  H   UNL     1      -2.389  -1.730  -3.494  0.00  0.00    +0.209 HD
ENDBRANCH  21  22
ENDBRANCH  20  21
ENDBRANCH  15  20
ENDBRANCH   1  15
TORSDOF 10
