REMARK  Name = ZINC43553888
REMARK  13 active torsions:
REMARK  status: ('A' for Active; 'I' for Inactive)
REMARK    1  A    between atoms: C_1  and  C_2
REMARK    2  A    between atoms: C_2  and  C_3
REMARK    3  A    between atoms: C_3  and  N_4
REMARK    4  A    between atoms: C_5  and  O_7
REMARK    5  A    between atoms: O_7  and  C_8
REMARK    6  A    between atoms: C_12  and  C_36
REMARK    7  A    between atoms: C_15  and  C_16
REMARK    8  A    between atoms: C_15  and  C_17
REMARK    9  A    between atoms: C_17  and  O_18
REMARK   10  A    between atoms: C_21  and  O_35
REMARK   11  A    between atoms: C_23  and  C_25
REMARK   12  A    between atoms: C_25  and  C_26
REMARK   13  A    between atoms: C_31  and  O_34
REMARK                            x       y       z     vdW  Elec       q    Type
REMARK                         _______ _______ _______ _____ _____    ______ ____
ROOT
ATOM      1  C   UNL     1       2.994  -4.338   2.950  0.00  0.00    +0.186 C 
ATOM      2  C   UNL     1       4.361  -4.892   2.571  0.00  0.00    +0.046 C 
ATOM      3  C   UNL     1       4.207  -5.932   1.460  0.00  0.00    +0.011 C 
ATOM      4  C   UNL     1       3.366  -7.103   1.974  0.00  0.00    -0.023 C 
ATOM      5  C   UNL     1       2.007  -6.611   2.439  0.00  0.00    +0.007 C 
ATOM      6  C   UNL     1       2.030  -5.436   3.397  0.00  0.00    +0.031 C 
ATOM      7  C   UNL     1       2.345  -5.851   4.833  0.00  0.00    +0.017 C 
ATOM      8  C   UNL     1       1.185  -7.779   2.985  0.00  0.00    +0.007 C 
ATOM      9  C   UNL     1       0.961  -8.785   1.849  0.00  0.00    +0.032 C 
ATOM     10  C   UNL     1       2.300  -9.292   1.323  0.00  0.00    +0.119 C 
ATOM     11  C   UNL     1       3.194  -8.144   0.862  0.00  0.00    +0.032 C 
ATOM     12  C   UNL     1       4.143  -7.787   3.110  0.00  0.00    +0.012 C 
ENDROOT
BRANCH  10  13
ATOM     13  O   UNL     1       2.060 -10.167   0.210  0.00  0.00    -0.391 OA
ATOM     14  H   UNL     1       1.521 -10.941   0.427  0.00  0.00    +0.210 HD
ENDBRANCH  10  13
BRANCH   1  15
ATOM     15  O   UNL     1       2.432  -3.643   1.830  0.00  0.00    -0.446 OA
BRANCH  15  17
ATOM     16  N   UNL     1       2.234  -1.624   0.678  0.00  0.00    -0.281 N 
ATOM     17  C   UNL     1       2.731  -2.336   1.710  0.00  0.00    +0.401 C 
ATOM     18  O   UNL     1       3.448  -1.798   2.530  0.00  0.00    -0.226 OA
ATOM     19  H   UNL     1       1.662  -2.053   0.024  0.00  0.00    +0.152 HD
BRANCH  16  20
ATOM     20  C   UNL     1       2.559  -0.201   0.547  0.00  0.00    +0.107 C 
BRANCH  20  22
ATOM     21  C   UNL     1       2.214   1.851  -0.836  0.00  0.00    +0.005 C 
ATOM     22  C   UNL     1       1.875   0.365  -0.698  0.00  0.00    +0.015 C 
ENDBRANCH  20  22
ENDBRANCH  16  20
ENDBRANCH  15  17
ENDBRANCH   1  15
BRANCH   6  23
ATOM     23  C   UNL     1       0.617  -4.802   3.407  0.00  0.00    +0.166 C 
BRANCH  23  24
ATOM     24  O   UNL     1       0.596  -3.701   4.318  0.00  0.00    -0.394 OA
ATOM     25  H   UNL     1      -0.261  -3.255   4.376  0.00  0.00    +0.209 HD
ENDBRANCH  23  24
ENDBRANCH   6  23
BRANCH  11  26
ATOM     26  C   UNL     1       2.630  -7.522  -0.411  0.00  0.00    +0.102 C 
BRANCH  26  27
ATOM     27  C   UNL     1       2.811  -8.480  -1.561  0.00  0.00    +0.216 C 
ATOM     28  O   UNL     1       3.475  -9.484  -1.415  0.00  0.00    -0.276 OA
ATOM     29  N   UNL     1       2.235  -8.220  -2.752  0.00  0.00    -0.299 N 
ATOM     30  C   UNL     1       1.411  -7.040  -3.068  0.00  0.00    +0.110 C 
ATOM     31  C   UNL     1       1.520  -6.880  -4.605  0.00  0.00    +0.052 C 
ATOM     32  C   UNL     1       1.536  -8.359  -5.072  0.00  0.00    +0.133 C 
ATOM     33  C   UNL     1       2.329  -9.065  -3.951  0.00  0.00    +0.139 C 
BRANCH  32  34
ATOM     34  O   UNL     1       2.209  -8.487  -6.326  0.00  0.00    -0.390 OA
ATOM     35  H   UNL     1       1.793  -7.995  -7.047  0.00  0.00    +0.210 HD
ENDBRANCH  32  34
ENDBRANCH  26  27
ENDBRANCH  11  26
TORSDOF 10
