REMARK  Name = ZINC42562409
REMARK  11 active torsions:
REMARK  status: ('A' for Active; 'I' for Inactive)
REMARK    1  A    between atoms: C_1  and  C_2
REMARK    2  A    between atoms: C_2  and  C_3
REMARK    3  A    between atoms: C_2  and  C_4
REMARK    4  A    between atoms: C_4  and  N_5
REMARK    5  A    between atoms: N_5  and  C_6
REMARK    6  A    between atoms: N_5  and  C_18
REMARK    7  A    between atoms: C_6  and  C_7
REMARK    8  A    between atoms: N_9  and  C_10
REMARK    9  A    between atoms: C_13  and  N_17
REMARK   10  A    between atoms: C_18  and  C_19
REMARK   11  A    between atoms: C_18  and  C_20
REMARK                            x       y       z     vdW  Elec       q    Type
REMARK                         _______ _______ _______ _____ _____    ______ ____
ROOT
ATOM      1  C   UNL     1      -2.110  -3.684  -2.373  0.00  0.00    +0.201 C 
ATOM      2  O   UNL     1      -1.010  -4.118  -2.643  0.00  0.00    -0.278 OA
ATOM      3  N   UNL     1      -3.171  -4.017  -3.133  0.00  0.00    -0.286 N 
ATOM      4  H   UNL     1      -4.038  -3.618  -2.957  0.00  0.00    +0.155 HD
ENDROOT
BRANCH   3   5
ATOM      5  C   UNL     1      -3.023  -4.939  -4.179  0.00  0.00    +0.048 A 
ATOM      6  C   UNL     1      -1.802  -5.063  -4.827  0.00  0.00    +0.026 A 
ATOM      7  C   UNL     1      -1.655  -5.971  -5.857  0.00  0.00    +0.024 A 
ATOM      8  C   UNL     1      -2.730  -6.761  -6.244  0.00  0.00    +0.026 A 
ATOM      9  C   UNL     1      -3.952  -6.638  -5.596  0.00  0.00    +0.039 A 
ATOM     10  C   UNL     1      -4.097  -5.733  -4.562  0.00  0.00    +0.041 A 
ATOM     11 BR   UNL     1      -5.758  -5.570  -3.673  0.00  0.00    -0.048 Br
BRANCH   8  12
ATOM     12  N   UNL     1      -2.582  -7.681  -7.288  0.00  0.00    -0.358 N 
ATOM     13  H   UNL     1      -1.728  -7.767  -7.741  0.00  0.00    +0.142 HD
ATOM     14  H   UNL     1      -3.332  -8.233  -7.558  0.00  0.00    +0.142 HD
ENDBRANCH   8  12
ENDBRANCH   3   5
BRANCH   1  15
ATOM     15  C   UNL     1      -2.289  -2.773  -1.186  0.00  0.00    +0.019 C 
BRANCH  15  16
ATOM     16  N   UNL     1      -1.002  -2.606  -0.497  0.00  0.00    +0.387 N 
ATOM     17  H   UNL     1      -0.300  -2.315  -1.161  0.00  0.00    -0.081 HD
BRANCH  16  18
ATOM     18  C   UNL     1      -0.602  -3.883   0.109  0.00  0.00    -0.074 C 
ATOM     19  C   UNL     1       0.798  -3.747   0.709  0.00  0.00    -0.014 C 
ATOM     20  C   UNL     1      -1.595  -4.258   1.211  0.00  0.00    -0.014 C 
ENDBRANCH  16  18
BRANCH  16  21
ATOM     21  C   UNL     1      -1.136  -1.587   0.552  0.00  0.00    -0.075 C 
BRANCH  21  23
ATOM     22  C   UNL     1      -1.721   0.799   1.004  0.00  0.00    +0.005 C 
ATOM     23  C   UNL     1      -1.432  -0.230  -0.090  0.00  0.00    -0.034 C 
ATOM     24  C   UNL     1      -0.220   0.222  -0.907  0.00  0.00    +0.005 C 
ENDBRANCH  21  23
ENDBRANCH  16  21
ENDBRANCH  15  16
ENDBRANCH   1  15
TORSDOF 7
