REMARK  Name = ZINC20188974
REMARK  8 active torsions:
REMARK  status: ('A' for Active; 'I' for Inactive)
REMARK    1  A    between atoms: C_1  and  C_2
REMARK    2  A    between atoms: C_2  and  C_3
REMARK    3  A    between atoms: C_2  and  C_4
REMARK    4  A    between atoms: C_9  and  N_10
REMARK    5  A    between atoms: N_10  and  S_11
REMARK    6  A    between atoms: S_11  and  C_14
REMARK    7  A    between atoms: C_16  and  C_21
REMARK    8  A    between atoms: C_21  and  N_22
REMARK                            x       y       z     vdW  Elec       q    Type
REMARK                         _______ _______ _______ _____ _____    ______ ____
ROOT
ATOM      1  S   UNL     1      -1.604  -1.028   0.078  0.00  0.00    +0.075 S 
ATOM      2  O   UNL     1      -1.446  -2.085   1.014  0.00  0.00    -0.150 OA
ATOM      3  O   UNL     1      -2.711  -0.137   0.113  0.00  0.00    -0.150 OA
ENDROOT
BRANCH   1   4
ATOM      4  C   UNL     1      -0.154  -0.034   0.192  0.00  0.00    +0.144 A 
ATOM      5  C   UNL     1      -0.264   1.339   0.314  0.00  0.00    +0.033 A 
ATOM      6  C   UNL     1       0.873   2.119   0.404  0.00  0.00    -0.063 A 
ATOM      7  C   UNL     1       2.123   1.528   0.371  0.00  0.00    +0.004 A 
ATOM      8  C   UNL     1       2.236   0.156   0.249  0.00  0.00    +0.040 A 
ATOM      9  C   UNL     1       1.097  -0.627   0.159  0.00  0.00    +0.150 A 
ATOM     10  F   UNL     1       1.206  -1.968   0.040  0.00  0.00    -0.203 F 
BRANCH   6  11
ATOM     11  C   UNL     1       0.752   3.615   0.537  0.00  0.00    -0.051 C 
BRANCH  11  12
ATOM     12  N   UNL     1       0.689   3.977   1.960  0.00  0.00    +0.381 N 
ATOM     13  H   UNL     1       0.600   5.069   2.057  0.00  0.00    -0.090 HD
ATOM     14  H   UNL     1       1.605   3.637   2.465  0.00  0.00    -0.090 HD
ATOM     15  H   UNL     1      -0.186   3.495   2.422  0.00  0.00    -0.090 HD
ENDBRANCH  11  12
ENDBRANCH   6  11
ENDBRANCH   1   4
BRANCH   1  16
ATOM     16  N   UNL     1      -1.604  -1.723  -1.425  0.00  0.00    -0.216 N 
ATOM     17  H   UNL     1      -2.380  -1.452  -2.156  0.00  0.00    +0.174 HD
BRANCH  16  23
ATOM     18  C   UNL     1       0.279  -2.376  -2.786  0.00  0.00    -0.022 A 
ATOM     19  C   UNL     1       1.252  -3.299  -3.118  0.00  0.00    +0.006 A 
ATOM     20  C   UNL     1       1.332  -4.498  -2.434  0.00  0.00    +0.000 A 
ATOM     21  C   UNL     1       0.439  -4.778  -1.416  0.00  0.00    +0.002 A 
ATOM     22  C   UNL     1      -0.533  -3.858  -1.076  0.00  0.00    +0.025 A 
ATOM     23  C   UNL     1      -0.619  -2.654  -1.764  0.00  0.00    +0.051 A 
BRANCH  18  25
ATOM     24  C   UNL     1       1.505  -0.299  -3.363  0.00  0.00    +0.012 C 
ATOM     25  C   UNL     1       0.194  -1.069  -3.531  0.00  0.00    +0.015 C 
ATOM     26  C   UNL     1      -0.051  -1.344  -5.016  0.00  0.00    +0.012 C 
ENDBRANCH  18  25
ENDBRANCH  16  23
ENDBRANCH   1  16
TORSDOF 6
