REMARK  Name = ZINC15108683
REMARK  9 active torsions:
REMARK  status: ('A' for Active; 'I' for Inactive)
REMARK    1  A    between atoms: C_1  and  C_2
REMARK    2  A    between atoms: C_3  and  N_9
REMARK    3  A    between atoms: C_10  and  C_12
REMARK    4  A    between atoms: C_12  and  C_14
REMARK    5  A    between atoms: C_12  and  N_15
REMARK    6  A    between atoms: N_15  and  C_16
REMARK    7  A    between atoms: N_15  and  C_17
REMARK    8  A    between atoms: C_17  and  C_18
REMARK    9  A    between atoms: N_20  and  C_21
REMARK                            x       y       z     vdW  Elec       q    Type
REMARK                         _______ _______ _______ _____ _____    ______ ____
ROOT
ATOM      1  N   UNL     1       0.186  -0.821  -6.009  0.00  0.00    +0.391 N 
ATOM      2  C   UNL     1       0.289   0.079  -7.165  0.00  0.00    -0.094 C 
ATOM      3  H   UNL     1      -0.638  -1.396  -6.102  0.00  0.00    -0.080 HD
ENDROOT
BRANCH   1   4
ATOM      4  C   UNL     1       0.091  -0.027  -4.776  0.00  0.00    +0.017 C 
ATOM      5  C   UNL     1      -1.047   0.986  -4.909  0.00  0.00    -0.004 C 
BRANCH   4   7
ATOM      6  N   UNL     1      -0.338  -0.427  -2.373  0.00  0.00    -0.287 N 
ATOM      7  C   UNL     1      -0.182  -0.941  -3.610  0.00  0.00    +0.203 C 
ATOM      8  O   UNL     1      -0.262  -2.138  -3.783  0.00  0.00    -0.277 OA
ATOM      9  H   UNL     1      -0.348   0.534  -2.246  0.00  0.00    +0.155 HD
BRANCH   6  12
ATOM     10  C   UNL     1      -1.672   0.569  -0.066  0.00  0.00    +0.047 C 
ATOM     11  C   UNL     1      -1.129  -0.835  -0.128  0.00  0.00    -0.011 A 
ATOM     12  C   UNL     1      -0.484  -1.281  -1.274  0.00  0.00    +0.038 A 
ATOM     13  C   UNL     1       0.016  -2.575  -1.328  0.00  0.00    +0.023 A 
ATOM     14  C   UNL     1      -0.130  -3.416  -0.242  0.00  0.00    +0.003 A 
ATOM     15  C   UNL     1      -0.773  -2.971   0.898  0.00  0.00    +0.020 A 
ATOM     16  C   UNL     1      -1.267  -1.679   0.958  0.00  0.00    +0.046 A 
ATOM     17 CL   UNL     1      -2.066  -1.121   2.394  0.00  0.00    -0.083 Cl
ENDBRANCH   6  12
ENDBRANCH   4   7
ENDBRANCH   1   4
BRANCH   1  18
ATOM     18  C   UNL     1       1.377  -1.679  -5.948  0.00  0.00    +0.020 C 
BRANCH  18  19
ATOM     19  C   UNL     1       1.374  -2.626  -7.120  0.00  0.00    +0.201 C 
ATOM     20  O   UNL     1       0.469  -2.590  -7.927  0.00  0.00    -0.278 OA
ATOM     21  N   UNL     1       2.378  -3.513  -7.273  0.00  0.00    -0.286 N 
ATOM     22  H   UNL     1       3.073  -3.579  -6.599  0.00  0.00    +0.155 HD
BRANCH  21  23
ATOM     23  C   UNL     1       2.417  -4.339  -8.402  0.00  0.00    +0.052 A 
ATOM     24  C   UNL     1       1.242  -4.658  -9.071  0.00  0.00    +0.025 A 
ATOM     25  C   UNL     1       1.284  -5.472 -10.186  0.00  0.00    +0.002 A 
ATOM     26  C   UNL     1       2.493  -5.971 -10.636  0.00  0.00    +0.002 A 
ATOM     27  C   UNL     1       3.664  -5.656  -9.972  0.00  0.00    +0.022 A 
ATOM     28  C   UNL     1       3.631  -4.837  -8.859  0.00  0.00    +0.062 A 
ATOM     29 CL   UNL     1       5.102  -4.436  -8.030  0.00  0.00    -0.082 Cl
ENDBRANCH  21  23
ENDBRANCH  18  19
ENDBRANCH   1  18
TORSDOF 6
