REMARK  Name = ZINC39361853
REMARK  11 active torsions:
REMARK  status: ('A' for Active; 'I' for Inactive)
REMARK    1  A    between atoms: C_1  and  C_2
REMARK    2  A    between atoms: C_5  and  C_36
REMARK    3  A    between atoms: C_6  and  N_8
REMARK    4  A    between atoms: C_9  and  C_27
REMARK    5  A    between atoms: C_13  and  S_14
REMARK    6  A    between atoms: S_14  and  C_15
REMARK    7  A    between atoms: C_15  and  C_16
REMARK    8  A    between atoms: N_18  and  C_19
REMARK    9  A    between atoms: C_23  and  C_26
REMARK   10  A    between atoms: C_24  and  C_25
REMARK   11  A    between atoms: C_27  and  C_28
REMARK                            x       y       z     vdW  Elec       q    Type
REMARK                         _______ _______ _______ _____ _____    ______ ____
ROOT
ATOM      1  N   UNL     1       0.051  -2.767   2.410  0.00  0.00    -0.258 N 
ATOM      2  C   UNL     1       1.240  -3.182   3.173  0.00  0.00    +0.187 C 
ATOM      3  N   UNL     1       0.684  -3.879   4.345  0.00  0.00    -0.246 N 
ATOM      4  N   UNL     1      -0.709  -3.830   4.203  0.00  0.00    -0.162 NA
ATOM      5  C   UNL     1      -1.052  -3.205   3.128  0.00  0.00    +0.180 C 
ATOM      6  H   UNL     1       1.181  -4.289   5.070  0.00  0.00    +0.170 HD
ENDROOT
BRANCH   1  12
ATOM      7  C   UNL     1      -0.035   1.524   0.014  0.00  0.00    +0.044 C 
ATOM      8  C   UNL     1      -0.006   0.018   0.011  0.00  0.00    -0.049 A 
ATOM      9  C   UNL     1       0.007  -0.671  -1.188  0.00  0.00    +0.004 A 
ATOM     10  C   UNL     1       0.034  -2.053  -1.196  0.00  0.00    +0.005 A 
ATOM     11  C   UNL     1       0.049  -2.751  -0.004  0.00  0.00    -0.029 A 
ATOM     12  C   UNL     1       0.037  -2.063   1.203  0.00  0.00    +0.041 A 
ATOM     13  C   UNL     1       0.015  -0.674   1.206  0.00  0.00    +0.027 A 
ATOM     14  C   UNL     1       0.078  -4.258  -0.013  0.00  0.00    +0.045 C 
ENDBRANCH   1  12
BRANCH   5  15
ATOM     15  S   UNL     1      -2.722  -2.944   2.629  0.00  0.00    -0.079 S 
BRANCH  15  16
ATOM     16  C   UNL     1      -3.700  -3.726   3.941  0.00  0.00    +0.173 C 
BRANCH  16  17
ATOM     17  C   UNL     1      -5.167  -3.573   3.634  0.00  0.00    +0.227 C 
ATOM     18  O   UNL     1      -5.519  -2.993   2.628  0.00  0.00    -0.275 OA
ATOM     19  N   UNL     1      -6.089  -4.081   4.476  0.00  0.00    -0.285 N 
ATOM     20  H   UNL     1      -5.809  -4.613   5.237  0.00  0.00    +0.155 HD
BRANCH  19  21
ATOM     21  C   UNL     1      -7.449  -3.840   4.253  0.00  0.00    +0.037 A 
ATOM     22  C   UNL     1      -7.848  -2.719   3.536  0.00  0.00    +0.023 A 
ATOM     23  C   UNL     1      -9.191  -2.484   3.317  0.00  0.00    +0.002 A 
ATOM     24  C   UNL     1     -10.138  -3.362   3.811  0.00  0.00    +0.004 A 
ATOM     25  C   UNL     1      -9.744  -4.479   4.526  0.00  0.00    -0.046 A 
ATOM     26  C   UNL     1      -8.402  -4.723   4.742  0.00  0.00    -0.026 A 
ATOM     27  C   UNL     1      -7.972  -5.944   5.514  0.00  0.00    +0.046 C 
ATOM     28  C   UNL     1     -10.779  -5.433   5.063  0.00  0.00    +0.044 C 
ENDBRANCH  19  21
ENDBRANCH  16  17
ENDBRANCH  15  16
ENDBRANCH   5  15
BRANCH   2  29
ATOM     29  C   UNL     1       2.107  -4.131   2.342  0.00  0.00    +0.097 C 
BRANCH  29  30
ATOM     30  C   UNL     1       3.315  -4.540   3.144  0.00  0.00    +0.029 A 
ATOM     31  N   UNL     1       4.428  -3.745   3.164  0.00  0.00    -0.311 N 
ATOM     32  C   UNL     1       5.512  -4.102   3.877  0.00  0.00    +0.327 A 
ATOM     33  O   UNL     1       6.491  -3.380   3.881  0.00  0.00    -0.247 OA
ATOM     34  N   UNL     1       5.528  -5.245   4.587  0.00  0.00    -0.275 N 
ATOM     35  C   UNL     1       4.450  -6.056   4.594  0.00  0.00    +0.254 A 
ATOM     36  O   UNL     1       4.464  -7.091   5.236  0.00  0.00    -0.268 OA
ATOM     37  C   UNL     1       3.302  -5.691   3.851  0.00  0.00    +0.091 A 
ATOM     38  H   UNL     1       6.317  -5.487   5.096  0.00  0.00    +0.173 HD
ATOM     39  H   UNL     1       4.437  -2.917   2.659  0.00  0.00    +0.170 HD
ENDBRANCH  29  30
ENDBRANCH   2  29
TORSDOF 7
