REMARK  Name = ZINC12281127
REMARK  11 active torsions:
REMARK  status: ('A' for Active; 'I' for Inactive)
REMARK    1  A    between atoms: C_6  and  C_7
REMARK    2  A    between atoms: C_7  and  C_8
REMARK    3  A    between atoms: N_10  and  C_11
REMARK    4  A    between atoms: C_11  and  C_12
REMARK    5  A    between atoms: C_12  and  C_13
REMARK    6  A    between atoms: C_22  and  C_23
REMARK    7  A    between atoms: C_22  and  N_64
REMARK    8  A    between atoms: C_26  and  O_29
REMARK    9  A    between atoms: O_29  and  C_30
REMARK   10  A    between atoms: C_30  and  C_31
REMARK   11  A    between atoms: C_31  and  O_32
REMARK                            x       y       z     vdW  Elec       q    Type
REMARK                         _______ _______ _______ _____ _____    ______ ____
ROOT
ATOM      1  C   UNL     1       0.002  -0.004   0.002  0.00  0.00    +0.135 A 
ATOM      2  N   UNL     1      -0.016   1.303   0.009  0.00  0.00    -0.134 NA
ATOM      3  N   UNL     1       1.191   1.754   0.000  0.00  0.00    -0.134 NA
ATOM      4  C   UNL     1       2.027   0.758  -0.007  0.00  0.00    +0.132 A 
ATOM      5  N   UNL     1       1.297  -0.384  -0.021  0.00  0.00    -0.317 N 
ATOM      6  C   UNL     1       1.830  -1.746  -0.068  0.00  0.00    +0.106 C 
ATOM      7  C   UNL     1       3.219  -1.765   0.578  0.00  0.00    -0.056 C 
ATOM      8  C   UNL     1       4.080  -0.158  -1.034  0.00  0.00    -0.071 C 
ATOM      9  C   UNL     1       3.533   0.818   0.013  0.00  0.00    +0.058 C 
ATOM     10  N   UNL     1       4.244  -1.512  -0.460  0.00  0.00    +0.384 N 
ATOM     11  H   UNL     1       4.133  -2.204  -1.210  0.00  0.00    -0.081 HD
ENDROOT
BRANCH   1  12
ATOM     12  C   UNL     1      -1.198  -0.915   0.015  0.00  0.00    +0.095 C 
BRANCH  12  13
ATOM     13  C   UNL     1      -1.627  -1.216  -1.422  0.00  0.00    +0.112 C 
BRANCH  13  16
ATOM     14  C   UNL     1      -3.348  -2.503  -2.570  0.00  0.00    +0.217 C 
ATOM     15  O   UNL     1      -2.881  -2.130  -3.626  0.00  0.00    -0.275 OA
ATOM     16  N   UNL     1      -2.793  -2.102  -1.409  0.00  0.00    -0.315 N 
ATOM     17  H   UNL     1      -3.166  -2.400  -0.565  0.00  0.00    +0.149 HD
BRANCH  14  18
ATOM     18  C   UNL     1      -4.548  -3.414  -2.557  0.00  0.00    +0.130 C 
BRANCH  18  24
ATOM     19  C   UNL     1      -5.892  -2.895  -4.603  0.00  0.00    +0.007 A 
ATOM     20  C   UNL     1      -6.276  -3.163  -5.904  0.00  0.00    +0.038 A 
ATOM     21  C   UNL     1      -5.745  -4.253  -6.571  0.00  0.00    +0.123 A 
ATOM     22  C   UNL     1      -4.826  -5.072  -5.937  0.00  0.00    +0.038 A 
ATOM     23  C   UNL     1      -4.439  -4.799  -4.638  0.00  0.00    +0.007 A 
ATOM     24  C   UNL     1      -4.970  -3.710  -3.973  0.00  0.00    -0.038 A 
ATOM     25  F   UNL     1      -6.124  -4.518  -7.841  0.00  0.00    -0.205 F 
ENDBRANCH  18  24
ENDBRANCH  14  18
ENDBRANCH  13  16
ENDBRANCH  12  13
ENDBRANCH   1  12
BRANCH  10  26
ATOM     26  C   UNL     1       5.592  -1.649   0.120  0.00  0.00    -0.043 C 
BRANCH  26  27
ATOM     27  C   UNL     1       6.604  -1.596  -0.995  0.00  0.00    -0.064 A 
ATOM     28  C   UNL     1       6.983  -2.759  -1.640  0.00  0.00    +0.005 A 
ATOM     29  C   UNL     1       7.907  -2.711  -2.666  0.00  0.00    +0.046 A 
ATOM     30  C   UNL     1       8.462  -1.497  -3.043  0.00  0.00    +0.121 A 
ATOM     31  C   UNL     1       8.084  -0.332  -2.390  0.00  0.00    +0.046 A 
ATOM     32  C   UNL     1       7.157  -0.384  -1.368  0.00  0.00    +0.005 A 
BRANCH  30  33
ATOM     33  O   UNL     1       9.375  -1.448  -4.048  0.00  0.00    -0.490 OA
BRANCH  33  34
ATOM     34  C   UNL     1       9.716  -2.686  -4.675  0.00  0.00    +0.256 C 
BRANCH  34  35
ATOM     35  C   UNL     1      10.749  -2.434  -5.774  0.00  0.00    +0.196 C 
BRANCH  35  36
ATOM     36  O   UNL     1      11.963  -1.960  -5.188  0.00  0.00    -0.392 OA
ATOM     37  H   UNL     1      12.665  -1.778  -5.828  0.00  0.00    +0.210 HD
ENDBRANCH  35  36
ENDBRANCH  34  35
ENDBRANCH  33  34
ENDBRANCH  30  33
ENDBRANCH  26  27
ENDBRANCH  10  26
TORSDOF 11
