REMARK  Name = ZINC35002441
REMARK  13 active torsions:
REMARK  status: ('A' for Active; 'I' for Inactive)
REMARK    1  A    between atoms: C_1  and  C_2
REMARK    2  A    between atoms: C_2  and  C_3
REMARK    3  A    between atoms: C_3  and  C_4
REMARK    4  A    between atoms: C_4  and  N_5
REMARK    5  A    between atoms: N_11  and  C_14
REMARK    6  A    between atoms: C_14  and  C_15
REMARK    7  A    between atoms: C_15  and  N_16
REMARK    8  A    between atoms: N_16  and  C_17
REMARK    9  A    between atoms: C_17  and  C_18
REMARK   10  A    between atoms: C_26  and  C_27
REMARK   11  A    between atoms: C_26  and  C_28
REMARK   12  A    between atoms: N_31  and  C_32
REMARK   13  A    between atoms: C_35  and  C_38
REMARK                            x       y       z     vdW  Elec       q    Type
REMARK                         _______ _______ _______ _____ _____    ______ ____
ROOT
ATOM      1  N   UNL     1       2.855  -7.166  -9.446  0.00  0.00    -0.283 N 
ATOM      2  C   UNL     1       1.680  -7.723  -9.801  0.00  0.00    +0.307 C 
ATOM      3  O   UNL     1       0.836  -7.951  -8.957  0.00  0.00    -0.252 OA
ATOM      4  N   UNL     1       1.442  -8.026 -11.092  0.00  0.00    -0.269 N 
ATOM      5  H   UNL     1       2.139  -7.907 -11.755  0.00  0.00    +0.156 HD
ENDROOT
BRANCH   4   6
ATOM      6  C   UNL     1       0.187  -8.513 -11.476  0.00  0.00    +0.035 A 
ATOM      7  C   UNL     1      -0.343  -8.172 -12.713  0.00  0.00    +0.023 A 
ATOM      8  C   UNL     1      -1.581  -8.655 -13.090  0.00  0.00    +0.005 A 
ATOM      9  C   UNL     1      -2.292  -9.477 -12.236  0.00  0.00    -0.050 A 
ATOM     10  C   UNL     1      -1.768  -9.819 -11.003  0.00  0.00    +0.005 A 
ATOM     11  C   UNL     1      -0.527  -9.344 -10.623  0.00  0.00    +0.023 A 
ATOM     12  C   UNL     1      -3.643 -10.002 -12.649  0.00  0.00    +0.044 C 
ENDBRANCH   4   6
BRANCH   1  13
ATOM     13  C   UNL     1       3.115  -6.836  -8.042  0.00  0.00    +0.091 C 
BRANCH  13  14
ATOM     14  C   UNL     1       2.645  -5.408  -7.758  0.00  0.00    -0.059 C 
BRANCH  14  21
ATOM     15  N   UNL     1       1.079  -4.684  -1.811  0.00  0.00    -0.299 N 
ATOM     16  C   UNL     1       1.574  -3.802  -2.702  0.00  0.00    +0.302 C 
ATOM     17  O   UNL     1       1.374  -2.612  -2.555  0.00  0.00    -0.253 OA
ATOM     18  N   UNL     1       2.292  -4.240  -3.756  0.00  0.00    -0.289 N 
ATOM     19  C   UNL     1       2.943  -3.292  -4.674  0.00  0.00    +0.091 C 
ATOM     20  C   UNL     1       2.565  -3.669  -6.110  0.00  0.00    -0.059 C 
ATOM     21  N   UNL     1       2.905  -5.077  -6.351  0.00  0.00    +0.383 N 
ATOM     22  C   UNL     1       2.091  -5.943  -5.488  0.00  0.00    -0.059 C 
ATOM     23  C   UNL     1       2.451  -5.679  -4.018  0.00  0.00    +0.091 C 
ATOM     24  H   UNL     1       1.177  -5.637  -1.966  0.00  0.00    +0.150 HD
ATOM     25  H   UNL     1       3.882  -5.225  -6.148  0.00  0.00    -0.082 HD
BRANCH  15  26
ATOM     26  C   UNL     1       0.394  -4.204  -0.609  0.00  0.00    +0.106 C 
BRANCH  26  27
ATOM     27  C   UNL     1      -0.067  -5.400   0.227  0.00  0.00    +0.018 C 
BRANCH  27  29
ATOM     28  C   UNL     1      -1.243  -6.094   2.319  0.00  0.00    +0.004 C 
ATOM     29  C   UNL     1      -0.782  -4.898   1.483  0.00  0.00    -0.002 C 
ENDBRANCH  27  29
ENDBRANCH  26  27
ENDBRANCH  15  26
ENDBRANCH  14  21
ENDBRANCH  13  14
ENDBRANCH   1  13
BRANCH   1  30
ATOM     30  C   UNL     1       3.873  -6.891 -10.463  0.00  0.00    +0.140 C 
BRANCH  30  31
ATOM     31  C   UNL     1       4.774  -8.090 -10.610  0.00  0.00    -0.053 C 
ATOM     32  C   UNL     1       4.559  -8.995 -11.537  0.00  0.00    -0.025 C 
ATOM     33  C   UNL     1       5.480 -10.186 -11.645  0.00  0.00    +0.031 C 
ATOM     34  C   UNL     1       6.614 -10.057 -10.619  0.00  0.00    -0.000 C 
ATOM     35  C   UNL     1       7.223  -8.645 -10.576  0.00  0.00    +0.012 C 
ATOM     36  C   UNL     1       5.969  -8.296  -9.695  0.00  0.00    +0.022 C 
ATOM     37  C   UNL     1       6.052  -9.761  -9.214  0.00  0.00    -0.025 C 
ATOM     38  C   UNL     1       4.691 -10.405  -8.943  0.00  0.00    +0.012 C 
ATOM     39  C   UNL     1       7.059  -9.984  -8.084  0.00  0.00    +0.012 C 
ENDBRANCH  30  31
ENDBRANCH   1  30
TORSDOF 9
