REMARK  Name = ZINC63386414
REMARK  5 active torsions:
REMARK  status: ('A' for Active; 'I' for Inactive)
REMARK    1  A    between atoms: C_6  and  C_11
REMARK    2  A    between atoms: N_13  and  C_14
REMARK    3  A    between atoms: C_14  and  C_15
REMARK    4  A    between atoms: C_15  and  N_16
REMARK    5  A    between atoms: C_17  and  C_19
REMARK                            x       y       z     vdW  Elec       q    Type
REMARK                         _______ _______ _______ _____ _____    ______ ____
ROOT
ATOM      1  C   UNL     1       3.809  -4.725  -2.700  0.00  0.00    +0.123 C 
ENDROOT
BRANCH   1   4
ATOM      2  C   UNL     1       3.631  -2.749  -1.285  0.00  0.00    +0.239 C 
ATOM      3  O   UNL     1       4.291  -2.141  -2.101  0.00  0.00    -0.273 OA
ATOM      4  N   UNL     1       3.335  -4.048  -1.491  0.00  0.00    -0.312 N 
ATOM      5  H   UNL     1       2.807  -4.534  -0.838  0.00  0.00    +0.149 HD
BRANCH   2  11
ATOM      6  C   UNL     1      -0.016   1.348   0.009  0.00  0.00    +0.001 A 
ATOM      7  C   UNL     1       1.166   2.101   0.002  0.00  0.00    +0.002 A 
ATOM      8  C   UNL     1       2.391   1.535  -0.013  0.00  0.00    +0.026 A 
ATOM      9  C   UNL     1       2.529   0.120  -0.022  0.00  0.00    +0.043 A 
ATOM     10  N   UNL     1       3.587  -0.654  -0.037  0.00  0.00    -0.370 N 
ATOM     11  C   UNL     1       3.143  -2.053  -0.041  0.00  0.00    +0.190 C 
ATOM     12  C   UNL     1       1.631  -2.008  -0.025  0.00  0.00    +0.016 C 
ATOM     13  C   UNL     1       1.295  -0.698  -0.014  0.00  0.00    -0.004 A 
ATOM     14  C   UNL     1       0.002  -0.004   0.002  0.00  0.00    +0.010 A 
ATOM     15  H   UNL     1       4.509  -0.353  -0.045  0.00  0.00    +0.161 HD
ENDBRANCH   2  11
ENDBRANCH   1   4
BRANCH   1  16
ATOM     16  C   UNL     1       3.338  -6.180  -2.688  0.00  0.00    +0.123 C 
BRANCH  16  17
ATOM     17  N   UNL     1       3.813  -6.857  -3.898  0.00  0.00    -0.306 N 
ATOM     18  C   UNL     1       3.517  -8.156  -4.103  0.00  0.00    +0.299 C 
ATOM     19  O   UNL     1       2.857  -8.764  -3.287  0.00  0.00    -0.265 OA
ATOM     20  H   UNL     1       4.341  -6.371  -4.550  0.00  0.00    +0.149 HD
BRANCH  18  21
ATOM     21  C   UNL     1       4.000  -8.846  -5.336  0.00  0.00    +0.305 C 
ATOM     22  O   UNL     1       4.660  -8.237  -6.153  0.00  0.00    -0.265 OA
ATOM     23  N   UNL     1       3.704 -10.144  -5.542  0.00  0.00    -0.257 N 
ATOM     24  C   UNL     1       4.153 -10.785  -6.687  0.00  0.00    +0.165 A 
ATOM     25  N   UNL     1       4.878 -10.293  -7.669  0.00  0.00    -0.233 NA
ATOM     26  C   UNL     1       5.228 -11.039  -8.700  0.00  0.00    +0.120 A 
ATOM     27  C   UNL     1       4.808 -12.329  -8.697  0.00  0.00    +0.068 A 
ATOM     28  S   UNL     1       3.910 -12.384  -7.155  0.00  0.00    -0.061 S 
ATOM     29  H   UNL     1       3.176 -10.630  -4.889  0.00  0.00    +0.157 HD
ENDBRANCH  18  21
ENDBRANCH  16  17
ENDBRANCH   1  16
TORSDOF 5
