REMARK  Name = ZINC61758682
REMARK  7 active torsions:
REMARK  status: ('A' for Active; 'I' for Inactive)
REMARK    1  A    between atoms: C_1  and  C_2
REMARK    2  A    between atoms: C_2  and  C_3
REMARK    3  A    between atoms: C_2  and  N_4
REMARK    4  A    between atoms: N_15  and  C_18
REMARK    5  A    between atoms: C_18  and  C_19
REMARK    6  A    between atoms: C_19  and  C_20
REMARK    7  A    between atoms: C_20  and  N_21
REMARK                            x       y       z     vdW  Elec       q    Type
REMARK                         _______ _______ _______ _____ _____    ______ ____
ROOT
ATOM      1  N   UNL     1       3.249  -0.651   2.936  0.00  0.00    -0.309 N 
ATOM      2  C   UNL     1       2.638  -0.029   1.888  0.00  0.00    +0.107 A 
ATOM      3  C   UNL     1       1.332  -0.241   1.622  0.00  0.00    +0.102 A 
ATOM      4  N   UNL     1       0.589  -1.060   2.365  0.00  0.00    -0.344 N 
ATOM      5  C   UNL     1       1.111  -1.695   3.393  0.00  0.00    +0.165 A 
ATOM      6  C   UNL     1       2.529  -1.495   3.710  0.00  0.00    +0.290 A 
ATOM      7  O   UNL     1       3.046  -2.071   4.652  0.00  0.00    -0.264 OA
ATOM      8  N   UNL     1       0.331  -2.547   4.163  0.00  0.00    -0.311 N 
ATOM      9  C   UNL     1      -1.044  -2.849   3.718  0.00  0.00    +0.108 C 
ATOM     10  C   UNL     1      -1.378  -4.338   3.906  0.00  0.00    +0.034 C 
ATOM     11  C   UNL     1      -0.179  -5.180   3.531  0.00  0.00    +0.086 C 
ATOM     12  N   UNL     1       0.623  -5.431   4.728  0.00  0.00    -0.301 NA
ATOM     13  C   UNL     1       1.592  -4.452   5.051  0.00  0.00    +0.103 C 
ATOM     14  C   UNL     1       0.899  -3.111   5.371  0.00  0.00    +0.122 C 
ATOM     15  H   UNL     1      -0.347  -1.190   2.146  0.00  0.00    +0.167 HD
ENDROOT
BRANCH   1  17
ATOM     16  C   UNL     1       5.503  -0.829   2.004  0.00  0.00    +0.030 C 
ATOM     17  C   UNL     1       4.667  -0.414   3.216  0.00  0.00    +0.084 C 
ATOM     18  C   UNL     1       4.889   1.072   3.504  0.00  0.00    +0.030 C 
ENDBRANCH   1  17
BRANCH  12  19
ATOM     19  C   UNL     1       1.222  -6.772   4.689  0.00  0.00    +0.082 C 
BRANCH  19  20
ATOM     20  C   UNL     1       0.151  -7.818   5.003  0.00  0.00    -0.004 C 
BRANCH  20  21
ATOM     21  C   UNL     1       0.785  -9.211   5.009  0.00  0.00    -0.085 C 
BRANCH  21  22
ATOM     22  N   UNL     1      -0.243 -10.215   5.310  0.00  0.00    +0.378 N 
ATOM     23  H   UNL     1      -0.645 -10.025   6.216  0.00  0.00    -0.090 HD
ATOM     24  H   UNL     1      -0.967 -10.178   4.607  0.00  0.00    -0.090 HD
ATOM     25  H   UNL     1       0.174 -11.134   5.314  0.00  0.00    -0.090 HD
ENDBRANCH  21  22
ENDBRANCH  20  21
ENDBRANCH  19  20
ENDBRANCH  12  19
TORSDOF 5
