REMARK  Name = ZINC02792782
REMARK  9 active torsions:
REMARK  status: ('A' for Active; 'I' for Inactive)
REMARK    1  A    between atoms: C_1  and  C_2
REMARK    2  A    between atoms: C_5  and  N_8
REMARK    3  A    between atoms: C_9  and  C_14
REMARK    4  A    between atoms: C_14  and  S_15
REMARK    5  A    between atoms: S_15  and  C_16
REMARK    6  A    between atoms: C_19  and  C_28
REMARK    7  A    between atoms: N_20  and  C_21
REMARK    8  A    between atoms: C_21  and  C_22
REMARK    9  A    between atoms: N_31  and  C_33
REMARK                            x       y       z     vdW  Elec       q    Type
REMARK                         _______ _______ _______ _____ _____    ______ ____
ROOT
ATOM      1  C   UNL     1       2.048  -1.837   4.901  0.00  0.00    +0.192 A 
ATOM      2  N   UNL     1       3.348  -1.646   4.902  0.00  0.00    -0.122 NA
ATOM      3  N   UNL     1       3.740  -1.285   6.072  0.00  0.00    -0.127 NA
ATOM      4  C   UNL     1       2.714  -1.223   6.889  0.00  0.00    +0.185 A 
ATOM      5  N   UNL     1       1.598  -1.569   6.163  0.00  0.00    -0.298 N 
ENDROOT
BRANCH   4   6
ATOM      6  C   UNL     1       2.751  -0.846   8.319  0.00  0.00    +0.130 A 
ATOM      7  C   UNL     1       3.901  -0.493   9.055  0.00  0.00    +0.052 A 
ATOM      8  C   UNL     1       3.514  -0.215  10.318  0.00  0.00    +0.108 A 
ATOM      9  N   UNL     1       2.177  -0.391  10.394  0.00  0.00    -0.274 N 
ATOM     10  N   UNL     1       1.716  -0.787   9.132  0.00  0.00    -0.168 NA
ATOM     11  C   UNL     1       1.352  -0.201  11.590  0.00  0.00    +0.172 C 
ENDBRANCH   4   6
BRANCH   1  12
ATOM     12  S   UNL     1       1.066  -2.338   3.526  0.00  0.00    -0.078 S 
BRANCH  12  13
ATOM     13  C   UNL     1       2.350  -2.479   2.258  0.00  0.00    +0.154 C 
BRANCH  13  15
ATOM     14  N   UNL     1       1.236  -2.083  -0.021  0.00  0.00    -0.273 N 
ATOM     15  C   UNL     1       1.725  -2.909   0.956  0.00  0.00    +0.149 A 
ATOM     16  N   UNL     1       1.549  -4.135   0.551  0.00  0.00    -0.132 NA
ATOM     17  N   UNL     1       0.995  -4.142  -0.609  0.00  0.00    -0.121 NA
ATOM     18  C   UNL     1       0.780  -2.911  -1.010  0.00  0.00    +0.207 A 
ATOM     19  S   UNL     1       0.044  -2.418  -2.533  0.00  0.00    -0.009 SA
BRANCH  14  24
ATOM     20  C   UNL     1       1.147   3.593   0.010  0.00  0.00    +0.044 C 
ATOM     21  C   UNL     1       1.171   2.086   0.002  0.00  0.00    -0.050 A 
ATOM     22  C   UNL     1      -0.017   1.377   0.010  0.00  0.00    +0.005 A 
ATOM     23  C   UNL     1       0.002  -0.004   0.002  0.00  0.00    +0.026 A 
ATOM     24  C   UNL     1       1.214  -0.680  -0.013  0.00  0.00    +0.050 A 
ATOM     25  C   UNL     1       2.405   0.034  -0.021  0.00  0.00    +0.026 A 
ATOM     26  C   UNL     1       2.380   1.415  -0.013  0.00  0.00    +0.005 A 
ENDBRANCH  14  24
ENDBRANCH  13  15
ENDBRANCH  12  13
ENDBRANCH   1  12
BRANCH   5  27
ATOM     27  C   UNL     1       0.216  -1.639   6.644  0.00  0.00    +0.157 C 
BRANCH  27  28
ATOM     28  C   UNL     1      -0.069  -3.046   7.175  0.00  0.00    +0.138 C 
ATOM     29  C   UNL     1      -1.554  -3.163   7.578  0.00  0.00    +0.035 C 
ATOM     30  C   UNL     1      -1.479  -4.015   8.873  0.00  0.00    +0.031 C 
ATOM     31  C   UNL     1      -0.141  -3.516   9.476  0.00  0.00    +0.160 C 
ATOM     32  O   UNL     1       0.718  -3.291   8.347  0.00  0.00    -0.375 OA
ENDBRANCH  27  28
ENDBRANCH   5  27
TORSDOF 7
