REMARK  Name = ZINC04729642
REMARK  8 active torsions:
REMARK  status: ('A' for Active; 'I' for Inactive)
REMARK    1  A    between atoms: C_1  and  O_2
REMARK    2  A    between atoms: O_2  and  C_3
REMARK    3  A    between atoms: C_7  and  C_9
REMARK    4  A    between atoms: C_11  and  C_24
REMARK    5  A    between atoms: C_13  and  C_16
REMARK    6  A    between atoms: C_21  and  O_22
REMARK    7  A    between atoms: C_29  and  O_30
REMARK    8  A    between atoms: O_30  and  C_31
REMARK                            x       y       z     vdW  Elec       q    Type
REMARK                         _______ _______ _______ _____ _____    ______ ____
ROOT
ATOM      1  C   UNL     1      -3.042   3.151  -1.448  0.00  0.00    +0.040 C 
ATOM      2  N   UNL     1      -3.240   4.032  -0.541  0.00  0.00    -0.298 NA
ATOM      3  C   UNL     1      -2.413   4.181   0.650  0.00  0.00    +0.084 C 
ATOM      4  C   UNL     1      -1.332   2.119   0.020  0.00  0.00    -0.028 C 
ATOM      5  C   UNL     1      -1.912   2.161  -1.397  0.00  0.00    +0.044 C 
ATOM      6  N   UNL     1      -1.117   3.507   0.473  0.00  0.00    +0.401 N 
ATOM      7  H   UNL     1      -0.612   3.500   1.367  0.00  0.00    -0.081 HD
ATOM      8  H   UNL     1      -0.564   4.013  -0.229  0.00  0.00    -0.081 HD
ENDROOT
BRANCH   4   9
ATOM      9  C   UNL     1      -0.017   1.383   0.010  0.00  0.00    -0.018 A 
ATOM     10  C   UNL     1       1.171   2.089   0.002  0.00  0.00    +0.025 A 
ATOM     11  C   UNL     1       2.378   1.414  -0.013  0.00  0.00    +0.041 A 
ATOM     12  C   UNL     1       2.399   0.030  -0.021  0.00  0.00    +0.023 A 
ATOM     13  C   UNL     1       1.214  -0.680  -0.013  0.00  0.00    +0.047 A 
ATOM     14  C   UNL     1       0.002  -0.004   0.002  0.00  0.00    +0.119 A 
ATOM     15 CL   UNL     1       3.869   2.303  -0.021  0.00  0.00    -0.084 Cl
BRANCH  14  16
ATOM     16  O   UNL     1      -1.165  -0.701   0.010  0.00  0.00    -0.507 OA
ATOM     17  H   UNL     1      -1.512  -0.897  -0.871  0.00  0.00    +0.292 HD
ENDBRANCH  14  16
ENDBRANCH   4   9
BRANCH   1  22
ATOM     18  C   UNL     1      -5.891   3.958  -3.760  0.00  0.00    +0.121 A 
ATOM     19  C   UNL     1      -5.700   3.013  -4.760  0.00  0.00    +0.045 A 
ATOM     20  C   UNL     1      -4.649   2.118  -4.680  0.00  0.00    +0.004 A 
ATOM     21  C   UNL     1      -3.783   2.158  -3.607  0.00  0.00    +0.010 A 
ATOM     22  C   UNL     1      -3.966   3.105  -2.598  0.00  0.00    -0.001 A 
ATOM     23  C   UNL     1      -5.031   4.004  -2.677  0.00  0.00    +0.055 A 
BRANCH  18  25
ATOM     24  C   UNL     1      -7.778   4.726  -4.986  0.00  0.00    +0.277 C 
ATOM     25  O   UNL     1      -6.926   4.834  -3.844  0.00  0.00    -0.495 OA
ENDBRANCH  18  25
ENDBRANCH   1  22
BRANCH   3  26
ATOM     26  C   UNL     1      -3.129   3.580   1.831  0.00  0.00    +0.001 A 
ATOM     27  C   UNL     1      -2.411   2.936   2.821  0.00  0.00    +0.007 A 
ATOM     28  C   UNL     1      -3.067   2.388   3.907  0.00  0.00    +0.000 A 
ATOM     29  C   UNL     1      -4.444   2.474   4.002  0.00  0.00    +0.004 A 
ATOM     30  C   UNL     1      -5.167   3.112   3.012  0.00  0.00    +0.046 A 
ATOM     31  C   UNL     1      -4.510   3.667   1.923  0.00  0.00    +0.123 A 
BRANCH  31  32
ATOM     32  O   UNL     1      -5.219   4.295   0.949  0.00  0.00    -0.495 OA
ATOM     33  C   UNL     1      -6.638   4.347   1.110  0.00  0.00    +0.277 C 
ENDBRANCH  31  32
ENDBRANCH   3  26
TORSDOF 6
