REMARK  Name = ZINC40662023
REMARK  7 active torsions:
REMARK  status: ('A' for Active; 'I' for Inactive)
REMARK    1  A    between atoms: C_1  and  C_2
REMARK    2  A    between atoms: C_2  and  N_3
REMARK    3  A    between atoms: N_3  and  C_4
REMARK    4  A    between atoms: C_8  and  C_10
REMARK    5  A    between atoms: C_12  and  N_29
REMARK    6  A    between atoms: C_13  and  N_17
REMARK    7  A    between atoms: C_21  and  C_24
REMARK                            x       y       z     vdW  Elec       q    Type
REMARK                         _______ _______ _______ _____ _____    ______ ____
ROOT
ATOM      1  N   UNL     1       0.685  -0.471  -1.201  0.00  0.00    -0.285 N 
ATOM      2  C   UNL     1      -0.121  -0.676  -2.315  0.00  0.00    +0.129 A 
ATOM      3  C   UNL     1      -1.485  -0.378  -2.269  0.00  0.00    +0.104 A 
ATOM      4  C   UNL     1      -2.247  -0.602  -3.416  0.00  0.00    +0.150 A 
ATOM      5  N   UNL     1      -1.651  -1.086  -4.503  0.00  0.00    -0.221 NA
ATOM      6  C   UNL     1      -0.361  -1.354  -4.504  0.00  0.00    +0.200 A 
ATOM      7  N   UNL     1       0.396  -1.153  -3.445  0.00  0.00    -0.332 N 
ATOM      8  H   UNL     1       1.343  -1.359  -3.487  0.00  0.00    +0.168 HD
ENDROOT
BRANCH   4   9
ATOM      9  N   UNL     1      -3.610  -0.323  -3.424  0.00  0.00    -0.282 N 
ATOM     10  C   UNL     1      -4.361  -0.550  -4.574  0.00  0.00    +0.142 A 
ATOM     11  C   UNL     1      -5.723  -0.263  -4.577  0.00  0.00    +0.081 A 
ATOM     12  C   UNL     1      -6.456  -0.493  -5.728  0.00  0.00    +0.037 A 
ATOM     13  C   UNL     1      -5.800  -1.004  -6.840  0.00  0.00    +0.074 A 
ATOM     14  C   UNL     1      -4.447  -1.265  -6.766  0.00  0.00    +0.125 A 
ATOM     15  N   UNL     1      -3.772  -1.031  -5.657  0.00  0.00    -0.238 NA
ATOM     16 CL   UNL     1      -6.491   0.374  -3.156  0.00  0.00    -0.080 Cl
ATOM     17  H   UNL     1      -4.037   0.030  -2.628  0.00  0.00    +0.155 HD
BRANCH  13  18
ATOM     18  C   UNL     1      -6.559  -1.271  -8.115  0.00  0.00    +0.419 C 
ATOM     19  F   UNL     1      -6.535  -0.128  -8.920  0.00  0.00    -0.166 F 
ATOM     20  F   UNL     1      -5.961  -2.336  -8.799  0.00  0.00    -0.166 F 
ATOM     21  F   UNL     1      -7.884  -1.599  -7.809  0.00  0.00    -0.166 F 
ENDBRANCH  13  18
ENDBRANCH   4   9
BRANCH   1  22
ATOM     22  C   UNL     1       0.943  -1.527  -0.322  0.00  0.00    +0.035 A 
ATOM     23  C   UNL     1       0.487  -2.806  -0.617  0.00  0.00    +0.023 A 
ATOM     24  C   UNL     1       0.744  -3.847   0.253  0.00  0.00    +0.002 A 
ATOM     25  C   UNL     1       1.455  -3.617   1.417  0.00  0.00    +0.003 A 
ATOM     26  C   UNL     1       1.910  -2.346   1.714  0.00  0.00    -0.049 A 
ATOM     27  C   UNL     1       1.662  -1.302   0.845  0.00  0.00    +0.026 A 
ATOM     28  C   UNL     1       2.684  -2.101   2.984  0.00  0.00    +0.044 C 
ENDBRANCH   1  22
BRANCH   3  29
ATOM     29  N   UNL     1      -2.072   0.132  -1.100  0.00  0.00    -0.353 N 
ATOM     30  H   UNL     1      -1.547   0.212  -0.289  0.00  0.00    +0.143 HD
ATOM     31  H   UNL     1      -3.003   0.403  -1.104  0.00  0.00    +0.143 HD
ENDBRANCH   3  29
BRANCH   1  33
ATOM     32  C   UNL     1       2.682   0.905  -1.516  0.00  0.00    +0.025 C 
ATOM     33  C   UNL     1       1.262   0.851  -0.947  0.00  0.00    +0.109 C 
ENDBRANCH   1  33
TORSDOF 5
