REMARK  Name = ZINC05017750
REMARK  8 active torsions:
REMARK  status: ('A' for Active; 'I' for Inactive)
REMARK    1  A    between atoms: C_4  and  C_7
REMARK    2  A    between atoms: C_8  and  C_9
REMARK    3  A    between atoms: C_8  and  N_22
REMARK    4  A    between atoms: N_11  and  N_12
REMARK    5  A    between atoms: C_13  and  C_15
REMARK    6  A    between atoms: C_15  and  C_16
REMARK    7  A    between atoms: C_16  and  N_57
REMARK    8  A    between atoms: C_23  and  C_25
REMARK                            x       y       z     vdW  Elec       q    Type
REMARK                         _______ _______ _______ _____ _____    ______ ____
ROOT
ATOM      1  C   UNL     1       0.241  -2.676  -0.122  0.00  0.00    +0.036 C 
ATOM      2  C   UNL     1      -0.975  -2.087  -0.182  0.00  0.00    +0.098 C 
ENDROOT
BRANCH   1   6
ATOM      3  C   UNL     1       3.755  -0.302  -0.199  0.00  0.00    +0.000 A 
ATOM      4  C   UNL     1       3.797  -1.577   0.338  0.00  0.00    +0.001 A 
ATOM      5  C   UNL     1       2.659  -2.355   0.367  0.00  0.00    +0.008 A 
ATOM      6  C   UNL     1       1.460  -1.852  -0.148  0.00  0.00    -0.023 A 
ATOM      7  C   UNL     1       1.427  -0.565  -0.694  0.00  0.00    +0.008 A 
ATOM      8  C   UNL     1       2.572   0.203  -0.710  0.00  0.00    +0.001 A 
ENDBRANCH   1   6
BRANCH   2   9
ATOM      9  C   UNL     1      -2.186  -2.911  -0.312  0.00  0.00    +0.274 C 
ATOM     10  O   UNL     1      -3.279  -2.381  -0.366  0.00  0.00    -0.267 OA
ATOM     11  N   UNL     1      -2.083  -4.253  -0.372  0.00  0.00    -0.229 N 
ATOM     12  H   UNL     1      -1.211  -4.676  -0.329  0.00  0.00    +0.173 HD
BRANCH  11  13
ATOM     13  N   UNL     1      -3.237  -5.039  -0.496  0.00  0.00    -0.234 N 
ATOM     14  C   UNL     1      -3.135  -6.381  -0.556  0.00  0.00    +0.227 C 
ATOM     15  O   UNL     1      -2.045  -6.910  -0.502  0.00  0.00    -0.274 OA
ATOM     16  H   UNL     1      -4.109  -4.616  -0.539  0.00  0.00    +0.173 HD
BRANCH  14  17
ATOM     17  C   UNL     1      -4.376  -7.226  -0.690  0.00  0.00    +0.079 C 
BRANCH  17  18
ATOM     18  C   UNL     1      -3.984  -8.704  -0.735  0.00  0.00    -0.069 C 
BRANCH  18  24
ATOM     19  C   UNL     1      -6.029  -9.431   0.341  0.00  0.00    -0.050 C 
ATOM     20  C   UNL     1      -7.304 -10.254   0.139  0.00  0.00    +0.141 C 
ATOM     21  O   UNL     1      -6.949 -11.606  -0.167  0.00  0.00    -0.383 OA
ATOM     22  C   UNL     1      -6.136 -11.737  -1.336  0.00  0.00    +0.141 C 
ATOM     23  C   UNL     1      -4.849 -10.928  -1.150  0.00  0.00    -0.050 C 
ATOM     24  N   UNL     1      -5.209  -9.519  -0.886  0.00  0.00    +0.383 N 
ATOM     25  H   UNL     1      -5.753  -9.160  -1.679  0.00  0.00    -0.082 HD
ENDBRANCH  18  24
ENDBRANCH  17  18
ENDBRANCH  14  17
ENDBRANCH  11  13
ENDBRANCH   2   9
BRANCH   2  26
ATOM     26  N   UNL     1      -1.081  -0.694  -0.119  0.00  0.00    -0.277 N 
ATOM     27  C   UNL     1      -1.693  -0.020  -1.113  0.00  0.00    +0.248 C 
ATOM     28  O   UNL     1      -2.235  -0.627  -2.015  0.00  0.00    -0.270 OA
ATOM     29  H   UNL     1      -0.713  -0.213   0.638  0.00  0.00    +0.155 HD
BRANCH  27  30
ATOM     30  C   UNL     1      -1.705   1.458  -1.105  0.00  0.00    +0.037 A 
ATOM     31  C   UNL     1      -1.186   2.157  -0.014  0.00  0.00    +0.013 A 
ATOM     32  C   UNL     1      -1.196   3.537  -0.015  0.00  0.00    +0.001 A 
ATOM     33  C   UNL     1      -1.730   4.227  -1.089  0.00  0.00    +0.000 A 
ATOM     34  C   UNL     1      -2.251   3.540  -2.171  0.00  0.00    +0.001 A 
ATOM     35  C   UNL     1      -2.242   2.161  -2.185  0.00  0.00    +0.013 A 
ENDBRANCH  27  30
ENDBRANCH   2  26
TORSDOF 8
