REMARK  Name = ZINC67298326
REMARK  3 active torsions:
REMARK  status: ('A' for Active; 'I' for Inactive)
REMARK    1  A    between atoms: C_3  and  O_23
REMARK    2  A    between atoms: C_8  and  C_20
REMARK    3  A    between atoms: N_10  and  C_11
REMARK                            x       y       z     vdW  Elec       q    Type
REMARK                         _______ _______ _______ _____ _____    ______ ____
ROOT
ATOM      1  C   UNL     1      -0.184   1.308   1.480  0.00  0.00    +0.015 A 
ATOM      2  C   UNL     1       0.939   1.927   1.947  0.00  0.00    +0.046 A 
ATOM      3  C   UNL     1       2.154   1.246   1.994  0.00  0.00    +0.120 A 
ATOM      4  C   UNL     1       2.242  -0.066   1.554  0.00  0.00    +0.092 A 
ATOM      5  C   UNL     1       1.114  -0.708   1.071  0.00  0.00    +0.141 A 
ATOM      6  C   UNL     1      -0.120  -0.027   1.053  0.00  0.00    +0.018 A 
ATOM      7  C   UNL     1      -1.287  -0.693   0.599  0.00  0.00    +0.030 A 
ATOM      8  C   UNL     1      -1.218  -2.061   0.382  0.00  0.00    +0.097 A 
ATOM      9  C   UNL     1       0.065  -2.730   0.673  0.00  0.00    +0.212 A 
ATOM     10  N   UNL     1       0.112  -4.008   0.983  0.00  0.00    -0.323 N 
ATOM     11  O   UNL     1       1.196  -1.980   0.610  0.00  0.00    -0.438 OA
ATOM     12  H   UNL     1      -0.708  -4.521   1.046  0.00  0.00    +0.169 HD
ENDROOT
BRANCH  10  13
ATOM     13  C   UNL     1       1.318  -4.612   1.215  0.00  0.00    +0.078 A 
ATOM     14  C   UNL     1       2.361  -4.471   0.297  0.00  0.00    +0.031 A 
ATOM     15  C   UNL     1       3.574  -5.083   0.537  0.00  0.00    +0.040 A 
ATOM     16  C   UNL     1       3.760  -5.835   1.686  0.00  0.00    +0.126 A 
ATOM     17  C   UNL     1       2.731  -5.979   2.601  0.00  0.00    +0.078 A 
ATOM     18  C   UNL     1       1.513  -5.367   2.376  0.00  0.00    +0.149 A 
ATOM     19  F   UNL     1       0.511  -5.503   3.272  0.00  0.00    -0.203 F 
ATOM     20  F   UNL     1       4.951  -6.431   1.914  0.00  0.00    -0.205 F 
ENDBRANCH  10  13
BRANCH   8  21
ATOM     21  C   UNL     1      -2.378  -2.816  -0.119  0.00  0.00    +0.247 C 
ATOM     22  O   UNL     1      -2.263  -3.993  -0.401  0.00  0.00    -0.270 OA
ATOM     23  N   UNL     1      -3.569  -2.201  -0.266  0.00  0.00    -0.325 N 
ATOM     24  H   UNL     1      -3.680  -1.282   0.024  0.00  0.00    +0.145 HD
ATOM     25  H   UNL     1      -4.316  -2.679  -0.662  0.00  0.00    +0.145 HD
ENDBRANCH   8  21
BRANCH   3  26
ATOM     26  O   UNL     1       3.258   1.872   2.473  0.00  0.00    -0.507 OA
ATOM     27  H   UNL     1       3.387   1.768   3.426  0.00  0.00    +0.292 HD
ENDBRANCH   3  26
TORSDOF 3
