REMARK  Name = ZINC46342420
REMARK  11 active torsions:
REMARK  status: ('A' for Active; 'I' for Inactive)
REMARK    1  A    between atoms: C_1  and  C_2
REMARK    2  A    between atoms: C_2  and  C_4
REMARK    3  A    between atoms: C_2  and  O_11
REMARK    4  A    between atoms: O_11  and  C_12
REMARK    5  A    between atoms: C_12  and  C_13
REMARK    6  A    between atoms: C_13  and  C_15
REMARK    7  A    between atoms: C_13  and  O_29
REMARK    8  A    between atoms: C_15  and  N_16
REMARK    9  A    between atoms: N_25  and  C_26
REMARK   10  A    between atoms: C_26  and  C_27
REMARK   11  A    between atoms: C_27  and  O_28
REMARK                            x       y       z     vdW  Elec       q    Type
REMARK                         _______ _______ _______ _____ _____    ______ ____
ROOT
ATOM      1  N   UNL     1       4.790  -2.060   3.230  0.00  0.00    -0.311 N 
ATOM      2  C   UNL     1       5.379  -1.378   4.283  0.00  0.00    +0.068 A 
ATOM      3  C   UNL     1       5.612  -0.038   4.551  0.00  0.00    +0.028 A 
ATOM      4  C   UNL     1       6.240   0.330   5.722  0.00  0.00    +0.002 A 
ATOM      5  C   UNL     1       6.642  -0.633   6.636  0.00  0.00    +0.002 A 
ATOM      6  C   UNL     1       6.420  -1.969   6.386  0.00  0.00    +0.028 A 
ATOM      7  C   UNL     1       5.784  -2.358   5.205  0.00  0.00    +0.065 A 
ATOM      8  N   UNL     1       5.433  -3.564   4.686  0.00  0.00    -0.327 N 
ATOM      9  C   UNL     1       4.843  -3.391   3.529  0.00  0.00    +0.174 A 
ATOM     10  N   UNL     1       4.353  -4.402   2.731  0.00  0.00    -0.314 N 
ATOM     11  H   UNL     1       3.931  -4.190   1.884  0.00  0.00    +0.149 HD
ATOM     12  H   UNL     1       5.590  -4.422   5.110  0.00  0.00    +0.169 HD
ENDROOT
BRANCH   1  13
ATOM     13  C   UNL     1       4.212  -1.463   2.024  0.00  0.00    +0.158 C 
BRANCH  13  14
ATOM     14  C   UNL     1       2.732  -1.158   2.264  0.00  0.00    +0.160 C 
BRANCH  14  15
ATOM     15  O   UNL     1       2.610  -0.157   3.277  0.00  0.00    -0.388 OA
ATOM     16  H   UNL     1       3.042   0.680   3.057  0.00  0.00    +0.210 HD
ENDBRANCH  14  15
BRANCH  14  17
ATOM     17  C   UNL     1       2.099  -0.651   0.967  0.00  0.00    +0.193 C 
BRANCH  17  18
ATOM     18  O   UNL     1       0.693  -0.477   1.160  0.00  0.00    -0.370 OA
BRANCH  18  20
ATOM     19  C   UNL     1      -0.019   1.526   0.010  0.00  0.00    +0.043 C 
ATOM     20  C   UNL     1       0.002  -0.004   0.002  0.00  0.00    +0.145 C 
BRANCH  20  21
ATOM     21  C   UNL     1      -1.412  -0.526   0.013  0.00  0.00    -0.019 A 
ATOM     22  C   UNL     1      -2.123  -0.571   1.198  0.00  0.00    +0.007 A 
ATOM     23  C   UNL     1      -3.419  -1.049   1.208  0.00  0.00    +0.020 A 
ATOM     24  C   UNL     1      -4.006  -1.483   0.032  0.00  0.00    +0.041 A 
ATOM     25  C   UNL     1      -3.294  -1.437  -1.153  0.00  0.00    +0.020 A 
ATOM     26  C   UNL     1      -1.999  -0.954  -1.163  0.00  0.00    +0.007 A 
ATOM     27 CL   UNL     1      -5.634  -2.084   0.045  0.00  0.00    -0.084 Cl
ENDBRANCH  20  21
ENDBRANCH  18  20
ENDBRANCH  17  18
ENDBRANCH  14  17
ENDBRANCH  13  14
ENDBRANCH   1  13
BRANCH  10  28
ATOM     28  C   UNL     1       4.470  -5.798   3.162  0.00  0.00    +0.132 C 
BRANCH  28  29
ATOM     29  C   UNL     1       3.852  -6.712   2.102  0.00  0.00    +0.174 C 
BRANCH  29  30
ATOM     30  O   UNL     1       4.612  -6.624   0.895  0.00  0.00    -0.393 OA
ATOM     31  H   UNL     1       4.277  -7.179   0.178  0.00  0.00    +0.209 HD
ENDBRANCH  29  30
ENDBRANCH  28  29
ENDBRANCH  10  28
TORSDOF 10
