REMARK  Name = ZINC05102329
REMARK  5 active torsions:
REMARK  status: ('A' for Active; 'I' for Inactive)
REMARK    1  A    between atoms: C_1  and  C_2
REMARK    2  A    between atoms: N_7  and  C_8
REMARK    3  A    between atoms: C_8  and  C_10
REMARK    4  A    between atoms: C_8  and  C_17
REMARK    5  A    between atoms: C_26  and  O_27
REMARK                            x       y       z     vdW  Elec       q    Type
REMARK                         _______ _______ _______ _____ _____    ______ ____
ROOT
ATOM      1  C   UNL     1      -0.013   1.086   0.008  0.00  0.00    +0.136 C 
ENDROOT
BRANCH   1   8
ATOM      2  C   UNL     1      -1.833   0.674  -5.819  0.00  0.00    +0.063 C 
ATOM      3  C   UNL     1      -1.126   0.234  -4.563  0.00  0.00    +0.014 A 
ATOM      4  C   UNL     1      -0.419  -0.952  -4.558  0.00  0.00    +0.021 A 
ATOM      5  C   UNL     1       0.231  -1.352  -3.398  0.00  0.00    +0.005 A 
ATOM      6  C   UNL     1       0.145  -0.541  -2.280  0.00  0.00    +0.041 A 
ATOM      7  C   UNL     1      -0.585   0.640  -2.356  0.00  0.00    +0.097 A 
ATOM      8  N   UNL     1      -0.680   1.464  -1.240  0.00  0.00    -0.320 N 
ATOM      9  H   UNL     1      -1.188   2.289  -1.288  0.00  0.00    +0.148 HD
ATOM     10  N   UNL     1      -1.236   1.052  -3.482  0.00  0.00    -0.347 N 
ATOM     11  H   UNL     1      -1.776   1.925  -3.512  0.00  0.00    +0.167 HD
ENDBRANCH   1   8
BRANCH   1  12
ATOM     12  C   UNL     1      -0.709   1.746   1.170  0.00  0.00    +0.021 A 
ATOM     13  C   UNL     1      -1.380   2.950   0.973  0.00  0.00    +0.010 A 
ATOM     14  C   UNL     1      -2.024   3.570   2.000  0.00  0.00    +0.010 A 
ATOM     15  C   UNL     1      -2.004   2.995   3.282  0.00  0.00    +0.004 A 
ATOM     16  C   UNL     1      -2.653   3.608   4.370  0.00  0.00    +0.011 A 
ATOM     17  C   UNL     1      -2.592   2.992   5.587  0.00  0.00    +0.020 A 
ATOM     18  C   UNL     1      -1.901   1.790   5.724  0.00  0.00    +0.111 A 
ATOM     19  N   UNL     1      -1.299   1.222   4.708  0.00  0.00    -0.251 NA
ATOM     20  C   UNL     1      -1.319   1.773   3.491  0.00  0.00    +0.113 A 
ATOM     21  C   UNL     1      -0.669   1.157   2.401  0.00  0.00    +0.148 A 
BRANCH  21  22
ATOM     22  O   UNL     1      -0.005  -0.015   2.576  0.00  0.00    -0.504 OA
ATOM     23  H   UNL     1       0.926   0.092   2.816  0.00  0.00    +0.292 HD
ENDBRANCH  21  22
ENDBRANCH   1  12
BRANCH   1  24
ATOM     24  C   UNL     1       1.426   1.533  -0.035  0.00  0.00    -0.023 A 
ATOM     25  C   UNL     1       1.752   2.758  -0.588  0.00  0.00    +0.007 A 
ATOM     26  C   UNL     1       3.070   3.172  -0.623  0.00  0.00    +0.020 A 
ATOM     27  C   UNL     1       4.065   2.355  -0.115  0.00  0.00    +0.041 A 
ATOM     28  C   UNL     1       3.738   1.127   0.432  0.00  0.00    +0.020 A 
ATOM     29  C   UNL     1       2.419   0.717   0.471  0.00  0.00    +0.007 A 
ATOM     30 CL   UNL     1       5.722   2.870  -0.166  0.00  0.00    -0.084 Cl
ENDBRANCH   1  24
TORSDOF 4
