REMARK  Name = ZINC43262779
REMARK  13 active torsions:
REMARK  status: ('A' for Active; 'I' for Inactive)
REMARK    1  A    between atoms: C_1  and  C_2
REMARK    2  A    between atoms: C_2  and  C_3
REMARK    3  A    between atoms: C_3  and  C_5
REMARK    4  A    between atoms: C_3  and  N_22
REMARK    5  A    between atoms: C_5  and  C_7
REMARK    6  A    between atoms: C_5  and  N_13
REMARK    7  A    between atoms: N_13  and  C_14
REMARK    8  A    between atoms: N_13  and  C_15
REMARK    9  A    between atoms: C_15  and  C_16
REMARK   10  A    between atoms: C_16  and  C_18
REMARK   11  A    between atoms: C_16  and  O_21
REMARK   12  A    between atoms: C_18  and  O_19
REMARK   13  A    between atoms: O_19  and  C_20
REMARK                            x       y       z     vdW  Elec       q    Type
REMARK                         _______ _______ _______ _____ _____    ______ ____
ROOT
ATOM      1  C   UNL     1      -1.413  -2.059   0.130  0.00  0.00    -0.046 C 
ENDROOT
BRANCH   1   2
ATOM      2  C   UNL     1      -0.780  -2.649  -1.103  0.00  0.00    -0.024 A 
ATOM      3  C   UNL     1      -1.376  -3.194  -2.191  0.00  0.00    +0.010 A 
ATOM      4  C   UNL     1      -0.586  -3.679  -3.217  0.00  0.00    +0.023 A 
ATOM      5  C   UNL     1       0.763  -3.596  -3.103  0.00  0.00    +0.055 A 
ATOM      6  S   UNL     1       0.951  -2.806  -1.513  0.00  0.00    -0.088 S 
ATOM      7 BR   UNL     1       2.098  -4.163  -4.316  0.00  0.00    -0.043 Br
ENDBRANCH   1   2
BRANCH   1   8
ATOM      8  N   UNL     1      -0.636  -2.449   1.314  0.00  0.00    +0.383 N 
ATOM      9  C   UNL     1      -1.254  -1.873   2.517  0.00  0.00    -0.095 C 
ATOM     10  H   UNL     1       0.309  -2.106   1.224  0.00  0.00    -0.081 HD
BRANCH   8  11
ATOM     11  C   UNL     1      -0.617  -3.913   1.427  0.00  0.00    -0.044 C 
BRANCH  11  12
ATOM     12  C   UNL     1       0.294  -4.324   2.586  0.00  0.00    +0.124 C 
BRANCH  12  13
ATOM     13  O   UNL     1       1.619  -3.847   2.342  0.00  0.00    -0.391 OA
ATOM     14  H   UNL     1       2.017  -4.191   1.531  0.00  0.00    +0.210 HD
ENDBRANCH  12  13
BRANCH  12  15
ATOM     15  C   UNL     1       0.314  -5.849   2.703  0.00  0.00    +0.188 C 
BRANCH  15  16
ATOM     16  O   UNL     1       1.070  -6.228   3.855  0.00  0.00    -0.381 OA
ATOM     17  C   UNL     1       1.151  -7.641   4.058  0.00  0.00    +0.194 C 
ENDBRANCH  15  16
ENDBRANCH  12  15
ENDBRANCH  11  12
ENDBRANCH   8  11
ENDBRANCH   1   8
BRANCH   1  18
ATOM     18  C   UNL     1      -1.433  -0.534   0.013  0.00  0.00    -0.085 C 
BRANCH  18  19
ATOM     19  N   UNL     1      -2.107  -0.147  -1.234  0.00  0.00    +0.379 N 
ATOM     20  H   UNL     1      -1.610  -0.539  -2.020  0.00  0.00    -0.090 HD
ATOM     21  H   UNL     1      -3.054  -0.496  -1.227  0.00  0.00    -0.090 HD
ATOM     22  H   UNL     1      -2.120   0.859  -1.311  0.00  0.00    -0.090 HD
ENDBRANCH  18  19
BRANCH  18  24
ATOM     23  C   UNL     1      -0.019   1.526   0.010  0.00  0.00    +0.002 C 
ATOM     24  C   UNL     1       0.002  -0.004   0.002  0.00  0.00    -0.021 C 
ENDBRANCH  18  24
ENDBRANCH   1  18
TORSDOF 10
