REMARK  Name = ZINC06660110
REMARK  10 active torsions:
REMARK  status: ('A' for Active; 'I' for Inactive)
REMARK    1  A    between atoms: C_1  and  O_2
REMARK    2  A    between atoms: O_2  and  C_3
REMARK    3  A    between atoms: C_7  and  N_9
REMARK    4  A    between atoms: C_10  and  C_12
REMARK    5  A    between atoms: C_12  and  C_14
REMARK    6  A    between atoms: C_12  and  N_18
REMARK    7  A    between atoms: C_14  and  C_15
REMARK    8  A    between atoms: C_15  and  S_16
REMARK    9  A    between atoms: S_16  and  C_17
REMARK   10  A    between atoms: C_19  and  C_21
REMARK                            x       y       z     vdW  Elec       q    Type
REMARK                         _______ _______ _______ _____ _____    ______ ____
ROOT
ATOM      1  C   UNL     1      -5.497   3.520   0.901  0.00  0.00    +0.160 C 
ENDROOT
BRANCH   1   3
ATOM      2  N   UNL     1      -6.577   5.636   1.591  0.00  0.00    -0.284 N 
ATOM      3  C   UNL     1      -5.499   4.829   1.648  0.00  0.00    +0.238 C 
ATOM      4  O   UNL     1      -4.530   5.155   2.300  0.00  0.00    -0.273 OA
ATOM      5  H   UNL     1      -7.324   5.407   1.016  0.00  0.00    +0.155 HD
BRANCH   2  10
ATOM      6  C   UNL     1      -7.857   8.395   3.662  0.00  0.00    +0.122 A 
ATOM      7  C   UNL     1      -6.692   9.117   3.883  0.00  0.00    +0.046 A 
ATOM      8  C   UNL     1      -5.496   8.683   3.344  0.00  0.00    +0.005 A 
ATOM      9  C   UNL     1      -5.455   7.530   2.585  0.00  0.00    +0.023 A 
ATOM     10  C   UNL     1      -6.617   6.803   2.361  0.00  0.00    +0.037 A 
ATOM     11  C   UNL     1      -7.821   7.241   2.897  0.00  0.00    +0.069 A 
BRANCH   6  13
ATOM     12  C   UNL     1      -8.996  10.024   4.966  0.00  0.00    +0.277 C 
ATOM     13  O   UNL     1      -9.033   8.824   4.192  0.00  0.00    -0.495 OA
ENDBRANCH   6  13
ENDBRANCH   2  10
ENDBRANCH   1   3
BRANCH   1  14
ATOM     14  N   UNL     1      -4.222   2.833   1.121  0.00  0.00    -0.305 N 
ATOM     15  C   UNL     1      -3.770   1.944   0.215  0.00  0.00    +0.200 C 
ATOM     16  O   UNL     1      -4.418   1.712  -0.783  0.00  0.00    -0.278 OA
ATOM     17  H   UNL     1      -3.703   3.018   1.920  0.00  0.00    +0.149 HD
BRANCH  15  18
ATOM     18  C   UNL     1      -2.458   1.238   0.442  0.00  0.00    +0.021 C 
ATOM     19  C   UNL     1      -1.304   2.152   0.029  0.00  0.00    +0.028 C 
ATOM     20  C   UNL     1      -0.011   1.378   0.022  0.00  0.00    -0.047 A 
ATOM     21  C   UNL     1       1.183   2.084   0.025  0.00  0.00    +0.004 A 
ATOM     22  C   UNL     1       2.389   1.413   0.008  0.00  0.00    +0.000 A 
ATOM     23  C   UNL     1       2.408   0.031  -0.011  0.00  0.00    +0.000 A 
ATOM     24  C   UNL     1       1.220  -0.672  -0.011  0.00  0.00    +0.002 A 
ATOM     25  C   UNL     1       0.007  -0.000   0.007  0.00  0.00    -0.061 A 
ATOM     26  C   UNL     1      -1.262  -0.811   0.016  0.00  0.00    -0.045 C 
ATOM     27  N   UNL     1      -2.408   0.017  -0.384  0.00  0.00    +0.389 N 
ATOM     28  H   UNL     1      -2.310   0.278  -1.372  0.00  0.00    -0.084 HD
ATOM     29  H   UNL     1      -3.276  -0.517  -0.256  0.00  0.00    -0.084 HD
ENDBRANCH  15  18
ENDBRANCH   1  14
BRANCH   1  30
ATOM     30  C   UNL     1      -6.643   2.642   1.407  0.00  0.00    +0.042 C 
BRANCH  30  31
ATOM     31  C   UNL     1      -6.719   1.367   0.565  0.00  0.00    +0.071 C 
BRANCH  31  32
ATOM     32  S   UNL     1      -8.078   0.326   1.166  0.00  0.00    -0.164 S 
ATOM     33  C   UNL     1      -8.034  -1.125   0.078  0.00  0.00    +0.084 C 
ENDBRANCH  31  32
ENDBRANCH  30  31
ENDBRANCH   1  30
TORSDOF 8
