REMARK  Name = ZINC44175612
REMARK  14 active torsions:
REMARK  status: ('A' for Active; 'I' for Inactive)
REMARK    1  A    between atoms: C_1  and  C_2
REMARK    2  A    between atoms: C_3  and  C_25
REMARK    3  A    between atoms: C_7  and  N_8
REMARK    4  A    between atoms: N_11  and  C_12
REMARK    5  A    between atoms: C_12  and  C_13
REMARK    6  A    between atoms: C_13  and  C_15
REMARK    7  A    between atoms: C_13  and  N_18
REMARK    8  A    between atoms: C_15  and  C_16
REMARK    9  A    between atoms: C_15  and  C_17
REMARK   10  A    between atoms: N_18  and  C_19
REMARK   11  A    between atoms: N_18  and  C_22
REMARK   12  A    between atoms: C_19  and  C_20
REMARK   13  A    between atoms: C_22  and  C_23
REMARK   14  A    between atoms: N_27  and  C_28
REMARK                            x       y       z     vdW  Elec       q    Type
REMARK                         _______ _______ _______ _____ _____    ______ ____
ROOT
ATOM      1  N   UNL     1      -1.615  -0.432   2.600  0.00  0.00    -0.269 N 
ATOM      2  C   UNL     1      -1.003  -0.772   3.751  0.00  0.00    +0.304 C 
ATOM      3  O   UNL     1      -0.599  -1.908   3.912  0.00  0.00    -0.253 OA
ATOM      4  N   UNL     1      -0.838   0.146   4.724  0.00  0.00    -0.301 N 
ATOM      5  H   UNL     1      -2.004   0.451   2.500  0.00  0.00    +0.156 HD
ATOM      6  H   UNL     1      -1.160   1.052   4.595  0.00  0.00    +0.150 HD
ENDROOT
BRANCH   1  13
ATOM      7  C   UNL     1      -3.690  -0.113   0.682  0.00  0.00    +0.046 C 
ATOM      8  C   UNL     1      -2.686  -1.233   0.592  0.00  0.00    -0.017 A 
ATOM      9  C   UNL     1      -2.753  -2.150  -0.458  0.00  0.00    +0.041 A 
ATOM     10  C   UNL     1      -1.819  -3.185  -0.534  0.00  0.00    +0.013 A 
ATOM     11  C   UNL     1      -0.835  -3.299   0.426  0.00  0.00    +0.003 A 
ATOM     12  C   UNL     1      -0.769  -2.390   1.466  0.00  0.00    +0.023 A 
ATOM     13  C   UNL     1      -1.690  -1.353   1.548  0.00  0.00    +0.038 A 
BRANCH   9  14
ATOM     14  C   UNL     1      -3.809  -2.025  -1.485  0.00  0.00    +0.244 C 
ATOM     15  O   UNL     1      -4.565  -1.074  -1.467  0.00  0.00    -0.270 OA
ATOM     16  N   UNL     1      -3.933  -2.967  -2.441  0.00  0.00    -0.314 N 
ATOM     17  C   UNL     1      -4.979  -2.844  -3.459  0.00  0.00    +0.128 C 
ATOM     18  H   UNL     1      -3.329  -3.726  -2.456  0.00  0.00    +0.149 HD
ENDBRANCH   9  14
ENDBRANCH   1  13
BRANCH   4  19
ATOM     19  C   UNL     1      -0.172  -0.224   5.975  0.00  0.00    +0.091 C 
BRANCH  19  20
ATOM     20  C   UNL     1       0.058   1.030   6.821  0.00  0.00    -0.048 C 
BRANCH  20  21
ATOM     21  C   UNL     1       0.540   0.624   8.215  0.00  0.00    -0.029 C 
ATOM     22  C   UNL     1      -0.517  -0.256   8.885  0.00  0.00    +0.005 C 
ATOM     23  C   UNL     1       1.851  -0.156   8.093  0.00  0.00    +0.005 C 
ENDBRANCH  20  21
BRANCH  20  24
ATOM     24  N   UNL     1       1.073   1.875   6.178  0.00  0.00    +0.387 N 
ATOM     25  H   UNL     1       1.907   1.332   6.014  0.00  0.00    -0.080 HD
BRANCH  24  26
ATOM     26  C   UNL     1       0.554   2.375   4.898  0.00  0.00    -0.051 C 
BRANCH  26  27
ATOM     27  C   UNL     1      -0.744   3.103   5.131  0.00  0.00    -0.053 C 
ATOM     28  C   UNL     1      -0.881   4.343   4.733  0.00  0.00    +0.002 C 
ENDBRANCH  26  27
ENDBRANCH  24  26
BRANCH  24  29
ATOM     29  C   UNL     1       1.392   3.010   7.054  0.00  0.00    -0.051 C 
BRANCH  29  30
ATOM     30  C   UNL     1       2.516   3.811   6.449  0.00  0.00    -0.053 C 
ATOM     31  C   UNL     1       2.362   5.093   6.229  0.00  0.00    +0.002 C 
ENDBRANCH  29  30
ENDBRANCH  24  29
ENDBRANCH  20  24
ENDBRANCH  19  20
ENDBRANCH   4  19
TORSDOF 10
