REMARK  Name = ZINC49089285
REMARK  6 active torsions:
REMARK  status: ('A' for Active; 'I' for Inactive)
REMARK    1  A    between atoms: C_1  and  N_2
REMARK    2  A    between atoms: N_10  and  C_11
REMARK    3  A    between atoms: C_14  and  C_17
REMARK    4  A    between atoms: C_24  and  C_34
REMARK    5  A    between atoms: C_25  and  C_26
REMARK    6  A    between atoms: C_30  and  O_32
REMARK                            x       y       z     vdW  Elec       q    Type
REMARK                         _______ _______ _______ _____ _____    ______ ____
ROOT
ATOM      1  C   UNL     1       8.053   1.048  -2.535  0.00  0.00    +0.076 A 
ATOM      2  C   UNL     1       8.301   1.768  -3.687  0.00  0.00    +0.048 A 
ATOM      3  C   UNL     1       9.617   2.112  -4.003  0.00  0.00    +0.115 A 
ATOM      4  N   UNL     1      10.606   1.755  -3.214  0.00  0.00    -0.236 NA
ATOM      5  C   UNL     1      10.385   1.058  -2.095  0.00  0.00    +0.164 A 
ATOM      6  N   UNL     1       9.113   0.697  -1.733  0.00  0.00    -0.213 N 
ATOM      7  N   UNL     1       9.186  -0.010  -0.528  0.00  0.00    -0.164 NA
ATOM      8  C   UNL     1      10.447  -0.086  -0.147  0.00  0.00    +0.103 A 
ATOM      9  C   UNL     1      11.245   0.566  -1.107  0.00  0.00    +0.054 A 
ENDROOT
BRANCH   9  10
ATOM     10  C   UNL     1      12.717   0.716  -1.070  0.00  0.00    -0.009 A 
ATOM     11  C   UNL     1      13.539  -0.404  -1.205  0.00  0.00    +0.012 A 
ATOM     12  C   UNL     1      14.911  -0.261  -1.171  0.00  0.00    +0.043 A 
ATOM     13  C   UNL     1      15.476   0.991  -1.002  0.00  0.00    +0.165 A 
ATOM     14  C   UNL     1      14.665   2.112  -0.866  0.00  0.00    +0.152 A 
ATOM     15  C   UNL     1      13.288   1.978  -0.906  0.00  0.00    +0.057 A 
ATOM     16  F   UNL     1      16.820   1.125  -0.969  0.00  0.00    -0.202 F 
BRANCH  14  17
ATOM     17  O   UNL     1      15.224   3.340  -0.701  0.00  0.00    -0.504 OA
ATOM     18  H   UNL     1      15.396   3.809  -1.529  0.00  0.00    +0.292 HD
ENDBRANCH  14  17
ENDBRANCH   9  10
BRANCH   1  22
ATOM     19  C   UNL     1       4.087  -0.048  -1.482  0.00  0.00    +0.030 A 
ATOM     20  C   UNL     1       4.671  -0.574  -2.630  0.00  0.00    +0.024 A 
ATOM     21  C   UNL     1       5.956  -0.221  -2.974  0.00  0.00    +0.012 A 
ATOM     22  C   UNL     1       6.675   0.668  -2.169  0.00  0.00    +0.001 A 
ATOM     23  C   UNL     1       6.085   1.195  -1.017  0.00  0.00    +0.012 A 
ATOM     24  C   UNL     1       4.797   0.841  -0.681  0.00  0.00    +0.024 A 
BRANCH  19  32
ATOM     25  C   UNL     1      -0.090   1.382  -1.028  0.00  0.00    -0.096 C 
ATOM     26  N   UNL     1      -0.058  -0.076  -1.205  0.00  0.00    +0.382 N 
ATOM     27  C   UNL     1       0.740  -0.426  -2.405  0.00  0.00    -0.056 C 
ATOM     28  C   UNL     1       1.887  -1.342  -1.876  0.00  0.00    +0.055 C 
ATOM     29  C   UNL     1       1.131  -2.060  -0.701  0.00  0.00    +0.007 C 
ATOM     30  C   UNL     1       0.635  -0.721  -0.046  0.00  0.00    -0.050 C 
ATOM     31  C   UNL     1       1.994   0.038   0.054  0.00  0.00    +0.090 C 
ATOM     32  N   UNL     1       2.786  -0.408  -1.136  0.00  0.00    -0.330 N 
ATOM     33  H   UNL     1      -0.997  -0.436  -1.294  0.00  0.00    -0.082 HD
ENDBRANCH  19  32
ENDBRANCH   1  22
BRANCH   8  34
ATOM     34  C   UNL     1      10.942  -0.756   1.080  0.00  0.00    +0.006 A 
ATOM     35  C   UNL     1      11.954  -0.180   1.854  0.00  0.00    +0.030 A 
ATOM     36  C   UNL     1      12.384  -0.836   2.988  0.00  0.00    +0.111 A 
ATOM     37  N   UNL     1      11.854  -1.991   3.345  0.00  0.00    -0.263 NA
ATOM     38  C   UNL     1      10.898  -2.568   2.643  0.00  0.00    +0.111 A 
ATOM     39  C   UNL     1      10.405  -1.978   1.498  0.00  0.00    +0.030 A 
ENDBRANCH   8  34
TORSDOF 5
