REMARK  Name = ZINC65404456
REMARK  10 active torsions:
REMARK  status: ('A' for Active; 'I' for Inactive)
REMARK    1  A    between atoms: C_1  and  O_2
REMARK    2  A    between atoms: O_2  and  C_3
REMARK    3  A    between atoms: C_3  and  C_4
REMARK    4  A    between atoms: C_4  and  N_5
REMARK    5  A    between atoms: C_9  and  C_10
REMARK    6  A    between atoms: C_10  and  C_11
REMARK    7  A    between atoms: C_11  and  N_12
REMARK    8  A    between atoms: C_21  and  C_23
REMARK    9  A    between atoms: C_23  and  C_24
REMARK   10  A    between atoms: C_24  and  N_25
REMARK                            x       y       z     vdW  Elec       q    Type
REMARK                         _______ _______ _______ _____ _____    ______ ____
ROOT
ATOM      1  N   UNL     1      -1.919  -3.593  -4.526  0.00  0.00    -0.328 N 
ATOM      2  C   UNL     1      -1.273  -4.533  -5.300  0.00  0.00    +0.130 A 
ATOM      3  C   UNL     1      -0.952  -4.266  -6.653  0.00  0.00    +0.040 A 
ATOM      4  C   UNL     1      -1.270  -3.049  -7.267  0.00  0.00    +0.013 A 
ATOM      5  C   UNL     1      -0.935  -2.849  -8.574  0.00  0.00    +0.001 A 
ATOM      6  C   UNL     1      -0.282  -3.838  -9.305  0.00  0.00    +0.002 A 
ATOM      7  C   UNL     1       0.042  -5.033  -8.736  0.00  0.00    +0.028 A 
ATOM      8  C   UNL     1      -0.287  -5.273  -7.394  0.00  0.00    +0.076 A 
ATOM      9  N   UNL     1       0.009  -6.431  -6.786  0.00  0.00    -0.232 NA
ATOM     10  C   UNL     1      -0.312  -6.623  -5.529  0.00  0.00    +0.130 A 
ATOM     11  N   UNL     1      -0.929  -5.710  -4.795  0.00  0.00    -0.217 NA
ATOM     12  H   UNL     1      -2.165  -2.736  -4.909  0.00  0.00    +0.147 HD
ENDROOT
BRANCH   1  13
ATOM     13  C   UNL     1      -2.236  -3.888  -3.127  0.00  0.00    +0.110 C 
BRANCH  13  14
ATOM     14  C   UNL     1      -2.948  -2.687  -2.501  0.00  0.00    +0.095 C 
BRANCH  14  19
ATOM     15  N   UNL     1      -2.484  -2.740   0.011  0.00  0.00    -0.315 N 
ATOM     16  C   UNL     1      -3.176  -3.168   1.094  0.00  0.00    +0.225 A 
ATOM     17  N   UNL     1      -4.312  -3.648   0.664  0.00  0.00    -0.138 NA
ATOM     18  N   UNL     1      -4.368  -3.546  -0.616  0.00  0.00    -0.135 NA
ATOM     19  C   UNL     1      -3.274  -2.991  -1.061  0.00  0.00    +0.135 A 
BRANCH  15  20
ATOM     20  C   UNL     1      -1.154  -2.126   0.002  0.00  0.00    +0.152 C 
BRANCH  20  21
ATOM     21  C   UNL     1      -1.295  -0.603   0.011  0.00  0.00    +0.181 C 
BRANCH  21  23
ATOM     22  C   UNL     1      -0.017   1.425   0.010  0.00  0.00    +0.194 C 
ATOM     23  O   UNL     1       0.002  -0.004   0.002  0.00  0.00    -0.381 OA
ENDBRANCH  21  23
ENDBRANCH  20  21
ENDBRANCH  15  20
ENDBRANCH  14  19
ENDBRANCH  13  14
ENDBRANCH   1  13
BRANCH  10  24
ATOM     24  C   UNL     1       0.041  -7.941  -4.889  0.00  0.00    +0.057 C 
BRANCH  24  25
ATOM     25  C   UNL     1       1.435  -7.847  -4.264  0.00  0.00    -0.079 C 
BRANCH  25  26
ATOM     26  N   UNL     1       1.780  -9.132  -3.641  0.00  0.00    +0.378 N 
ATOM     27  H   UNL     1       2.698  -9.070  -3.229  0.00  0.00    -0.090 HD
ATOM     28  H   UNL     1       1.103  -9.350  -2.925  0.00  0.00    -0.090 HD
ATOM     29  H   UNL     1       1.773  -9.858  -4.342  0.00  0.00    -0.090 HD
ENDBRANCH  25  26
ENDBRANCH  24  25
ENDBRANCH  10  24
TORSDOF 9
