REMARK  Name = ZINC03257269
REMARK  12 active torsions:
REMARK  status: ('A' for Active; 'I' for Inactive)
REMARK    1  A    between atoms: C_1  and  C_2
REMARK    2  A    between atoms: C_2  and  N_3
REMARK    3  A    between atoms: C_5  and  C_15
REMARK    4  A    between atoms: C_11  and  C_14
REMARK    5  A    between atoms: C_15  and  O_17
REMARK    6  A    between atoms: O_17  and  C_18
REMARK    7  A    between atoms: C_18  and  C_20
REMARK    8  A    between atoms: C_18  and  C_21
REMARK    9  A    between atoms: N_23  and  C_24
REMARK   10  A    between atoms: C_25  and  C_37
REMARK   11  A    between atoms: N_26  and  C_36
REMARK   12  A    between atoms: N_27  and  C_30
REMARK                            x       y       z     vdW  Elec       q    Type
REMARK                         _______ _______ _______ _____ _____    ______ ____
ROOT
ATOM      1  C   UNL     1      -0.683  -2.364  -6.658  0.00  0.00    +0.259 C 
ATOM      2  C   UNL     1      -0.504  -0.977  -7.278  0.00  0.00    +0.062 C 
ENDROOT
BRANCH   1   3
ATOM      3  C   UNL     1      -0.163  -3.411  -7.610  0.00  0.00    +0.258 C 
ATOM      4  O   UNL     1       0.741  -4.145  -7.269  0.00  0.00    -0.271 OA
ATOM      5  N   UNL     1      -0.701  -3.532  -8.839  0.00  0.00    -0.277 N 
ATOM      6  H   UNL     1      -1.471  -2.996  -9.086  0.00  0.00    +0.155 HD
BRANCH   5   7
ATOM      7  C   UNL     1      -0.146  -4.436  -9.766  0.00  0.00    +0.121 A 
ATOM      8  C   UNL     1      -0.789  -5.458 -10.374  0.00  0.00    +0.059 A 
ATOM      9  N   UNL     1       0.094  -6.100 -11.201  0.00  0.00    -0.282 N 
ATOM     10  N   UNL     1       1.341  -5.471 -11.119  0.00  0.00    -0.216 N 
ATOM     11  C   UNL     1       1.234  -4.441 -10.254  0.00  0.00    +0.293 A 
ATOM     12  O   UNL     1       2.118  -3.665  -9.937  0.00  0.00    -0.264 OA
ATOM     13  C   UNL     1      -0.218  -7.262 -12.038  0.00  0.00    +0.171 C 
ATOM     14  C   UNL     1      -2.236  -5.828 -10.175  0.00  0.00    +0.067 C 
BRANCH  10  15
ATOM     15  C   UNL     1       2.495  -5.840 -11.817  0.00  0.00    +0.067 A 
ATOM     16  C   UNL     1       3.696  -6.002 -11.139  0.00  0.00    +0.028 A 
ATOM     17  C   UNL     1       4.834  -6.367 -11.831  0.00  0.00    +0.002 A 
ATOM     18  C   UNL     1       4.778  -6.572 -13.198  0.00  0.00    +0.000 A 
ATOM     19  C   UNL     1       3.584  -6.413 -13.876  0.00  0.00    +0.002 A 
ATOM     20  C   UNL     1       2.441  -6.053 -13.189  0.00  0.00    +0.028 A 
ENDBRANCH  10  15
ENDBRANCH   5   7
ENDBRANCH   1   3
BRANCH   1  21
ATOM     21  O   UNL     1       0.043  -2.434  -5.429  0.00  0.00    -0.449 OA
BRANCH  21  22
ATOM     22  C   UNL     1      -0.615  -2.074  -4.309  0.00  0.00    +0.345 C 
ATOM     23  O   UNL     1      -1.772  -1.710  -4.374  0.00  0.00    -0.245 OA
BRANCH  22  26
ATOM     24  N   UNL     1      -0.001  -1.785  -0.651  0.00  0.00    -0.331 N 
ATOM     25  C   UNL     1      -0.591  -1.754  -1.854  0.00  0.00    +0.106 A 
ATOM     26  C   UNL     1       0.069  -2.120  -3.009  0.00  0.00    +0.122 A 
ATOM     27  C   UNL     1       1.471  -2.560  -2.914  0.00  0.00    +0.205 A 
ATOM     28  O   UNL     1       2.101  -2.894  -3.902  0.00  0.00    -0.286 OA
ATOM     29  C   UNL     1       2.080  -2.578  -1.572  0.00  0.00    +0.065 A 
ATOM     30  C   UNL     1       1.305  -2.176  -0.469  0.00  0.00    +0.145 A 
ATOM     31  N   UNL     1       1.840  -2.182   0.746  0.00  0.00    -0.234 NA
ATOM     32  C   UNL     1       3.087  -2.551   0.951  0.00  0.00    +0.041 A 
ATOM     33  C   UNL     1       3.907  -2.954  -0.091  0.00  0.00    +0.024 A 
ATOM     34  C   UNL     1       3.403  -2.979  -1.379  0.00  0.00    +0.017 A 
ATOM     35  C   UNL     1       3.636  -2.536   2.355  0.00  0.00    +0.065 C 
BRANCH  24  37
ATOM     36  C   UNL     1      -0.618   0.126   0.744  0.00  0.00    +0.027 C 
ATOM     37  C   UNL     1      -0.780  -1.378   0.521  0.00  0.00    +0.120 C 
ENDBRANCH  24  37
ENDBRANCH  22  26
ENDBRANCH  21  22
ENDBRANCH   1  21
TORSDOF 7
