REMARK  Name = ZINC09867616
REMARK  5 active torsions:
REMARK  status: ('A' for Active; 'I' for Inactive)
REMARK    1  A    between atoms: C_3  and  S_13
REMARK    2  A    between atoms: C_6  and  C_7
REMARK    3  A    between atoms: S_13  and  N_16
REMARK    4  A    between atoms: C_21  and  N_22
REMARK    5  A    between atoms: C_21  and  N_70
REMARK                            x       y       z     vdW  Elec       q    Type
REMARK                         _______ _______ _______ _____ _____    ______ ____
ROOT
ATOM      1  N   UNL     1       3.125   0.692  -1.605  0.00  0.00    -0.180 NA
ATOM      2  C   UNL     1       2.702  -0.518  -2.327  0.00  0.00    +0.091 C 
ATOM      3  C   UNL     1       2.031  -0.086  -3.640  0.00  0.00    -0.059 C 
ATOM      4  C   UNL     1       3.215   2.031  -3.641  0.00  0.00    -0.059 C 
ATOM      5  C   UNL     1       3.929   1.688  -2.329  0.00  0.00    +0.091 C 
ATOM      6  N   UNL     1       2.970   0.779  -4.389  0.00  0.00    +0.392 N 
ATOM      7  H   UNL     1       3.860   0.281  -4.505  0.00  0.00    -0.079 HD
ENDROOT
BRANCH   1   8
ATOM      8  S   UNL     1       2.713   0.923  -0.018  0.00  0.00    +0.061 S 
ATOM      9  O   UNL     1       3.680   1.809   0.528  0.00  0.00    -0.153 OA
ATOM     10  O   UNL     1       2.464  -0.365   0.528  0.00  0.00    -0.153 OA
BRANCH   8  13
ATOM     11  C   UNL     1      -1.219   1.751   0.017  0.00  0.00    +0.006 A 
ATOM     12  C   UNL     1      -0.013   1.076   0.008  0.00  0.00    +0.029 A 
ATOM     13  C   UNL     1       1.175   1.783   0.000  0.00  0.00    +0.105 A 
ATOM     14  C   UNL     1       1.156   3.165   0.008  0.00  0.00    +0.029 A 
ATOM     15  C   UNL     1      -0.050   3.840   0.022  0.00  0.00    +0.006 A 
ATOM     16  C   UNL     1      -1.238   3.133   0.029  0.00  0.00    -0.044 A 
BRANCH  16  17
ATOM     17  C   UNL     1      -2.553   3.869   0.044  0.00  0.00    +0.019 C 
ATOM     18  C   UNL     1      -3.339   3.482   1.298  0.00  0.00    +0.008 C 
ATOM     19  C   UNL     1      -4.675   4.229   1.313  0.00  0.00    +0.001 C 
ATOM     20  C   UNL     1      -5.482   3.854   0.069  0.00  0.00    +0.000 C 
ATOM     21  C   UNL     1      -4.696   4.241  -1.185  0.00  0.00    +0.001 C 
ATOM     22  C   UNL     1      -3.361   3.494  -1.200  0.00  0.00    +0.008 C 
ENDBRANCH  16  17
ENDBRANCH   8  13
ENDBRANCH   1   8
BRANCH   6  23
ATOM     23  C   UNL     1       2.415   1.089  -5.723  0.00  0.00    +0.043 C 
BRANCH  23  24
ATOM     24  N   UNL     1       1.621  -0.048  -6.196  0.00  0.00    -0.241 N 
ATOM     25  C   UNL     1       0.296  -0.189  -5.982  0.00  0.00    +0.245 C 
ATOM     26  O   UNL     1      -0.435   0.572  -5.385  0.00  0.00    -0.273 OA
ATOM     27  C   UNL     1      -0.083  -1.493  -6.644  0.00  0.00    +0.112 C 
ATOM     28  C   UNL     1      -1.104  -1.251  -7.750  0.00  0.00    +0.035 C 
ATOM     29  C   UNL     1      -1.454  -2.579  -8.425  0.00  0.00    +0.003 C 
ATOM     30  C   UNL     1      -2.025  -3.545  -7.385  0.00  0.00    +0.000 C 
ATOM     31  C   UNL     1      -0.981  -3.797  -6.295  0.00  0.00    +0.003 C 
ATOM     32  C   UNL     1      -0.629  -2.474  -5.611  0.00  0.00    +0.035 C 
ATOM     33  N   UNL     1       1.179  -1.988  -7.207  0.00  0.00    -0.285 N 
ATOM     34  C   UNL     1       2.118  -1.073  -6.899  0.00  0.00    +0.308 C 
ATOM     35  O   UNL     1       3.286  -1.168  -7.221  0.00  0.00    -0.252 OA
ATOM     36  H   UNL     1       1.310  -2.809  -7.706  0.00  0.00    +0.151 HD
ENDBRANCH  23  24
ENDBRANCH   6  23
TORSDOF 5
