REMARK  Name = ZINC59170555
REMARK  6 active torsions:
REMARK  status: ('A' for Active; 'I' for Inactive)
REMARK    1  A    between atoms: C_1  and  C_2
REMARK    2  A    between atoms: C_5  and  S_8
REMARK    3  A    between atoms: S_8  and  N_11
REMARK    4  A    between atoms: N_11  and  N_12
REMARK    5  A    between atoms: C_14  and  C_24
REMARK    6  A    between atoms: N_26  and  C_27
REMARK                            x       y       z     vdW  Elec       q    Type
REMARK                         _______ _______ _______ _____ _____    ______ ____
ROOT
ATOM      1  N   UNL     1       2.974  -5.282   1.254  0.00  0.00    -0.260 N 
ATOM      2  C   UNL     1       4.239  -5.484   1.015  0.00  0.00    +0.225 A 
ATOM      3  C   UNL     1       4.695  -6.021  -0.288  0.00  0.00    +0.099 A 
ATOM      4  C   UNL     1       5.969  -5.699  -0.690  0.00  0.00    +0.030 A 
ATOM      5  C   UNL     1       6.770  -4.852   0.203  0.00  0.00    +0.020 A 
ATOM      6  C   UNL     1       7.958  -4.266  -0.246  0.00  0.00    +0.031 A 
ATOM      7  C   UNL     1       8.692  -3.472   0.611  0.00  0.00    +0.042 A 
ATOM      8  C   UNL     1       8.258  -3.254   1.910  0.00  0.00    +0.023 A 
ATOM      9  C   UNL     1       7.086  -3.829   2.365  0.00  0.00    +0.048 A 
ATOM     10  C   UNL     1       6.336  -4.631   1.522  0.00  0.00    +0.138 A 
ATOM     11  O   UNL     1       5.187  -5.202   1.956  0.00  0.00    -0.437 OA
ATOM     12 CL   UNL     1      10.168  -2.742   0.059  0.00  0.00    -0.084 Cl
ATOM     13  H   UNL     1       2.676  -5.089   2.156  0.00  0.00    +0.189 HD
ENDROOT
BRANCH   3  14
ATOM     14  C   UNL     1       3.819  -6.864  -1.119  0.00  0.00    +0.253 C 
ATOM     15  O   UNL     1       3.646  -8.032  -0.827  0.00  0.00    -0.270 OA
ATOM     16  N   UNL     1       3.210  -6.342  -2.201  0.00  0.00    -0.281 N 
ATOM     17  H   UNL     1       3.287  -5.394  -2.391  0.00  0.00    +0.155 HD
BRANCH  16  18
ATOM     18  C   UNL     1       2.466  -7.167  -3.051  0.00  0.00    +0.035 A 
ATOM     19  C   UNL     1       1.834  -8.296  -2.546  0.00  0.00    +0.023 A 
ATOM     20  C   UNL     1       1.100  -9.109  -3.388  0.00  0.00    +0.003 A 
ATOM     21  C   UNL     1       0.994  -8.800  -4.731  0.00  0.00    +0.020 A 
ATOM     22  C   UNL     1       1.622  -7.676  -5.238  0.00  0.00    +0.043 A 
ATOM     23  C   UNL     1       2.354  -6.855  -4.399  0.00  0.00    +0.043 A 
ATOM     24 CL   UNL     1       1.486  -7.292  -6.925  0.00  0.00    -0.083 Cl
ENDBRANCH  16  18
ENDBRANCH   3  14
BRANCH   1  25
ATOM     25  N   UNL     1       2.046  -5.344   0.207  0.00  0.00    -0.157 N 
ATOM     26  H   UNL     1       2.351  -5.330  -0.714  0.00  0.00    +0.194 HD
BRANCH  25  27
ATOM     27  S   UNL     1       0.426  -5.440   0.541  0.00  0.00    +0.085 S 
ATOM     28  O   UNL     1       0.257  -6.547   1.415  0.00  0.00    -0.149 OA
ATOM     29  O   UNL     1      -0.252  -5.341  -0.704  0.00  0.00    -0.149 OA
BRANCH  27  34
ATOM     30  C   UNL     1      -1.043  -0.512   3.697  0.00  0.00    +0.044 C 
ATOM     31  C   UNL     1      -0.675  -1.742   2.909  0.00  0.00    -0.050 A 
ATOM     32  C   UNL     1      -0.751  -1.727   1.528  0.00  0.00    +0.005 A 
ATOM     33  C   UNL     1      -0.414  -2.856   0.805  0.00  0.00    +0.029 A 
ATOM     34  C   UNL     1      -0.002  -4.000   1.462  0.00  0.00    +0.110 A 
ATOM     35  C   UNL     1       0.074  -4.015   2.842  0.00  0.00    +0.029 A 
ATOM     36  C   UNL     1      -0.258  -2.885   3.565  0.00  0.00    +0.005 A 
ENDBRANCH  27  34
ENDBRANCH  25  27
ENDBRANCH   1  25
TORSDOF 5
