REMARK  Name = ZINC58896767
REMARK  15 active torsions:
REMARK  status: ('A' for Active; 'I' for Inactive)
REMARK    1  A    between atoms: C_1  and  C_2
REMARK    2  A    between atoms: C_2  and  N_3
REMARK    3  A    between atoms: N_3  and  C_4
REMARK    4  A    between atoms: N_3  and  C_6
REMARK    5  A    between atoms: C_4  and  C_5
REMARK    6  A    between atoms: C_6  and  C_8
REMARK    7  A    between atoms: C_6  and  C_12
REMARK    8  A    between atoms: C_8  and  C_9
REMARK    9  A    between atoms: C_9  and  C_10
REMARK   10  A    between atoms: C_9  and  C_11
REMARK   11  A    between atoms: C_12  and  N_13
REMARK   12  A    between atoms: N_16  and  C_17
REMARK   13  A    between atoms: C_22  and  S_23
REMARK   14  A    between atoms: S_23  and  C_24
REMARK   15  A    between atoms: C_24  and  C_25
REMARK                            x       y       z     vdW  Elec       q    Type
REMARK                         _______ _______ _______ _____ _____    ______ ____
ROOT
ATOM      1  N   UNL     1       2.269  -2.459   2.119  0.00  0.00    -0.301 N 
ATOM      2  C   UNL     1       2.500  -3.309   3.140  0.00  0.00    +0.304 C 
ATOM      3  O   UNL     1       3.060  -2.915   4.144  0.00  0.00    -0.253 OA
ATOM      4  N   UNL     1       2.109  -4.596   3.047  0.00  0.00    -0.268 N 
ATOM      5  H   UNL     1       1.822  -2.773   1.318  0.00  0.00    +0.150 HD
ATOM      6  H   UNL     1       1.738  -4.931   2.215  0.00  0.00    +0.156 HD
ENDROOT
BRANCH   4   7
ATOM      7  C   UNL     1       2.239  -5.449   4.151  0.00  0.00    +0.048 A 
ATOM      8  C   UNL     1       2.285  -4.925   5.434  0.00  0.00    +0.024 A 
ATOM      9  C   UNL     1       2.414  -5.768   6.521  0.00  0.00    +0.002 A 
ATOM     10  C   UNL     1       2.496  -7.136   6.335  0.00  0.00    +0.001 A 
ATOM     11  C   UNL     1       2.450  -7.668   5.061  0.00  0.00    +0.016 A 
ATOM     12  C   UNL     1       2.315  -6.829   3.963  0.00  0.00    +0.030 A 
BRANCH  12  13
ATOM     13  S   UNL     1       2.248  -7.505   2.338  0.00  0.00    -0.114 S 
BRANCH  13  14
ATOM     14  C   UNL     1       2.382  -9.295   2.600  0.00  0.00    +0.169 C 
BRANCH  14  15
ATOM     15  C   UNL     1       2.337 -10.003   1.271  0.00  0.00    +0.221 C 
ATOM     16  O   UNL     1       2.227  -9.363   0.246  0.00  0.00    -0.275 OA
ATOM     17  N   UNL     1       2.421 -11.347   1.220  0.00  0.00    -0.329 N 
ATOM     18  H   UNL     1       2.510 -11.859   2.039  0.00  0.00    +0.145 HD
ATOM     19  H   UNL     1       2.392 -11.803   0.364  0.00  0.00    +0.145 HD
ENDBRANCH  14  15
ENDBRANCH  13  14
ENDBRANCH  12  13
ENDBRANCH   4   7
BRANCH   1  20
ATOM     20  C   UNL     1       2.694  -1.061   2.221  0.00  0.00    +0.090 C 
BRANCH  20  21
ATOM     21  C   UNL     1       2.201  -0.288   0.996  0.00  0.00    -0.051 C 
BRANCH  21  22
ATOM     22  N   UNL     1       0.751  -0.476   0.849  0.00  0.00    +0.382 N 
ATOM     23  H   UNL     1       0.545  -1.462   0.785  0.00  0.00    -0.081 HD
BRANCH  22  25
ATOM     24  C   UNL     1      -0.109  -0.987   3.084  0.00  0.00    -0.017 C 
ATOM     25  C   UNL     1       0.062   0.094   2.014  0.00  0.00    -0.082 C 
ENDBRANCH  22  25
BRANCH  22  26
ATOM     26  C   UNL     1       0.291   0.200  -0.371  0.00  0.00    -0.082 C 
ATOM     27  C   UNL     1       0.930  -0.462  -1.594  0.00  0.00    -0.017 C 
ENDBRANCH  22  26
ENDBRANCH  21  22
BRANCH  21  28
ATOM     28  C   UNL     1       2.506   1.200   1.175  0.00  0.00    -0.011 C 
BRANCH  28  29
ATOM     29  C   UNL     1       4.021   1.409   1.215  0.00  0.00    -0.019 C 
ATOM     30  C   UNL     1       4.627   1.007  -0.131  0.00  0.00    +0.007 C 
ATOM     31  C   UNL     1       4.326   2.883   1.492  0.00  0.00    +0.007 C 
ENDBRANCH  28  29
ENDBRANCH  21  28
ENDBRANCH  20  21
ENDBRANCH   1  20
TORSDOF 11
