REMARK  Name = ZINC39934695
REMARK  9 active torsions:
REMARK  status: ('A' for Active; 'I' for Inactive)
REMARK    1  A    between atoms: C_4  and  C_7
REMARK    2  A    between atoms: C_7  and  C_9
REMARK    3  A    between atoms: C_14  and  N_15
REMARK    4  A    between atoms: C_16  and  C_18
REMARK    5  A    between atoms: C_18  and  O_19
REMARK    6  A    between atoms: O_19  and  C_20
REMARK    7  A    between atoms: C_23  and  C_26
REMARK    8  A    between atoms: C_27  and  C_28
REMARK    9  A    between atoms: C_27  and  C_30
REMARK                            x       y       z     vdW  Elec       q    Type
REMARK                         _______ _______ _______ _____ _____    ______ ____
ROOT
ATOM      1  C   UNL     1      11.071  -2.041  -0.151  0.00  0.00    +0.121 A 
ATOM      2  C   UNL     1      11.193  -0.659  -0.074  0.00  0.00    +0.046 A 
ATOM      3  C   UNL     1      12.440  -0.074  -0.068  0.00  0.00    +0.011 A 
ATOM      4  C   UNL     1      13.585  -0.875  -0.138  0.00  0.00    -0.024 A 
ATOM      5  C   UNL     1      13.457  -2.266  -0.215  0.00  0.00    +0.011 A 
ATOM      6  C   UNL     1      12.206  -2.841  -0.216  0.00  0.00    +0.046 A 
ENDROOT
BRANCH   4   7
ATOM      7  C   UNL     1      14.919  -0.256  -0.132  0.00  0.00    +0.026 C 
ATOM      8  C   UNL     1      15.139   0.867   0.582  0.00  0.00    +0.072 C 
BRANCH   8   9
ATOM      9  C   UNL     1      16.464   1.578   0.481  0.00  0.00    +0.216 C 
ATOM     10  N   UNL     1      17.075   1.698   1.810  0.00  0.00    -0.359 N 
ATOM     11  C   UNL     1      17.213   2.967   2.063  0.00  0.00    +0.060 A 
ATOM     12  C   UNL     1      17.754   3.703   3.215  0.00  0.00    +0.027 A 
ATOM     13  C   UNL     1      17.769   5.051   3.195  0.00  0.00    +0.002 A 
ATOM     14  C   UNL     1      17.284   5.799   2.107  0.00  0.00    +0.002 A 
ATOM     15  C   UNL     1      16.767   5.224   1.003  0.00  0.00    +0.027 A 
ATOM     16  C   UNL     1      16.701   3.759   0.912  0.00  0.00    +0.060 A 
ATOM     17  N   UNL     1      16.265   2.948  -0.009  0.00  0.00    -0.359 N 
ATOM     18  H   UNL     1      17.328   0.966   2.394  0.00  0.00    +0.162 HD
ATOM     19  H   UNL     1      15.879   3.203  -0.862  0.00  0.00    +0.162 HD
ENDBRANCH   8   9
BRANCH   8  20
ATOM     20  C   UNL     1      14.113   1.384   1.437  0.00  0.00    +0.099 C 
ATOM     21  N   UNL     1      13.299   1.794   2.115  0.00  0.00    -0.191 NA
ENDBRANCH   8  20
ENDBRANCH   4   7
BRANCH   1  22
ATOM     22  O   UNL     1       9.839  -2.612  -0.157  0.00  0.00    -0.483 OA
BRANCH  22  23
ATOM     23  C   UNL     1       8.716  -1.732  -0.087  0.00  0.00    +0.324 C 
BRANCH  23  25
ATOM     24  N   UNL     1       6.250  -1.917  -0.048  0.00  0.00    -0.282 N 
ATOM     25  C   UNL     1       7.444  -2.540  -0.105  0.00  0.00    +0.255 C 
ATOM     26  O   UNL     1       7.494  -3.750  -0.170  0.00  0.00    -0.272 OA
ATOM     27  H   UNL     1       6.209  -0.959   0.094  0.00  0.00    +0.155 HD
BRANCH  24  33
ATOM     28  C   UNL     1       3.874  -2.176   0.360  0.00  0.00    +0.043 A 
ATOM     29  C   UNL     1       2.701  -2.920   0.202  0.00  0.00    +0.013 A 
ATOM     30  C   UNL     1       2.730  -4.112  -0.488  0.00  0.00    +0.001 A 
ATOM     31  C   UNL     1       3.918  -4.579  -1.028  0.00  0.00    +0.002 A 
ATOM     32  C   UNL     1       5.085  -3.857  -0.880  0.00  0.00    +0.024 A 
ATOM     33  C   UNL     1       5.075  -2.650  -0.193  0.00  0.00    +0.044 A 
BRANCH  28  34
ATOM     34  C   UNL     1       3.850  -0.900   1.097  0.00  0.00    +0.195 C 
ATOM     35  O   UNL     1       3.316   0.075   0.606  0.00  0.00    -0.287 OA
BRANCH  34  39
ATOM     36  C   UNL     1       5.648  -0.630   4.936  0.00  0.00    +0.000 A 
ATOM     37  C   UNL     1       5.136   0.506   4.334  0.00  0.00    +0.001 A 
ATOM     38  C   UNL     1       4.551   0.425   3.087  0.00  0.00    +0.012 A 
ATOM     39  C   UNL     1       4.476  -0.806   2.432  0.00  0.00    +0.022 A 
ATOM     40  C   UNL     1       4.996  -1.948   3.046  0.00  0.00    +0.012 A 
ATOM     41  C   UNL     1       5.578  -1.853   4.293  0.00  0.00    +0.001 A 
ENDBRANCH  34  39
ENDBRANCH  28  34
ENDBRANCH  24  33
ENDBRANCH  23  25
ENDBRANCH  22  23
ENDBRANCH   1  22
TORSDOF 9
