REMARK  Name = ZINC36638207
REMARK  10 active torsions:
REMARK  status: ('A' for Active; 'I' for Inactive)
REMARK    1  A    between atoms: C_1  and  C_2
REMARK    2  A    between atoms: C_2  and  N_3
REMARK    3  A    between atoms: N_3  and  C_4
REMARK    4  A    between atoms: N_3  and  C_6
REMARK    5  A    between atoms: C_4  and  C_5
REMARK    6  A    between atoms: C_6  and  C_7
REMARK    7  A    between atoms: C_7  and  N_8
REMARK    8  A    between atoms: C_12  and  C_19
REMARK    9  A    between atoms: C_13  and  C_18
REMARK   10  A    between atoms: C_20  and  C_22
REMARK                            x       y       z     vdW  Elec       q    Type
REMARK                         _______ _______ _______ _____ _____    ______ ____
ROOT
ATOM      1  N   UNL     1       2.357  -3.643  -0.275  0.00  0.00    -0.248 N 
ATOM      2  C   UNL     1       1.553  -4.502  -1.004  0.00  0.00    +0.168 A 
ATOM      3  N   UNL     1       1.701  -5.789  -1.216  0.00  0.00    -0.224 NA
ATOM      4  C   UNL     1       0.830  -6.508  -1.956  0.00  0.00    +0.083 A 
ATOM      5  C   UNL     1       0.873  -7.889  -2.259  0.00  0.00    -0.021 A 
ATOM      6  C   UNL     1      -0.100  -8.467  -3.031  0.00  0.00    -0.045 A 
ATOM      7  C   UNL     1      -1.156  -7.726  -3.541  0.00  0.00    +0.005 A 
ATOM      8  C   UNL     1      -1.230  -6.373  -3.265  0.00  0.00    +0.017 A 
ATOM      9  C   UNL     1      -0.261  -5.786  -2.492  0.00  0.00    +0.041 A 
ATOM     10  S   UNL     1       0.044  -4.141  -1.892  0.00  0.00    -0.052 S 
ATOM     11  C   UNL     1      -0.021  -9.941  -3.333  0.00  0.00    +0.044 C 
ATOM     12  C   UNL     1       2.002  -8.733  -1.727  0.00  0.00    +0.046 C 
ATOM     13  C   UNL     1       3.467  -4.111   0.329  0.00  0.00    +0.259 C 
ATOM     14  O   UNL     1       3.814  -5.264   0.157  0.00  0.00    -0.269 OA
ENDROOT
BRANCH  13  15
ATOM     15  C   UNL     1       4.260  -3.227   1.197  0.00  0.00    +0.122 A 
ATOM     16  C   UNL     1       5.072  -2.224   0.667  0.00  0.00    +0.032 A 
ATOM     17  C   UNL     1       5.823  -1.439   1.563  0.00  0.00    +0.026 A 
ATOM     18  C   UNL     1       6.523  -0.237   1.103  0.00  0.00    -0.007 A 
ATOM     19  C   UNL     1       6.489   0.164  -0.235  0.00  0.00    +0.009 A 
ATOM     20  C   UNL     1       7.155   1.291  -0.619  0.00  0.00    +0.001 A 
ATOM     21  C   UNL     1       7.869   2.048   0.305  0.00  0.00    +0.001 A 
ATOM     22  C   UNL     1       7.922   1.684   1.617  0.00  0.00    +0.008 A 
ATOM     23  C   UNL     1       7.247   0.530   2.046  0.00  0.00    -0.017 A 
ATOM     24  C   UNL     1       7.279   0.124   3.395  0.00  0.00    +0.012 A 
ATOM     25  C   UNL     1       6.634  -0.997   3.806  0.00  0.00    +0.047 A 
ATOM     26  C   UNL     1       5.910  -1.796   2.917  0.00  0.00    +0.140 A 
ATOM     27  O   UNL     1       5.310  -2.929   3.355  0.00  0.00    -0.422 OA
ATOM     28  C   UNL     1       4.227  -3.357   2.663  0.00  0.00    +0.350 A 
ATOM     29  O   UNL     1       3.263  -3.836   3.232  0.00  0.00    -0.244 OA
ENDBRANCH  13  15
BRANCH   1  30
ATOM     30  C   UNL     1       2.001  -2.227  -0.159  0.00  0.00    +0.097 C 
BRANCH  30  31
ATOM     31  C   UNL     1       1.202  -2.005   1.127  0.00  0.00    -0.059 C 
BRANCH  31  32
ATOM     32  N   UNL     1       0.846  -0.585   1.243  0.00  0.00    +0.380 N 
ATOM     33  H   UNL     1       1.681  -0.023   1.186  0.00  0.00    -0.082 HD
BRANCH  32  35
ATOM     34  C   UNL     1      -0.328   1.288   0.190  0.00  0.00    -0.017 C 
ATOM     35  C   UNL     1      -0.066  -0.219   0.151  0.00  0.00    -0.082 C 
ENDBRANCH  32  35
BRANCH  32  36
ATOM     36  C   UNL     1       0.184  -0.350   2.533  0.00  0.00    -0.082 C 
ATOM     37  C   UNL     1       1.179  -0.597   3.669  0.00  0.00    -0.017 C 
ENDBRANCH  32  36
ENDBRANCH  31  32
ENDBRANCH  30  31
ENDBRANCH   1  30
TORSDOF 6
