REMARK  Name = ZINC07340561
REMARK  4 active torsions:
REMARK  status: ('A' for Active; 'I' for Inactive)
REMARK    1  A    between atoms: C_1  and  C_2
REMARK    2  A    between atoms: C_8  and  C_9
REMARK    3  A    between atoms: C_8  and  N_49
REMARK    4  A    between atoms: N_11  and  N_12
REMARK                            x       y       z     vdW  Elec       q    Type
REMARK                         _______ _______ _______ _____ _____    ______ ____
ROOT
ATOM      1  C   UNL     1       1.313   5.864  -2.413  0.00  0.00    +0.213 C 
ATOM      2  O   UNL     1       0.320   5.296  -2.817  0.00  0.00    -0.276 OA
ATOM      3  N   UNL     1       2.034   5.327  -1.408  0.00  0.00    -0.225 N 
ATOM      4  H   UNL     1       2.828   5.781  -1.085  0.00  0.00    +0.173 HD
ENDROOT
BRANCH   3   5
ATOM      5  N   UNL     1       1.636   4.114  -0.831  0.00  0.00    -0.137 N 
ATOM      6  C   UNL     1       1.048   4.007   0.378  0.00  0.00    +0.263 C 
ATOM      7  O   UNL     1       0.773   4.906   1.143  0.00  0.00    -0.271 OA
ATOM      8  C   UNL     1       0.804   2.529   0.578  0.00  0.00    +0.114 C 
ATOM      9  C   UNL     1      -0.688   2.250   0.722  0.00  0.00    +0.035 C 
ATOM     10  C   UNL     1      -0.913   0.745   0.888  0.00  0.00    +0.003 C 
ATOM     11  C   UNL     1      -0.164   0.252   2.127  0.00  0.00    +0.000 C 
ATOM     12  C   UNL     1       1.333   0.519   1.960  0.00  0.00    +0.003 C 
ATOM     13  C   UNL     1       1.567   2.023   1.798  0.00  0.00    +0.035 C 
ATOM     14  N   UNL     1       1.327   1.912  -0.647  0.00  0.00    -0.284 N 
ATOM     15  C   UNL     1       1.793   2.918  -1.411  0.00  0.00    +0.326 C 
ATOM     16  O   UNL     1       2.299   2.758  -2.505  0.00  0.00    -0.251 OA
ATOM     17  H   UNL     1       1.336   0.966  -0.864  0.00  0.00    +0.151 HD
ENDBRANCH   3   5
BRANCH   1  18
ATOM     18  C   UNL     1       1.740   7.169  -3.034  0.00  0.00    +0.020 C 
BRANCH  18  25
ATOM     19  C   UNL     1       0.343   5.728  -7.524  0.00  0.00    +0.005 C 
ATOM     20  C   UNL     1       0.102   6.732  -6.396  0.00  0.00    -0.031 C 
ATOM     21  C   UNL     1       0.284   8.155  -6.931  0.00  0.00    -0.001 C 
ATOM     22  C   UNL     1       0.099   9.151  -5.782  0.00  0.00    -0.018 C 
ATOM     23  C   UNL     1       1.103   8.834  -4.672  0.00  0.00    -0.078 C 
ATOM     24  C   UNL     1       1.105   6.484  -5.267  0.00  0.00    -0.075 C 
ATOM     25  N   UNL     1       0.859   7.460  -4.184  0.00  0.00    +0.386 N 
ATOM     26  H   UNL     1      -0.119   7.382  -3.882  0.00  0.00    -0.081 HD
ENDBRANCH  18  25
ENDBRANCH   1  18
TORSDOF 3
