REMARK  Name = ZINC37952072
REMARK  6 active torsions:
REMARK  status: ('A' for Active; 'I' for Inactive)
REMARK    1  A    between atoms: C_3  and  C_6
REMARK    2  A    between atoms: C_6  and  N_7
REMARK    3  A    between atoms: N_7  and  C_8
REMARK    4  A    between atoms: C_8  and  C_9
REMARK    5  A    between atoms: C_8  and  C_16
REMARK    6  A    between atoms: C_8  and  C_19
REMARK                            x       y       z     vdW  Elec       q    Type
REMARK                         _______ _______ _______ _____ _____    ______ ____
ROOT
ATOM      1  C   UNL     1       5.654   2.385   1.347  0.00  0.00    +0.039 C 
ENDROOT
BRANCH   1   2
ATOM      2  C   UNL     1       6.327   2.193   2.681  0.00  0.00    -0.049 A 
ATOM      3  C   UNL     1       7.459   2.922   2.995  0.00  0.00    +0.004 A 
ATOM      4  C   UNL     1       8.078   2.746   4.218  0.00  0.00    +0.020 A 
ATOM      5  C   UNL     1       7.564   1.840   5.129  0.00  0.00    +0.041 A 
ATOM      6  C   UNL     1       6.431   1.111   4.814  0.00  0.00    +0.020 A 
ATOM      7  C   UNL     1       5.810   1.292   3.593  0.00  0.00    +0.004 A 
ATOM      8 CL   UNL     1       8.340   1.618   6.666  0.00  0.00    -0.084 Cl
ENDBRANCH   1   2
BRANCH   1   9
ATOM      9  C   UNL     1       6.618   2.037   0.242  0.00  0.00    +0.204 C 
ATOM     10  O   UNL     1       7.278   2.907  -0.284  0.00  0.00    -0.277 OA
ATOM     11  N   UNL     1       6.746   0.757  -0.161  0.00  0.00    -0.330 N 
ATOM     12  H   UNL     1       6.218   0.061   0.260  0.00  0.00    +0.145 HD
ATOM     13  H   UNL     1       7.366   0.532  -0.872  0.00  0.00    +0.145 HD
ENDBRANCH   1   9
BRANCH   1  14
ATOM     14  N   UNL     1       4.476   1.512   1.263  0.00  0.00    +0.394 N 
ATOM     15  H   UNL     1       3.776   1.826   1.919  0.00  0.00    -0.083 HD
ATOM     16  H   UNL     1       4.743   0.565   1.484  0.00  0.00    -0.083 HD
BRANCH  14  17
ATOM     17  C   UNL     1       3.926   1.560  -0.099  0.00  0.00    -0.037 C 
BRANCH  17  20
ATOM     18  C   UNL     1       0.628  -0.344  -0.175  0.00  0.00    +0.008 A 
ATOM     19  C   UNL     1       1.482   0.727   0.009  0.00  0.00    +0.009 A 
ATOM     20  C   UNL     1       2.807   0.560  -0.225  0.00  0.00    -0.027 A 
ATOM     21  S   UNL     1       2.880  -1.154  -0.720  0.00  0.00    -0.104 S 
ATOM     22  C   UNL     1       1.141  -1.531  -0.583  0.00  0.00    +0.045 A 
ENDBRANCH  17  20
ENDBRANCH  14  17
ENDBRANCH   1  14
BRANCH   1  23
ATOM     23  C   UNL     1       5.218   3.845   1.201  0.00  0.00    -0.009 C 
ATOM     24  C   UNL     1       3.721   4.123   1.048  0.00  0.00    +0.003 C 
ATOM     25  C   UNL     1       4.656   4.283  -0.153  0.00  0.00    +0.003 C 
ENDBRANCH   1  23
TORSDOF 6
