REMARK  Name = ZINC39710746
REMARK  12 active torsions:
REMARK  status: ('A' for Active; 'I' for Inactive)
REMARK    1  A    between atoms: C_1  and  C_2
REMARK    2  A    between atoms: C_6  and  N_9
REMARK    3  A    between atoms: C_7  and  C_8
REMARK    4  A    between atoms: N_12  and  C_15
REMARK    5  A    between atoms: C_15  and  C_17
REMARK    6  A    between atoms: C_15  and  C_31
REMARK    7  A    between atoms: C_23  and  C_30
REMARK    8  A    between atoms: C_24  and  C_29
REMARK    9  A    between atoms: N_36  and  C_37
REMARK   10  A    between atoms: C_37  and  C_38
REMARK   11  A    between atoms: C_37  and  C_39
REMARK   12  A    between atoms: C_37  and  C_40
REMARK                            x       y       z     vdW  Elec       q    Type
REMARK                         _______ _______ _______ _____ _____    ______ ____
ROOT
ATOM      1  C   UNL     1       0.974  -3.386   6.332  0.00  0.00    -0.009 C 
ENDROOT
BRANCH   1   2
ATOM      2  C   UNL     1       2.149  -3.586   7.290  0.00  0.00    +0.088 C 
ATOM      3  C   UNL     1       1.937  -2.675   8.483  0.00  0.00    -0.006 C 
ATOM      4  C   UNL     1       1.879  -3.258   9.714  0.00  0.00    -0.007 A 
ATOM      5  C   UNL     1       1.677  -2.452  10.918  0.00  0.00    +0.010 A 
ATOM      6  C   UNL     1       1.626  -3.077  12.123  0.00  0.00    +0.004 A 
ATOM      7  C   UNL     1       1.762  -4.462  12.230  0.00  0.00    -0.046 A 
ATOM      8  C   UNL     1       1.951  -5.265  11.151  0.00  0.00    -0.026 A 
ATOM      9  C   UNL     1       2.018  -4.718   9.856  0.00  0.00    +0.043 A 
ATOM     10  N   UNL     1       2.204  -5.516   8.805  0.00  0.00    -0.284 N 
ATOM     11  C   UNL     1       2.278  -5.068   7.563  0.00  0.00    +0.223 C 
ATOM     12  O   UNL     1       2.448  -5.846   6.644  0.00  0.00    -0.275 OA
ATOM     13  C   UNL     1       2.089  -6.753  11.342  0.00  0.00    +0.046 C 
ATOM     14  C   UNL     1       1.696  -5.091  13.598  0.00  0.00    +0.044 C 
ATOM     15  H   UNL     1       2.289  -6.470   8.958  0.00  0.00    +0.155 HD
ENDBRANCH   1   2
BRANCH   1  19
ATOM     16  N   UNL     1       1.794  -4.379   2.350  0.00  0.00    -0.333 N 
ATOM     17  C   UNL     1       0.415  -4.585   2.820  0.00  0.00    +0.086 C 
ATOM     18  C   UNL     1       0.206  -3.756   4.091  0.00  0.00    -0.059 C 
ATOM     19  N   UNL     1       1.239  -4.100   5.075  0.00  0.00    +0.387 N 
ATOM     20  C   UNL     1       2.562  -3.716   4.567  0.00  0.00    -0.059 C 
ATOM     21  C   UNL     1       2.889  -4.549   3.318  0.00  0.00    +0.086 C 
ATOM     22  H   UNL     1       1.222  -5.094   5.246  0.00  0.00    -0.081 HD
BRANCH  16  28
ATOM     23  C   UNL     1       2.439  -0.915  -1.076  0.00  0.00    +0.044 C 
ATOM     24  C   UNL     1       2.375  -2.365  -0.668  0.00  0.00    -0.046 A 
ATOM     25  C   UNL     1       2.576  -3.357  -1.609  0.00  0.00    +0.004 A 
ATOM     26  C   UNL     1       2.518  -4.688  -1.239  0.00  0.00    +0.002 A 
ATOM     27  C   UNL     1       2.259  -5.030   0.074  0.00  0.00    +0.023 A 
ATOM     28  C   UNL     1       2.057  -4.036   1.022  0.00  0.00    +0.033 A 
ATOM     29  C   UNL     1       2.121  -2.700   0.647  0.00  0.00    -0.027 A 
ATOM     30  C   UNL     1       1.907  -1.617   1.674  0.00  0.00    +0.046 C 
ENDBRANCH  16  28
ENDBRANCH   1  19
BRANCH   1  31
ATOM     31  C   UNL     1      -0.304  -3.935   6.970  0.00  0.00    +0.205 C 
ATOM     32  N   UNL     1      -0.281  -5.404   6.982  0.00  0.00    -0.152 NA
ATOM     33  N   UNL     1      -1.230  -5.824   6.316  0.00  0.00    -0.070 NA
ATOM     34  N   UNL     1      -2.006  -4.800   5.774  0.00  0.00    -0.179 N 
ATOM     35  N   UNL     1      -1.482  -3.587   6.147  0.00  0.00    -0.183 NA
ATOM     36  H   UNL     1      -2.794  -4.926   5.222  0.00  0.00    +0.191 HD
BRANCH  35  37
ATOM     37  C   UNL     1      -2.454  -2.807   6.923  0.00  0.00    +0.035 C 
ATOM     38  C   UNL     1      -1.792  -1.522   7.426  0.00  0.00    +0.029 C 
ATOM     39  C   UNL     1      -3.648  -2.450   6.034  0.00  0.00    +0.029 C 
ATOM     40  C   UNL     1      -2.936  -3.633   8.117  0.00  0.00    +0.029 C 
ENDBRANCH  35  37
ENDBRANCH   1  31
TORSDOF 5
