REMARK  Name = ZINC44169254
REMARK  4 active torsions:
REMARK  status: ('A' for Active; 'I' for Inactive)
REMARK    1  A    between atoms: C_3  and  C_24
REMARK    2  A    between atoms: C_6  and  C_7
REMARK    3  A    between atoms: C_12  and  C_15
REMARK    4  A    between atoms: N_17  and  C_18
REMARK                            x       y       z     vdW  Elec       q    Type
REMARK                         _______ _______ _______ _____ _____    ______ ____
ROOT
ATOM      1  C   UNL     1      -1.293  -0.775   0.011  0.00  0.00    -0.030 C 
ATOM      2  C   UNL     1      -1.618  -1.241  -1.414  0.00  0.00    +0.058 C 
ATOM      3  S   UNL     1      -3.218  -2.108  -1.379  0.00  0.00    -0.163 S 
ATOM      4  C   UNL     1      -3.003  -3.284  -0.005  0.00  0.00    +0.062 C 
ATOM      5  C   UNL     1      -2.471  -2.513   1.208  0.00  0.00    +0.027 C 
ATOM      6  N   UNL     1      -1.162  -1.936   0.894  0.00  0.00    +0.392 N 
ATOM      7  H   UNL     1      -0.592  -2.634   0.440  0.00  0.00    -0.084 HD
ATOM      8  H   UNL     1      -0.713  -1.650   1.751  0.00  0.00    -0.084 HD
ENDROOT
BRANCH   1  14
ATOM      9  C   UNL     1      -0.017   1.378   0.010  0.00  0.00    +0.002 A 
ATOM     10  C   UNL     1       1.171   2.086   0.002  0.00  0.00    +0.012 A 
ATOM     11  C   UNL     1       2.377   1.411  -0.013  0.00  0.00    +0.055 A 
ATOM     12  C   UNL     1       2.396   0.029  -0.020  0.00  0.00    +0.012 A 
ATOM     13  C   UNL     1       1.208  -0.679  -0.012  0.00  0.00    +0.002 A 
ATOM     14  C   UNL     1       0.002  -0.004   0.002  0.00  0.00    -0.061 A 
BRANCH  11  15
ATOM     15  C   UNL     1       3.672   2.182  -0.022  0.00  0.00    +0.417 C 
ATOM     16  F   UNL     1       4.086   2.414   1.294  0.00  0.00    -0.166 F 
ATOM     17  F   UNL     1       4.651   1.442  -0.695  0.00  0.00    -0.166 F 
ATOM     18  F   UNL     1       3.482   3.405  -0.674  0.00  0.00    -0.166 F 
ENDBRANCH  11  15
ENDBRANCH   1  14
BRANCH   5  19
ATOM     19  C   UNL     1      -2.335  -3.452   2.378  0.00  0.00    +0.200 C 
ATOM     20  O   UNL     1      -1.251  -3.626   2.893  0.00  0.00    -0.278 OA
ATOM     21  N   UNL     1      -3.418  -4.100   2.852  0.00  0.00    -0.314 N 
ATOM     22  H   UNL     1      -4.285  -3.961   2.440  0.00  0.00    +0.149 HD
BRANCH  21  23
ATOM     23  C   UNL     1      -3.285  -5.013   3.990  0.00  0.00    +0.073 C 
ATOM     24  C   UNL     1      -2.861  -6.395   3.487  0.00  0.00    +0.022 C 
ATOM     25  C   UNL     1      -2.723  -7.349   4.675  0.00  0.00    +0.002 C 
ATOM     26  C   UNL     1      -4.066  -7.460   5.399  0.00  0.00    +0.000 C 
ATOM     27  C   UNL     1      -4.490  -6.079   5.902  0.00  0.00    +0.002 C 
ATOM     28  C   UNL     1      -4.629  -5.124   4.714  0.00  0.00    +0.022 C 
ENDBRANCH  21  23
ENDBRANCH   5  19
TORSDOF 4
