REMARK  Name = ZINC39363072
REMARK  7 active torsions:
REMARK  status: ('A' for Active; 'I' for Inactive)
REMARK    1  A    between atoms: C_5  and  N_7
REMARK    2  A    between atoms: C_8  and  C_10
REMARK    3  A    between atoms: C_10  and  S_11
REMARK    4  A    between atoms: S_11  and  C_12
REMARK    5  A    between atoms: C_15  and  C_25
REMARK    6  A    between atoms: N_17  and  C_18
REMARK    7  A    between atoms: C_25  and  C_26
REMARK                            x       y       z     vdW  Elec       q    Type
REMARK                         _______ _______ _______ _____ _____    ______ ____
ROOT
ATOM      1  C   UNL     1      -1.372  -6.657   0.433  0.00  0.00    +0.180 C 
ATOM      2  N   UNL     1      -0.228  -7.252   0.422  0.00  0.00    -0.162 NA
ATOM      3  N   UNL     1      -0.371  -8.641   0.531  0.00  0.00    -0.246 N 
ATOM      4  C   UNL     1      -1.818  -8.899   0.621  0.00  0.00    +0.187 C 
ATOM      5  N   UNL     1      -2.421  -7.556   0.556  0.00  0.00    -0.258 N 
ATOM      6  H   UNL     1       0.340  -9.300   0.545  0.00  0.00    +0.170 HD
ENDROOT
BRANCH   5   7
ATOM      7  C   UNL     1      -3.784  -7.249   0.607  0.00  0.00    +0.038 A 
ATOM      8  C   UNL     1      -4.664  -7.841  -0.291  0.00  0.00    +0.025 A 
ATOM      9  C   UNL     1      -6.010  -7.535  -0.239  0.00  0.00    +0.022 A 
ATOM     10  C   UNL     1      -6.482  -6.641   0.706  0.00  0.00    +0.041 A 
ATOM     11  C   UNL     1      -5.608  -6.050   1.601  0.00  0.00    +0.022 A 
ATOM     12  C   UNL     1      -4.262  -6.356   1.558  0.00  0.00    +0.025 A 
ATOM     13 CL   UNL     1      -8.175  -6.259   0.768  0.00  0.00    -0.084 Cl
ENDBRANCH   5   7
BRANCH   1  14
ATOM     14  S   UNL     1      -1.578  -4.911   0.315  0.00  0.00    -0.079 S 
BRANCH  14  15
ATOM     15  C   UNL     1       0.117  -4.278   0.177  0.00  0.00    +0.173 C 
BRANCH  15  17
ATOM     16  N   UNL     1       1.235  -2.083  -0.046  0.00  0.00    -0.283 N 
ATOM     17  C   UNL     1       0.084  -2.775   0.067  0.00  0.00    +0.228 C 
ATOM     18  O   UNL     1      -0.978  -2.189   0.081  0.00  0.00    -0.275 OA
ATOM     19  H   UNL     1       2.078  -2.554  -0.138  0.00  0.00    +0.155 HD
BRANCH  16  24
ATOM     20  C   UNL     1       0.152   1.372   0.604  0.00  0.00    +0.002 A 
ATOM     21  C   UNL     1       1.171   2.085  -0.000  0.00  0.00    +0.003 A 
ATOM     22  C   UNL     1       2.212   1.419  -0.620  0.00  0.00    +0.040 A 
ATOM     23  C   UNL     1       2.237   0.037  -0.638  0.00  0.00    +0.144 A 
ATOM     24  C   UNL     1       1.214  -0.682  -0.030  0.00  0.00    +0.069 A 
ATOM     25  C   UNL     1       0.171  -0.009   0.591  0.00  0.00    +0.026 A 
ATOM     26  F   UNL     1       3.254  -0.614  -1.244  0.00  0.00    -0.204 F 
ENDBRANCH  16  24
ENDBRANCH  15  17
ENDBRANCH  14  15
ENDBRANCH   1  14
BRANCH   4  27
ATOM     27  C   UNL     1      -2.162  -9.576   1.949  0.00  0.00    +0.097 C 
BRANCH  27  28
ATOM     28  C   UNL     1      -1.453 -10.903   2.033  0.00  0.00    +0.029 A 
ATOM     29  N   UNL     1      -2.009 -12.018   1.466  0.00  0.00    -0.311 N 
ATOM     30  C   UNL     1      -1.384 -13.207   1.536  0.00  0.00    +0.327 A 
ATOM     31  O   UNL     1      -1.896 -14.184   1.025  0.00  0.00    -0.247 OA
ATOM     32  N   UNL     1      -0.200 -13.330   2.163  0.00  0.00    -0.275 N 
ATOM     33  C   UNL     1       0.382 -12.256   2.735  0.00  0.00    +0.254 A 
ATOM     34  O   UNL     1       1.454 -12.367   3.302  0.00  0.00    -0.268 OA
ATOM     35  C   UNL     1      -0.263 -10.998   2.664  0.00  0.00    +0.091 A 
ATOM     36  H   UNL     1       0.238 -14.195   2.204  0.00  0.00    +0.173 HD
ATOM     37  H   UNL     1      -2.863 -11.949   1.010  0.00  0.00    +0.170 HD
ENDBRANCH  27  28
ENDBRANCH   4  27
TORSDOF 7
