REMARK  Name = ZINC67085920
REMARK  13 active torsions:
REMARK  status: ('A' for Active; 'I' for Inactive)
REMARK    1  A    between atoms: C_1  and  C_2
REMARK    2  A    between atoms: C_2  and  C_3
REMARK    3  A    between atoms: C_2  and  N_4
REMARK    4  A    between atoms: C_5  and  C_7
REMARK    5  A    between atoms: C_7  and  N_8
REMARK    6  A    between atoms: N_11  and  C_12
REMARK    7  A    between atoms: C_12  and  C_13
REMARK    8  A    between atoms: C_17  and  C_19
REMARK    9  A    between atoms: N_21  and  C_22
REMARK   10  A    between atoms: C_22  and  C_23
REMARK   11  A    between atoms: C_23  and  N_24
REMARK   12  A    between atoms: N_24  and  C_25
REMARK   13  A    between atoms: N_24  and  C_26
REMARK                            x       y       z     vdW  Elec       q    Type
REMARK                         _______ _______ _______ _____ _____    ______ ____
ROOT
ATOM      1  C   UNL     1      -5.310  -7.566  -2.448  0.00  0.00    -0.030 A 
ATOM      2  C   UNL     1      -5.379  -7.699  -3.824  0.00  0.00    +0.005 A 
ATOM      3  C   UNL     1      -5.159  -8.928  -4.418  0.00  0.00    +0.001 A 
ATOM      4  C   UNL     1      -4.868 -10.031  -3.642  0.00  0.00    +0.013 A 
ATOM      5  C   UNL     1      -4.796  -9.904  -2.254  0.00  0.00    +0.037 A 
ATOM      6  C   UNL     1      -5.014  -8.659  -1.661  0.00  0.00    +0.018 A 
ENDROOT
BRANCH   5   7
ATOM      7  C   UNL     1      -4.486 -11.081  -1.415  0.00  0.00    +0.244 C 
ATOM      8  O   UNL     1      -4.424 -10.968  -0.207  0.00  0.00    -0.270 OA
ATOM      9  N   UNL     1      -4.271 -12.281  -1.991  0.00  0.00    -0.313 N 
ATOM     10  H   UNL     1      -4.321 -12.372  -2.956  0.00  0.00    +0.149 HD
BRANCH   9  11
ATOM     11  C   UNL     1      -3.964 -13.448  -1.161  0.00  0.00    +0.086 C 
BRANCH  11  12
ATOM     12  C   UNL     1      -3.766 -14.673  -2.055  0.00  0.00    -0.061 C 
BRANCH  12  13
ATOM     13  N   UNL     1      -3.458 -15.843  -1.222  0.00  0.00    +0.377 N 
ATOM     14  C   UNL     1      -3.386 -17.042  -2.068  0.00  0.00    -0.097 C 
ATOM     15  C   UNL     1      -2.167 -15.640  -0.551  0.00  0.00    -0.097 C 
ATOM     16  H   UNL     1      -4.181 -15.963  -0.529  0.00  0.00    -0.083 HD
ENDBRANCH  12  13
ENDBRANCH  11  12
ENDBRANCH   9  11
ENDBRANCH   5   7
BRANCH   1  17
ATOM     17  C   UNL     1      -5.551  -6.222  -1.810  0.00  0.00    +0.141 C 
BRANCH  17  21
ATOM     18  N   UNL     1      -3.087  -3.596  -1.065  0.00  0.00    -0.291 N 
ATOM     19  C   UNL     1      -4.254  -4.264  -1.161  0.00  0.00    +0.300 C 
ATOM     20  O   UNL     1      -5.282  -3.753  -0.758  0.00  0.00    -0.253 OA
ATOM     21  N   UNL     1      -4.282  -5.497  -1.705  0.00  0.00    -0.295 N 
ATOM     22  H   UNL     1      -2.268  -4.003  -1.387  0.00  0.00    +0.151 HD
ATOM     23  H   UNL     1      -3.463  -5.904  -2.026  0.00  0.00    +0.151 HD
BRANCH  18  24
ATOM     24  C   UNL     1      -3.057  -2.256  -0.474  0.00  0.00    +0.201 C 
BRANCH  24  26
ATOM     25  N   UNL     1      -1.372  -0.511   0.012  0.00  0.00    -0.312 N 
ATOM     26  C   UNL     1      -1.643  -1.734  -0.485  0.00  0.00    +0.230 C 
ATOM     27  O   UNL     1      -0.749  -2.415  -0.941  0.00  0.00    -0.274 OA
ATOM     28  H   UNL     1      -2.087   0.033   0.377  0.00  0.00    +0.149 HD
BRANCH  25  30
ATOM     29  C   UNL     1      -0.019   1.526   0.010  0.00  0.00    +0.027 C 
ATOM     30  C   UNL     1       0.002  -0.004   0.002  0.00  0.00    +0.067 C 
ATOM     31  C   UNL     1       0.742  -0.511   1.242  0.00  0.00    +0.027 C 
ENDBRANCH  25  30
ENDBRANCH  24  26
ENDBRANCH  18  24
ENDBRANCH  17  21
ENDBRANCH   1  17
TORSDOF 9
