REMARK  Name = ZINC04183080
REMARK  4 active torsions:
REMARK  status: ('A' for Active; 'I' for Inactive)
REMARK    1  A    between atoms: C_1  and  C_2
REMARK    2  A    between atoms: C_7  and  N_8
REMARK    3  A    between atoms: C_9  and  C_27
REMARK    4  A    between atoms: N_18  and  C_21
REMARK                            x       y       z     vdW  Elec       q    Type
REMARK                         _______ _______ _______ _____ _____    ______ ____
ROOT
ATOM      1  N   UNL     1      -0.348   0.202   2.550  0.00  0.00    -0.243 N 
ATOM      2  C   UNL     1       0.953   0.554   3.190  0.00  0.00    +0.157 C 
ATOM      3  C   UNL     1       0.551   0.993   4.591  0.00  0.00    +0.145 C 
ATOM      4  C   UNL     1      -0.869   1.571   4.219  0.00  0.00    +0.249 C 
ATOM      5  O   UNL     1      -1.411   0.570   3.464  0.00  0.00    -0.257 OA
ATOM      6  C   UNL     1      -1.158   2.383   5.386  0.00  0.00    +0.259 C 
ATOM      7  O   UNL     1      -2.242   2.584   5.891  0.00  0.00    -0.272 OA
ATOM      8  N   UNL     1       0.055   2.872   5.796  0.00  0.00    -0.208 N 
ATOM      9  C   UNL     1       1.122   2.232   5.204  0.00  0.00    +0.235 C 
ATOM     10  O   UNL     1       2.279   2.592   5.177  0.00  0.00    -0.274 OA
ENDROOT
BRANCH   1  17
ATOM     11  C   UNL     1      -0.581  -2.629   2.390  0.00  0.00    +0.046 C 
ATOM     12  C   UNL     1      -0.631  -1.754   1.165  0.00  0.00    -0.025 A 
ATOM     13  C   UNL     1      -0.800  -2.322  -0.084  0.00  0.00    +0.005 A 
ATOM     14  C   UNL     1      -0.845  -1.520  -1.209  0.00  0.00    +0.000 A 
ATOM     15  C   UNL     1      -0.722  -0.147  -1.089  0.00  0.00    +0.002 A 
ATOM     16  C   UNL     1      -0.554   0.426   0.155  0.00  0.00    +0.028 A 
ATOM     17  C   UNL     1      -0.513  -0.376   1.289  0.00  0.00    +0.068 A 
ENDBRANCH   1  17
BRANCH   2  18
ATOM     18  C   UNL     1       1.621   1.683   2.448  0.00  0.00    -0.022 A 
ATOM     19  C   UNL     1       3.001   1.739   2.373  0.00  0.00    +0.008 A 
ATOM     20  C   UNL     1       3.614   2.774   1.692  0.00  0.00    +0.038 A 
ATOM     21  C   UNL     1       2.847   3.754   1.085  0.00  0.00    +0.123 A 
ATOM     22  C   UNL     1       1.466   3.696   1.161  0.00  0.00    +0.038 A 
ATOM     23  C   UNL     1       0.854   2.658   1.837  0.00  0.00    +0.008 A 
ATOM     24  F   UNL     1       3.446   4.766   0.420  0.00  0.00    -0.205 F 
ENDBRANCH   2  18
BRANCH   8  25
ATOM     25  C   UNL     1       0.199   3.908   6.729  0.00  0.00    +0.044 A 
ATOM     26  C   UNL     1       1.465   4.351   7.087  0.00  0.00    +0.024 A 
ATOM     27  C   UNL     1       1.604   5.372   8.007  0.00  0.00    +0.002 A 
ATOM     28  C   UNL     1       0.483   5.953   8.570  0.00  0.00    +0.000 A 
ATOM     29  C   UNL     1      -0.779   5.515   8.216  0.00  0.00    +0.002 A 
ATOM     30  C   UNL     1      -0.925   4.498   7.293  0.00  0.00    +0.024 A 
ENDBRANCH   8  25
TORSDOF 3
