REMARK  Name = ZINC02551966
REMARK  5 active torsions:
REMARK  status: ('A' for Active; 'I' for Inactive)
REMARK    1  A    between atoms: C_1  and  C_2
REMARK    2  A    between atoms: N_4  and  C_5
REMARK    3  A    between atoms: C_5  and  N_7
REMARK    4  A    between atoms: N_7  and  N_8
REMARK    5  A    between atoms: C_9  and  C_11
REMARK                            x       y       z     vdW  Elec       q    Type
REMARK                         _______ _______ _______ _____ _____    ______ ____
ROOT
ATOM      1  N   UNL     1      -0.011   0.966   0.007  0.00  0.00    -0.231 N 
ATOM      2  C   UNL     1      -1.187   1.624   0.017  0.00  0.00    +0.261 C 
ATOM      3  O   UNL     1      -1.204   2.839   0.023  0.00  0.00    -0.269 OA
ATOM      4  H   UNL     1       0.002  -0.004   0.002  0.00  0.00    +0.173 HD
ENDROOT
BRANCH   2   5
ATOM      5  C   UNL     1      -2.457   0.867   0.018  0.00  0.00    +0.051 A 
ATOM      6  C   UNL     1      -2.442  -0.528   0.005  0.00  0.00    +0.014 A 
ATOM      7  C   UNL     1      -3.630  -1.228   0.011  0.00  0.00    +0.001 A 
ATOM      8  C   UNL     1      -4.837  -0.550   0.021  0.00  0.00    +0.001 A 
ATOM      9  C   UNL     1      -4.860   0.833   0.029  0.00  0.00    +0.015 A 
ATOM     10  C   UNL     1      -3.678   1.546   0.028  0.00  0.00    +0.026 A 
ATOM     11  I   UNL     1      -3.714   3.640   0.040  0.00  0.00    -0.043 I 
ENDBRANCH   2   5
BRANCH   1  12
ATOM     12  N   UNL     1       1.193   1.683  -0.000  0.00  0.00    -0.245 N 
ATOM     13  H   UNL     1       1.179   2.653   0.005  0.00  0.00    +0.172 HD
BRANCH  12  14
ATOM     14  C   UNL     1       2.369   1.025  -0.015  0.00  0.00    +0.153 C 
ATOM     15  S   UNL     1       3.840   1.901  -0.024  0.00  0.00    -0.017 S 
BRANCH  14  19
ATOM     16  C   UNL     1       3.584  -2.487  -0.045  0.00  0.00    +0.109 C 
ATOM     17  C   UNL     1       3.563  -0.981  -0.037  0.00  0.00    +0.215 C 
ATOM     18  O   UNL     1       4.605  -0.360  -0.044  0.00  0.00    -0.276 OA
ATOM     19  N   UNL     1       2.387  -0.323  -0.022  0.00  0.00    -0.267 N 
ATOM     20  H   UNL     1       1.554  -0.819  -0.017  0.00  0.00    +0.157 HD
ENDBRANCH  14  19
ENDBRANCH  12  14
ENDBRANCH   1  12
TORSDOF 4
