REMARK  Name = ZINC19144334
REMARK  5 active torsions:
REMARK  status: ('A' for Active; 'I' for Inactive)
REMARK    1  A    between atoms: C_10  and  C_12
REMARK    2  A    between atoms: C_12  and  N_56
REMARK    3  A    between atoms: C_13  and  N_56
REMARK    4  A    between atoms: N_16  and  C_19
REMARK    5  A    between atoms: C_22  and  C_25
REMARK                            x       y       z     vdW  Elec       q    Type
REMARK                         _______ _______ _______ _____ _____    ______ ____
ROOT
ATOM      1  C   UNL     1      -0.795   1.527  -1.120  0.00  0.00    -0.069 C 
ATOM      2  C   UNL     1      -1.407   2.877  -0.736  0.00  0.00    +0.003 C 
ATOM      3  C   UNL     1      -2.272   3.386  -1.891  0.00  0.00    +0.103 C 
ATOM      4  N   UNL     1      -3.333   2.412  -2.178  0.00  0.00    -0.330 N 
ATOM      5  C   UNL     1      -2.769   1.121  -2.595  0.00  0.00    +0.103 C 
ATOM      6  C   UNL     1      -1.919   0.544  -1.460  0.00  0.00    +0.003 C 
ENDROOT
BRANCH   4   7
ATOM      7  C   UNL     1      -4.218   2.904  -3.138  0.00  0.00    +0.030 A 
ATOM      8  C   UNL     1      -4.452   2.181  -4.302  0.00  0.00    +0.024 A 
ATOM      9  C   UNL     1      -5.330   2.662  -5.249  0.00  0.00    +0.012 A 
ATOM     10  C   UNL     1      -5.977   3.882  -5.043  0.00  0.00    -0.000 A 
ATOM     11  C   UNL     1      -5.736   4.608  -3.876  0.00  0.00    +0.012 A 
ATOM     12  C   UNL     1      -4.861   4.120  -2.930  0.00  0.00    +0.024 A 
BRANCH  10  13
ATOM     13  C   UNL     1      -6.916   4.403  -6.060  0.00  0.00    +0.066 A 
ATOM     14  C   UNL     1      -7.241   3.805  -7.245  0.00  0.00    +0.049 A 
ATOM     15  C   UNL     1      -8.160   4.625  -7.900  0.00  0.00    +0.135 A 
ATOM     16  N   UNL     1      -8.381   5.680  -7.158  0.00  0.00    -0.182 NA
ATOM     17  N   UNL     1      -7.613   5.573  -5.992  0.00  0.00    -0.277 N 
ATOM     18  H   UNL     1      -7.582   6.235  -5.243  0.00  0.00    +0.189 HD
ENDBRANCH  10  13
ENDBRANCH   4   7
BRANCH   1  19
ATOM     19  N   UNL     1      -0.015   0.998   0.015  0.00  0.00    +0.383 N 
ATOM     20  H   UNL     1      -0.475   1.261   0.894  0.00  0.00    -0.085 HD
ATOM     21  H   UNL     1       0.032  -0.025  -0.054  0.00  0.00    -0.085 HD
BRANCH  19  22
ATOM     22  C   UNL     1       1.353   1.550  -0.003  0.00  0.00    -0.045 C 
BRANCH  22  32
ATOM     23  C   UNL     1       5.953   2.905   1.344  0.00  0.00    +0.000 A 
ATOM     24  C   UNL     1       4.807   3.641   1.102  0.00  0.00    +0.000 A 
ATOM     25  C   UNL     1       3.581   3.008   1.051  0.00  0.00    +0.006 A 
ATOM     26  C   UNL     1       3.493   1.638   1.242  0.00  0.00    -0.017 A 
ATOM     27  C   UNL     1       4.636   0.904   1.480  0.00  0.00    -0.040 A 
ATOM     28  C   UNL     1       5.866   1.540   1.533  0.00  0.00    +0.004 A 
ATOM     29  C   UNL     1       4.582  -0.589   1.680  0.00  0.00    +0.063 C 
ATOM     30  C   UNL     1       3.149  -1.017   1.998  0.00  0.00    +0.165 C 
ATOM     31  O   UNL     1       2.274  -0.428   1.029  0.00  0.00    -0.374 OA
ATOM     32  C   UNL     1       2.136   0.985   1.184  0.00  0.00    +0.132 C 
ENDBRANCH  22  32
ENDBRANCH  19  22
ENDBRANCH   1  19
TORSDOF 5
