REMARK  Name = ZINC39683476
REMARK  8 active torsions:
REMARK  status: ('A' for Active; 'I' for Inactive)
REMARK    1  A    between atoms: C_1  and  C_2
REMARK    2  A    between atoms: C_2  and  C_3
REMARK    3  A    between atoms: C_3  and  C_4
REMARK    4  A    between atoms: C_4  and  N_5
REMARK    5  A    between atoms: C_8  and  C_11
REMARK    6  A    between atoms: C_11  and  N_12
REMARK    7  A    between atoms: C_13  and  C_15
REMARK    8  A    between atoms: C_26  and  C_28
REMARK                            x       y       z     vdW  Elec       q    Type
REMARK                         _______ _______ _______ _____ _____    ______ ____
ROOT
ATOM      1  C   UNL     1      -7.722  -8.215  -0.774  0.00  0.00    +0.100 C 
ATOM      2  C   UNL     1      -6.878  -8.767   0.397  0.00  0.00    +0.121 C 
ATOM      3  N   UNL     1      -7.850  -8.965   1.498  0.00  0.00    -0.300 N 
ATOM      4  C   UNL     1      -9.064  -9.491   0.829  0.00  0.00    +0.115 C 
ATOM      5  C   UNL     1      -9.155  -8.695  -0.489  0.00  0.00    -0.004 C 
ATOM      6  C   UNL     1      -9.644  -9.598  -1.618  0.00  0.00    -0.010 C 
ATOM      7  C   UNL     1     -11.091 -10.015  -1.341  0.00  0.00    -0.082 C 
ATOM      8  N   UNL     1     -11.937  -8.820  -1.242  0.00  0.00    +0.379 N 
ATOM      9  C   UNL     1     -11.518  -8.004  -0.096  0.00  0.00    -0.082 C 
ATOM     10  C   UNL     1     -10.089  -7.501  -0.320  0.00  0.00    -0.010 C 
ATOM     11  C   UNL     1      -7.671  -8.722   2.812  0.00  0.00    +0.219 C 
ATOM     12  O   UNL     1      -8.570  -8.938   3.596  0.00  0.00    -0.275 OA
ATOM     13  H   UNL     1     -11.851  -8.277  -2.088  0.00  0.00    -0.086 HD
ATOM     14  H   UNL     1     -12.899  -9.099  -1.120  0.00  0.00    -0.086 HD
ENDROOT
BRANCH   1  16
ATOM     15  N   UNL     1      -7.814  -6.046  -1.960  0.00  0.00    -0.315 N 
ATOM     16  C   UNL     1      -7.668  -6.709  -0.795  0.00  0.00    +0.218 C 
ATOM     17  O   UNL     1      -7.493  -6.094   0.235  0.00  0.00    -0.275 OA
ATOM     18  H   UNL     1      -7.954  -6.538  -2.784  0.00  0.00    +0.149 HD
BRANCH  15  19
ATOM     19  C   UNL     1      -7.762  -4.582  -1.981  0.00  0.00    +0.107 C 
BRANCH  19  23
ATOM     20  N   UNL     1      -6.963  -2.503  -5.630  0.00  0.00    +0.380 N 
ATOM     21  C   UNL     1      -8.136  -2.062  -4.866  0.00  0.00    -0.079 C 
ATOM     22  C   UNL     1      -8.024  -2.556  -3.422  0.00  0.00    -0.014 C 
ATOM     23  C   UNL     1      -7.954  -4.085  -3.415  0.00  0.00    +0.003 C 
ATOM     24  C   UNL     1      -6.770  -4.536  -4.276  0.00  0.00    -0.014 C 
ATOM     25  C   UNL     1      -6.929  -3.969  -5.688  0.00  0.00    -0.079 C 
ATOM     26  H   UNL     1      -6.125  -2.166  -5.180  0.00  0.00    -0.082 HD
BRANCH  20  27
ATOM     27  C   UNL     1      -7.037  -1.962  -6.994  0.00  0.00    -0.079 C 
BRANCH  27  28
ATOM     28  C   UNL     1      -6.947  -0.435  -6.942  0.00  0.00    -0.019 C 
BRANCH  28  30
ATOM     29  C   UNL     1      -6.934   1.655  -8.311  0.00  0.00    +0.004 C 
ATOM     30  C   UNL     1      -7.024   0.128  -8.363  0.00  0.00    -0.005 C 
ENDBRANCH  28  30
ENDBRANCH  27  28
ENDBRANCH  20  27
ENDBRANCH  19  23
ENDBRANCH  15  19
ENDBRANCH   1  16
BRANCH  11  31
ATOM     31  C   UNL     1      -6.353  -8.183   3.305  0.00  0.00    +0.075 C 
ATOM     32  C   UNL     1      -5.282  -9.267   3.512  0.00  0.00    +0.013 C 
ATOM     33  C   UNL     1      -4.873  -8.508   4.786  0.00  0.00    +0.001 C 
ATOM     34  C   UNL     1      -6.310  -7.960   4.826  0.00  0.00    +0.013 C 
ENDBRANCH  11  31
TORSDOF 7
