REMARK  Name = ZINC48107337
REMARK  10 active torsions:
REMARK  status: ('A' for Active; 'I' for Inactive)
REMARK    1  A    between atoms: C_1  and  C_2
REMARK    2  A    between atoms: N_7  and  C_9
REMARK    3  A    between atoms: C_9  and  C_11
REMARK    4  A    between atoms: C_9  and  C_12
REMARK    5  A    between atoms: C_12  and  N_13
REMARK    6  A    between atoms: N_16  and  C_17
REMARK    7  A    between atoms: C_20  and  C_23
REMARK    8  A    between atoms: N_25  and  C_26
REMARK    9  A    between atoms: C_26  and  C_27
REMARK   10  A    between atoms: C_26  and  C_28
REMARK                            x       y       z     vdW  Elec       q    Type
REMARK                         _______ _______ _______ _____ _____    ______ ____
ROOT
ATOM      1  N   UNL     1       3.065  -0.565   2.188  0.00  0.00    -0.301 N 
ATOM      2  C   UNL     1       4.246   0.042   1.957  0.00  0.00    +0.304 C 
ATOM      3  O   UNL     1       5.253  -0.623   1.809  0.00  0.00    -0.253 OA
ATOM      4  N   UNL     1       4.311   1.387   1.890  0.00  0.00    -0.269 N 
ATOM      5  H   UNL     1       2.262  -0.034   2.306  0.00  0.00    +0.150 HD
ATOM      6  H   UNL     1       3.499   1.915   1.938  0.00  0.00    +0.156 HD
ENDROOT
BRANCH   4   7
ATOM      7  C   UNL     1       5.546   2.019   1.753  0.00  0.00    +0.035 A 
ATOM      8  C   UNL     1       6.545   1.432   0.982  0.00  0.00    +0.024 A 
ATOM      9  C   UNL     1       7.765   2.053   0.845  0.00  0.00    +0.015 A 
ATOM     10  C   UNL     1       8.001   3.276   1.480  0.00  0.00    +0.037 A 
ATOM     11  C   UNL     1       6.995   3.863   2.253  0.00  0.00    +0.015 A 
ATOM     12  C   UNL     1       5.776   3.239   2.382  0.00  0.00    +0.024 A 
BRANCH  10  13
ATOM     13  C   UNL     1       9.308   3.945   1.335  0.00  0.00    +0.244 C 
ATOM     14  O   UNL     1      10.182   3.433   0.662  0.00  0.00    -0.270 OA
ATOM     15  N   UNL     1       9.534   5.124   1.948  0.00  0.00    -0.309 N 
ATOM     16  H   UNL     1       8.836   5.532   2.485  0.00  0.00    +0.149 HD
BRANCH  15  17
ATOM     17  C   UNL     1      10.832   5.788   1.804  0.00  0.00    +0.067 C 
ATOM     18  C   UNL     1      10.839   6.621   0.521  0.00  0.00    +0.027 C 
ATOM     19  C   UNL     1      11.073   6.702   3.007  0.00  0.00    +0.027 C 
ENDBRANCH  15  17
ENDBRANCH  10  13
ENDBRANCH   4   7
BRANCH   1  20
ATOM     20  C   UNL     1       2.994  -2.026   2.261  0.00  0.00    +0.090 C 
BRANCH  20  21
ATOM     21  C   UNL     1       1.534  -2.460   2.402  0.00  0.00    -0.054 C 
ATOM     22  C   UNL     1       1.449  -3.987   2.362  0.00  0.00    -0.012 C 
BRANCH  21  28
ATOM     23  C   UNL     1      -2.976  -1.961   0.564  0.00  0.00    +0.005 C 
ATOM     24  C   UNL     1      -1.503  -1.593   0.374  0.00  0.00    -0.031 C 
ATOM     25  C   UNL     1      -1.021  -2.098  -0.989  0.00  0.00    -0.001 C 
ATOM     26  C   UNL     1       0.473  -1.795  -1.136  0.00  0.00    -0.018 C 
ATOM     27  C   UNL     1       1.235  -2.439   0.024  0.00  0.00    -0.078 C 
ATOM     28  N   UNL     1       0.747  -1.896   1.297  0.00  0.00    +0.383 N 
ATOM     29  C   UNL     1      -0.667  -2.244   1.479  0.00  0.00    -0.075 C 
ATOM     30  H   UNL     1       0.847  -0.892   1.294  0.00  0.00    -0.081 HD
ENDBRANCH  21  28
ENDBRANCH  20  21
ENDBRANCH   1  20
TORSDOF 6
