REMARK  Name = ZINC40661687
REMARK  8 active torsions:
REMARK  status: ('A' for Active; 'I' for Inactive)
REMARK    1  A    between atoms: C_1  and  C_2
REMARK    2  A    between atoms: C_2  and  N_3
REMARK    3  A    between atoms: N_3  and  C_4
REMARK    4  A    between atoms: C_8  and  C_10
REMARK    5  A    between atoms: C_12  and  N_29
REMARK    6  A    between atoms: C_13  and  N_17
REMARK    7  A    between atoms: N_17  and  C_18
REMARK    8  A    between atoms: C_20  and  C_25
REMARK                            x       y       z     vdW  Elec       q    Type
REMARK                         _______ _______ _______ _____ _____    ______ ____
ROOT
ATOM      1  N   UNL     1       0.722  -0.532  -1.177  0.00  0.00    -0.284 N 
ATOM      2  C   UNL     1      -0.079  -0.715  -2.298  0.00  0.00    +0.151 A 
ATOM      3  C   UNL     1      -1.441  -0.409  -2.254  0.00  0.00    +0.104 A 
ATOM      4  C   UNL     1      -2.200  -0.612  -3.409  0.00  0.00    +0.126 A 
ATOM      5  N   UNL     1      -1.600  -1.085  -4.499  0.00  0.00    -0.333 N 
ATOM      6  C   UNL     1      -0.312  -1.361  -4.498  0.00  0.00    +0.200 A 
ATOM      7  N   UNL     1       0.441  -1.179  -3.432  0.00  0.00    -0.220 NA
ATOM      8  H   UNL     1      -2.119  -1.228  -5.306  0.00  0.00    +0.168 HD
ENDROOT
BRANCH   1   9
ATOM      9  C   UNL     1       0.964  -1.600  -0.309  0.00  0.00    +0.035 A 
ATOM     10  C   UNL     1       1.674  -1.394   0.868  0.00  0.00    +0.023 A 
ATOM     11  C   UNL     1       1.911  -2.452   1.723  0.00  0.00    +0.002 A 
ATOM     12  C   UNL     1       1.443  -3.715   1.410  0.00  0.00    +0.003 A 
ATOM     13  C   UNL     1       0.737  -3.924   0.240  0.00  0.00    -0.049 A 
ATOM     14  C   UNL     1       0.491  -2.869  -0.618  0.00  0.00    +0.026 A 
ATOM     15  C   UNL     1       0.229  -5.302  -0.098  0.00  0.00    +0.044 C 
ENDBRANCH   1   9
BRANCH   3  16
ATOM     16  N   UNL     1      -2.031   0.087  -1.081  0.00  0.00    -0.353 N 
ATOM     17  H   UNL     1      -1.510   0.153  -0.266  0.00  0.00    +0.143 HD
ATOM     18  H   UNL     1      -2.961   0.365  -1.086  0.00  0.00    +0.143 HD
ENDBRANCH   3  16
BRANCH   1  20
ATOM     19  C   UNL     1       2.736   0.825  -1.462  0.00  0.00    +0.025 C 
ATOM     20  C   UNL     1       1.312   0.781  -0.904  0.00  0.00    +0.109 C 
ENDBRANCH   1  20
BRANCH   4  21
ATOM     21  N   UNL     1      -3.560  -0.324  -3.419  0.00  0.00    -0.298 N 
ATOM     22  H   UNL     1      -3.973   0.094  -2.648  0.00  0.00    +0.154 HD
BRANCH  21  23
ATOM     23  C   UNL     1      -4.332  -0.638  -4.542  0.00  0.00    +0.051 A 
ATOM     24  C   UNL     1      -4.758   0.370  -5.397  0.00  0.00    +0.037 A 
ATOM     25  C   UNL     1      -5.520   0.057  -6.505  0.00  0.00    +0.057 A 
ATOM     26  C   UNL     1      -5.861  -1.258  -6.764  0.00  0.00    +0.014 A 
ATOM     27  C   UNL     1      -5.439  -2.265  -5.914  0.00  0.00    +0.022 A 
ATOM     28  C   UNL     1      -4.670  -1.960  -4.807  0.00  0.00    +0.062 A 
ATOM     29 CL   UNL     1      -4.135  -3.224  -3.745  0.00  0.00    -0.082 Cl
BRANCH  25  30
ATOM     30  C   UNL     1      -5.983   1.150  -7.434  0.00  0.00    +0.417 C 
ATOM     31  F   UNL     1      -5.027   1.345  -8.437  0.00  0.00    -0.166 F 
ATOM     32  F   UNL     1      -7.201   0.784  -8.016  0.00  0.00    -0.166 F 
ATOM     33  F   UNL     1      -6.149   2.336  -6.712  0.00  0.00    -0.166 F 
ENDBRANCH  25  30
ENDBRANCH  21  23
ENDBRANCH   4  21
TORSDOF 6
