REMARK  Name = ZINC09382624
REMARK  8 active torsions:
REMARK  status: ('A' for Active; 'I' for Inactive)
REMARK    1  A    between atoms: C_1  and  C_2
REMARK    2  A    between atoms: C_2  and  C_4
REMARK    3  A    between atoms: C_2  and  N_22
REMARK    4  A    between atoms: C_4  and  C_6
REMARK    5  A    between atoms: C_4  and  N_57
REMARK    6  A    between atoms: N_13  and  C_16
REMARK    7  A    between atoms: N_22  and  S_23
REMARK    8  A    between atoms: S_23  and  C_26
REMARK                            x       y       z     vdW  Elec       q    Type
REMARK                         _______ _______ _______ _____ _____    ______ ____
ROOT
ATOM      1  C   UNL     1       2.615  -1.751   0.105  0.00  0.00    -0.012 C 
ENDROOT
BRANCH   1   7
ATOM      2  C   UNL     1       2.078  -2.352   2.389  0.00  0.00    -0.059 C 
ATOM      3  C   UNL     1       1.511  -3.466   3.272  0.00  0.00    +0.086 C 
ATOM      4  N   UNL     1       2.365  -4.657   3.161  0.00  0.00    -0.333 N 
ATOM      5  C   UNL     1       2.434  -5.125   1.770  0.00  0.00    +0.086 C 
ATOM      6  C   UNL     1       3.001  -4.010   0.887  0.00  0.00    -0.059 C 
ATOM      7  N   UNL     1       2.121  -2.827   0.990  0.00  0.00    +0.388 N 
ATOM      8  H   UNL     1       1.172  -3.090   0.698  0.00  0.00    -0.081 HD
BRANCH   4   9
ATOM      9  C   UNL     1       1.919  -5.673   4.010  0.00  0.00    +0.030 A 
ATOM     10  C   UNL     1       1.604  -6.924   3.493  0.00  0.00    +0.023 A 
ATOM     11  C   UNL     1       1.168  -7.927   4.335  0.00  0.00    +0.002 A 
ATOM     12  C   UNL     1       1.035  -7.686   5.690  0.00  0.00    +0.000 A 
ATOM     13  C   UNL     1       1.342  -6.441   6.207  0.00  0.00    +0.002 A 
ATOM     14  C   UNL     1       1.784  -5.434   5.371  0.00  0.00    +0.023 A 
ENDBRANCH   4   9
ENDBRANCH   1   7
BRANCH   1  15
ATOM     15  C   UNL     1       1.700  -0.560   0.223  0.00  0.00    -0.022 A 
ATOM     16  C   UNL     1       2.010   0.759   0.215  0.00  0.00    +0.009 A 
ATOM     17  C   UNL     1       0.993   1.688   0.339  0.00  0.00    +0.008 A 
ATOM     18  C   UNL     1      -0.284   1.251   0.466  0.00  0.00    +0.045 A 
ATOM     19  S   UNL     1      -0.075  -0.521   0.411  0.00  0.00    -0.103 S 
ENDBRANCH   1  15
BRANCH   1  21
ATOM     20  C   UNL     1       1.208  -2.731  -1.711  0.00  0.00    +0.024 C 
ATOM     21  C   UNL     1       2.613  -2.255  -1.339  0.00  0.00    +0.065 C 
BRANCH  21  22
ATOM     22  N   UNL     1       3.014  -1.168  -2.236  0.00  0.00    -0.188 NA
ATOM     23  H   UNL     1       2.753  -0.255  -2.038  0.00  0.00    +0.148 HD
BRANCH  22  24
ATOM     24  S   UNL     1       3.912  -1.498  -3.588  0.00  0.00    +0.059 S 
ATOM     25  O   UNL     1       4.113  -0.260  -4.254  0.00  0.00    -0.153 OA
ATOM     26  O   UNL     1       4.992  -2.321  -3.167  0.00  0.00    -0.153 OA
BRANCH  24  27
ATOM     27  C   UNL     1       2.911  -2.486  -4.650  0.00  0.00    +0.105 A 
ATOM     28  C   UNL     1       2.945  -3.864  -4.548  0.00  0.00    +0.029 A 
ATOM     29  C   UNL     1       2.157  -4.638  -5.377  0.00  0.00    +0.017 A 
ATOM     30  C   UNL     1       1.341  -4.035  -6.317  0.00  0.00    +0.018 A 
ATOM     31  C   UNL     1       1.311  -2.656  -6.423  0.00  0.00    +0.017 A 
ATOM     32  C   UNL     1       2.096  -1.882  -5.589  0.00  0.00    +0.029 A 
ATOM     33 BR   UNL     1       0.267  -5.094  -7.457  0.00  0.00    -0.050 Br
ENDBRANCH  24  27
ENDBRANCH  22  24
ENDBRANCH  21  22
ENDBRANCH   1  21
TORSDOF 7
