REMARK  Name = ZINC00706803
REMARK  5 active torsions:
REMARK  status: ('A' for Active; 'I' for Inactive)
REMARK    1  A    between atoms: C_12  and  C_20
REMARK    2  A    between atoms: C_14  and  C_18
REMARK    3  A    between atoms: C_15  and  N_17
REMARK    4  A    between atoms: C_25  and  O_26
REMARK    5  A    between atoms: O_26  and  C_27
REMARK                            x       y       z     vdW  Elec       q    Type
REMARK                         _______ _______ _______ _____ _____    ______ ____
ROOT
ATOM      1  C   UNL     1      -1.739   7.473   1.222  0.00  0.00    +0.001 A 
ATOM      2  C   UNL     1      -0.615   8.193   1.600  0.00  0.00    +0.004 A 
ATOM      3  C   UNL     1       0.632   7.605   1.592  0.00  0.00    +0.047 A 
ATOM      4  C   UNL     1       0.772   6.280   1.202  0.00  0.00    +0.143 A 
ATOM      5  C   UNL     1      -0.365   5.550   0.819  0.00  0.00    +0.060 A 
ATOM      6  C   UNL     1      -1.622   6.157   0.832  0.00  0.00    +0.015 A 
ATOM      7  C   UNL     1      -0.202   4.147   0.406  0.00  0.00    +0.152 A 
ATOM      8  C   UNL     1       1.052   3.614   0.415  0.00  0.00    +0.092 A 
ATOM      9  C   UNL     1       2.142   4.408   0.813  0.00  0.00    +0.345 A 
ATOM     10  O   UNL     1       3.259   3.922   0.818  0.00  0.00    -0.245 OA
ATOM     11  O   UNL     1       1.985   5.688   1.188  0.00  0.00    -0.422 OA
ATOM     12  C   UNL     1       1.281   2.185   0.002  0.00  0.00    +0.109 C 
ATOM     13  C   UNL     1      -0.017   1.428   0.010  0.00  0.00    +0.098 C 
ATOM     14  C   UNL     1      -1.206   2.078   0.019  0.00  0.00    +0.199 C 
ATOM     15  O   UNL     1      -1.273   3.422   0.033  0.00  0.00    -0.440 OA
ENDROOT
BRANCH  12  16
ATOM     16  C   UNL     1       1.868   2.154  -1.386  0.00  0.00    +0.008 A 
ATOM     17  C   UNL     1       1.160   2.683  -2.448  0.00  0.00    +0.023 A 
ATOM     18  C   UNL     1       1.700   2.660  -3.721  0.00  0.00    +0.018 A 
ATOM     19  C   UNL     1       2.946   2.097  -3.936  0.00  0.00    +0.019 A 
ATOM     20  C   UNL     1       3.655   1.563  -2.878  0.00  0.00    +0.047 A 
ATOM     21  C   UNL     1       3.118   1.591  -1.599  0.00  0.00    +0.131 A 
ATOM     22 BR   UNL     1       0.732   3.390  -5.172  0.00  0.00    -0.050 Br
BRANCH  21  23
ATOM     23  O   UNL     1       3.814   1.065  -0.556  0.00  0.00    -0.434 OA
BRANCH  23  24
ATOM     24  C   UNL     1       5.094   0.502  -0.849  0.00  0.00    +0.541 C 
ATOM     25  F   UNL     1       4.944  -0.544  -1.766  0.00  0.00    -0.166 F 
ATOM     26  F   UNL     1       5.923   1.486  -1.397  0.00  0.00    -0.166 F 
ENDBRANCH  23  24
ENDBRANCH  21  23
ENDBRANCH  12  16
BRANCH  14  27
ATOM     27  N   UNL     1      -2.368   1.349   0.020  0.00  0.00    -0.328 N 
ATOM     28  H   UNL     1      -2.333   0.379   0.014  0.00  0.00    +0.145 HD
ATOM     29  H   UNL     1      -3.226   1.802   0.026  0.00  0.00    +0.145 HD
ENDBRANCH  14  27
BRANCH  13  30
ATOM     30  C   UNL     1       0.002  -0.004   0.002  0.00  0.00    +0.101 C 
ATOM     31  N   UNL     1       0.018  -1.140  -0.004  0.00  0.00    -0.191 NA
ENDBRANCH  13  30
TORSDOF 5
