REMARK  Name = ZINC34923475
REMARK  12 active torsions:
REMARK  status: ('A' for Active; 'I' for Inactive)
REMARK    1  A    between atoms: C_1  and  C_2
REMARK    2  A    between atoms: C_3  and  C_32
REMARK    3  A    between atoms: C_4  and  C_24
REMARK    4  A    between atoms: C_7  and  C_12
REMARK    5  A    between atoms: C_13  and  N_15
REMARK    6  A    between atoms: N_15  and  C_16
REMARK    7  A    between atoms: C_16  and  C_17
REMARK    8  A    between atoms: C_17  and  N_18
REMARK    9  A    between atoms: C_27  and  O_30
REMARK   10  A    between atoms: O_30  and  C_31
REMARK   11  A    between atoms: C_32  and  O_34
REMARK   12  A    between atoms: O_34  and  C_35
REMARK                            x       y       z     vdW  Elec       q    Type
REMARK                         _______ _______ _______ _____ _____    ______ ____
ROOT
ATOM      1  C   UNL     1      -0.028   1.553   0.210  0.00  0.00    +0.066 C 
ATOM      2  C   UNL     1      -0.020   0.047   0.156  0.00  0.00    +0.053 C 
ATOM      3  C   UNL     1      -1.215  -0.645   0.142  0.00  0.00    +0.082 C 
ATOM      4  C   UNL     1      -1.155  -2.155   0.086  0.00  0.00    +0.150 C 
ATOM      5  N   UNL     1       0.195  -2.778   0.051  0.00  0.00    -0.267 N 
ATOM      6  C   UNL     1       0.487  -4.126  -0.001  0.00  0.00    +0.048 C 
ATOM      7  C   UNL     1       1.790  -4.485  -0.026  0.00  0.00    +0.072 C 
ATOM      8  S   UNL     1       2.609  -2.903   0.024  0.00  0.00    -0.060 S 
ATOM      9  C   UNL     1       1.254  -1.914   0.073  0.00  0.00    +0.166 C 
ATOM     10  N   UNL     1       1.132  -0.603   0.117  0.00  0.00    -0.230 NA
ENDROOT
BRANCH   4  11
ATOM     11  C   UNL     1      -1.905  -2.605  -1.141  0.00  0.00    -0.022 A 
ATOM     12  C   UNL     1      -1.341  -2.439  -2.393  0.00  0.00    +0.009 A 
ATOM     13  C   UNL     1      -2.026  -2.849  -3.520  0.00  0.00    +0.046 A 
ATOM     14  C   UNL     1      -3.280  -3.429  -3.395  0.00  0.00    +0.120 A 
ATOM     15  C   UNL     1      -3.843  -3.595  -2.138  0.00  0.00    +0.046 A 
ATOM     16  C   UNL     1      -3.152  -3.188  -1.014  0.00  0.00    +0.009 A 
BRANCH  14  17
ATOM     17  O   UNL     1      -3.956  -3.834  -4.503  0.00  0.00    -0.495 OA
ATOM     18  C   UNL     1      -5.242  -4.423  -4.299  0.00  0.00    +0.277 C 
ENDBRANCH  14  17
ENDBRANCH   4  11
BRANCH   6  19
ATOM     19  C   UNL     1      -0.581  -5.136  -0.027  0.00  0.00    +0.091 C 
ATOM     20  C   UNL     1      -0.274  -6.444   0.069  0.00  0.00    +0.239 C 
ATOM     21  O   UNL     1       1.002  -6.823   0.324  0.00  0.00    -0.271 OA
BRANCH  20  22
ATOM     22  N   UNL     1      -1.261  -7.401  -0.092  0.00  0.00    -0.314 N 
ATOM     23  H   UNL     1      -2.186  -7.129  -0.201  0.00  0.00    +0.149 HD
BRANCH  22  24
ATOM     24  C   UNL     1      -0.909  -8.823  -0.099  0.00  0.00    +0.086 C 
BRANCH  24  25
ATOM     25  C   UNL     1      -2.154  -9.655  -0.415  0.00  0.00    -0.060 C 
BRANCH  25  26
ATOM     26  N   UNL     1      -1.801 -11.081  -0.422  0.00  0.00    +0.381 N 
ATOM     27  C   UNL     1      -0.859 -11.345  -1.516  0.00  0.00    -0.079 C 
ATOM     28  C   UNL     1      -0.425 -12.812  -1.478  0.00  0.00    -0.019 C 
ATOM     29  C   UNL     1      -1.658 -13.707  -1.637  0.00  0.00    -0.004 C 
ATOM     30  C   UNL     1      -2.666 -13.371  -0.534  0.00  0.00    -0.019 C 
ATOM     31  C   UNL     1      -3.016 -11.883  -0.607  0.00  0.00    -0.079 C 
ATOM     32  H   UNL     1      -1.369 -11.323   0.457  0.00  0.00    -0.082 HD
ENDBRANCH  25  26
ENDBRANCH  24  25
ENDBRANCH  22  24
ENDBRANCH  20  22
ENDBRANCH   6  19
BRANCH   3  33
ATOM     33  C   UNL     1      -2.442   0.029   0.178  0.00  0.00    +0.339 C 
ATOM     34  O   UNL     1      -2.467   1.247   0.223  0.00  0.00    -0.245 OA
BRANCH  33  35
ATOM     35  O   UNL     1      -3.598  -0.670   0.163  0.00  0.00    -0.465 OA
ATOM     36  C   UNL     1      -4.812   0.082   0.202  0.00  0.00    +0.280 C 
ENDBRANCH  33  35
ENDBRANCH   3  33
TORSDOF 9
