REMARK  Name = ZINC66244147
REMARK  5 active torsions:
REMARK  status: ('A' for Active; 'I' for Inactive)
REMARK    1  A    between atoms: C_2  and  C_3
REMARK    2  A    between atoms: C_3  and  N_4
REMARK    3  A    between atoms: N_7  and  C_8
REMARK    4  A    between atoms: C_8  and  C_9
REMARK    5  A    between atoms: C_9  and  C_10
REMARK                            x       y       z     vdW  Elec       q    Type
REMARK                         _______ _______ _______ _____ _____    ______ ____
ROOT
ATOM      1  N   UNL     1      -1.318  -1.700  -1.126  0.00  0.00    -0.354 N 
ATOM      2  C   UNL     1      -2.350  -2.472  -1.315  0.00  0.00    +0.169 C 
ATOM      3  N   UNL     1      -3.417  -2.419  -0.449  0.00  0.00    -0.371 N 
ATOM      4  N   UNL     1      -2.374  -3.339  -2.382  0.00  0.00    -0.357 N 
ATOM      5  H   UNL     1      -3.400  -1.807   0.303  0.00  0.00    +0.159 HD
ATOM      6  H   UNL     1      -4.185  -2.993  -0.590  0.00  0.00    +0.159 HD
ATOM      7  H   UNL     1      -1.622  -3.377  -2.993  0.00  0.00    +0.162 HD
ATOM      8  H   UNL     1      -0.566  -1.737  -1.737  0.00  0.00    +0.163 HD
ENDROOT
BRANCH   1   9
ATOM      9  C   UNL     1      -1.293  -0.775   0.010  0.00  0.00    +0.142 C 
BRANCH   9  11
ATOM     10  C   UNL     1      -0.016   1.306   0.009  0.00  0.00    +0.005 C 
ATOM     11  C   UNL     1       0.002  -0.004   0.002  0.00  0.00    -0.014 C 
ENDBRANCH   9  11
ENDBRANCH   1   9
BRANCH   4  12
ATOM     12  C   UNL     1      -3.535  -4.207  -2.595  0.00  0.00    +0.120 C 
BRANCH  12  13
ATOM     13  C   UNL     1      -3.308  -5.067  -3.840  0.00  0.00    +0.056 C 
BRANCH  13  14
ATOM     14  C   UNL     1      -4.502  -5.960  -4.058  0.00  0.00    -0.044 A 
ATOM     15  C   UNL     1      -4.543  -7.213  -3.477  0.00  0.00    +0.006 A 
ATOM     16  C   UNL     1      -5.638  -8.033  -3.676  0.00  0.00    +0.040 A 
ATOM     17  C   UNL     1      -6.694  -7.599  -4.459  0.00  0.00    +0.137 A 
ATOM     18  C   UNL     1      -6.652  -6.343  -5.042  0.00  0.00    +0.053 A 
ATOM     19  C   UNL     1      -5.557  -5.522  -4.836  0.00  0.00    +0.021 A 
ATOM     20 BR   UNL     1      -8.093  -5.747  -6.112  0.00  0.00    -0.047 Br
ATOM     21  F   UNL     1      -7.764  -8.399  -4.655  0.00  0.00    -0.204 F 
ENDBRANCH  13  14
ENDBRANCH  12  13
ENDBRANCH   4  12
TORSDOF 5
