REMARK  Name = ZINC03346916
REMARK  7 active torsions:
REMARK  status: ('A' for Active; 'I' for Inactive)
REMARK    1  A    between atoms: C_4  and  C_7
REMARK    2  A    between atoms: C_7  and  C_9
REMARK    3  A    between atoms: C_7  and  N_58
REMARK    4  A    between atoms: N_11  and  C_12
REMARK    5  A    between atoms: C_16  and  N_18
REMARK    6  A    between atoms: N_24  and  C_27
REMARK    7  A    between atoms: C_31  and  C_33
REMARK                            x       y       z     vdW  Elec       q    Type
REMARK                         _______ _______ _______ _____ _____    ______ ____
ROOT
ATOM      1  C   UNL     1      -5.617  -1.514   1.089  0.00  0.00    +0.050 C 
ENDROOT
BRANCH   1   7
ATOM      2  C   UNL     1      -3.523  -1.142  -0.070  0.00  0.00    -0.058 C 
ATOM      3  C   UNL     1      -2.186  -0.401   0.003  0.00  0.00    +0.086 C 
ATOM      4  N   UNL     1      -2.432   1.047   0.020  0.00  0.00    -0.333 N 
ATOM      5  C   UNL     1      -3.262   1.424   1.173  0.00  0.00    +0.086 C 
ATOM      6  C   UNL     1      -4.599   0.683   1.100  0.00  0.00    -0.058 C 
ATOM      7  N   UNL     1      -4.338  -0.772   1.106  0.00  0.00    +0.392 N 
ATOM      8  H   UNL     1      -3.822  -1.015   1.959  0.00  0.00    -0.080 HD
BRANCH   4   9
ATOM      9  C   UNL     1      -1.230   1.759   0.014  0.00  0.00    +0.030 A 
ATOM     10  C   UNL     1      -0.019   1.080  -0.006  0.00  0.00    +0.023 A 
ATOM     11  C   UNL     1       1.167   1.786  -0.017  0.00  0.00    +0.002 A 
ATOM     12  C   UNL     1       1.150   3.169  -0.003  0.00  0.00    +0.012 A 
ATOM     13  C   UNL     1      -0.053   3.849   0.021  0.00  0.00    +0.057 A 
ATOM     14  C   UNL     1      -1.244   3.148   0.033  0.00  0.00    +0.035 A 
BRANCH  13  15
ATOM     15  C   UNL     1      -0.067   5.356   0.035  0.00  0.00    +0.417 C 
ATOM     16  F   UNL     1       1.247   5.834   0.019  0.00  0.00    -0.166 F 
ATOM     17  F   UNL     1      -0.749   5.826  -1.093  0.00  0.00    -0.166 F 
ATOM     18  F   UNL     1      -0.713   5.806   1.191  0.00  0.00    -0.166 F 
ENDBRANCH  13  15
ENDBRANCH   4   9
ENDBRANCH   1   7
BRANCH   1  22
ATOM     19  C   UNL     1      -8.231   0.129   4.041  0.00  0.00    +0.000 A 
ATOM     20  C   UNL     1      -8.735  -0.273   2.818  0.00  0.00    +0.000 A 
ATOM     21  C   UNL     1      -7.889  -0.805   1.863  0.00  0.00    +0.002 A 
ATOM     22  C   UNL     1      -6.539  -0.934   2.130  0.00  0.00    -0.052 A 
ATOM     23  C   UNL     1      -6.036  -0.536   3.355  0.00  0.00    +0.002 A 
ATOM     24  C   UNL     1      -6.881   0.000   4.308  0.00  0.00    +0.000 A 
ENDBRANCH   1  22
BRANCH   1  25
ATOM     25  C   UNL     1      -5.343  -2.960   1.411  0.00  0.00    +0.208 C 
ATOM     26  O   UNL     1      -4.206  -3.331   1.615  0.00  0.00    -0.277 OA
ATOM     27  N   UNL     1      -6.360  -3.842   1.472  0.00  0.00    -0.286 N 
ATOM     28  H   UNL     1      -7.275  -3.534   1.375  0.00  0.00    +0.155 HD
BRANCH  27  29
ATOM     29  C   UNL     1      -6.097  -5.202   1.675  0.00  0.00    +0.036 A 
ATOM     30  C   UNL     1      -6.893  -6.163   1.066  0.00  0.00    +0.025 A 
ATOM     31  C   UNL     1      -6.628  -7.503   1.263  0.00  0.00    +0.024 A 
ATOM     32  C   UNL     1      -5.577  -7.890   2.076  0.00  0.00    +0.071 A 
ATOM     33  C   UNL     1      -4.785  -6.934   2.688  0.00  0.00    +0.146 A 
ATOM     34  C   UNL     1      -5.043  -5.592   2.489  0.00  0.00    +0.057 A 
ATOM     35 CL   UNL     1      -5.250  -9.576   2.327  0.00  0.00    -0.081 Cl
BRANCH  33  36
ATOM     36  N   UNL     1      -3.661  -7.351   3.557  0.00  0.00    +0.058 N 
ATOM     37  O   UNL     1      -2.964  -6.510   4.096  0.00  0.00    -0.126 OA
ATOM     38  O   UNL     1      -3.434  -8.535   3.733  0.00  0.00    -0.126 OA
ENDBRANCH  33  36
ENDBRANCH  27  29
ENDBRANCH   1  25
TORSDOF 7
