REMARK  Name = ZINC27325769
REMARK  8 active torsions:
REMARK  status: ('A' for Active; 'I' for Inactive)
REMARK    1  A    between atoms: C_1  and  C_2
REMARK    2  A    between atoms: C_2  and  C_39
REMARK    3  A    between atoms: C_7  and  C_21
REMARK    4  A    between atoms: C_8  and  N_11
REMARK    5  A    between atoms: C_14  and  C_19
REMARK    6  A    between atoms: C_19  and  N_20
REMARK    7  A    between atoms: C_21  and  S_22
REMARK    8  A    between atoms: S_22  and  N_25
REMARK                            x       y       z     vdW  Elec       q    Type
REMARK                         _______ _______ _______ _____ _____    ______ ____
ROOT
ATOM      1  C   UNL     1       1.993  10.932   0.609  0.00  0.00    +0.012 C 
ATOM      2  C   UNL     1       1.233  11.105  -0.707  0.00  0.00    -0.023 C 
ATOM      3  C   UNL     1      -0.003  12.059  -0.553  0.00  0.00    -0.003 C 
ATOM      4  C   UNL     1      -0.868  11.248   0.460  0.00  0.00    +0.005 C 
ATOM      5  C   UNL     1      -0.596   9.768   0.108  0.00  0.00    +0.011 C 
ATOM      6  C   UNL     1       0.408   9.824  -1.083  0.00  0.00    +0.016 C 
ATOM      7  C   UNL     1      -0.439  10.344  -2.284  0.00  0.00    +0.094 C 
ATOM      8  C   UNL     1      -0.707  11.845  -1.927  0.00  0.00    +0.027 C 
ATOM      9  C   UNL     1       2.159  11.545  -1.843  0.00  0.00    +0.012 C 
ENDROOT
BRANCH   7  10
ATOM     10  N   UNL     1      -1.700   9.604  -2.378  0.00  0.00    -0.221 N 
ATOM     11  C   UNL     1      -2.839   9.966  -1.756  0.00  0.00    +0.242 C 
ATOM     12  O   UNL     1      -3.008  10.930  -1.041  0.00  0.00    -0.273 OA
ATOM     13  C   UNL     1      -3.866   8.920  -2.139  0.00  0.00    +0.144 C 
ATOM     14  N   UNL     1      -3.114   7.998  -3.008  0.00  0.00    -0.289 N 
ATOM     15  C   UNL     1      -1.861   8.481  -3.088  0.00  0.00    +0.309 C 
ATOM     16  O   UNL     1      -0.974   7.955  -3.732  0.00  0.00    -0.252 OA
ATOM     17  H   UNL     1      -3.614   7.120  -3.442  0.00  0.00    +0.151 HD
BRANCH  13  18
ATOM     18  C   UNL     1      -5.030   9.552  -2.905  0.00  0.00    -0.054 C 
BRANCH  18  19
ATOM     19  N   UNL     1      -5.891   8.493  -3.449  0.00  0.00    +0.380 N 
ATOM     20  H   UNL     1      -6.728   8.947  -4.000  0.00  0.00    -0.090 HD
ATOM     21  H   UNL     1      -6.284   7.880  -2.625  0.00  0.00    -0.090 HD
ATOM     22  H   UNL     1      -5.305   7.859  -4.131  0.00  0.00    -0.090 HD
ENDBRANCH  18  19
ENDBRANCH  13  18
ENDBRANCH   7  10
BRANCH   6  23
ATOM     23  C   UNL     1       1.217   8.550  -1.338  0.00  0.00    +0.194 C 
BRANCH  23  24
ATOM     24  S   UNL     1       1.177   7.503   0.143  0.00  0.00    +0.032 S 
ATOM     25  O   UNL     1      -0.163   7.152   0.460  0.00  0.00    -0.158 OA
ATOM     26  O   UNL     1       2.042   8.032   1.139  0.00  0.00    -0.158 OA
BRANCH  24  27
ATOM     27  N   UNL     1       1.888   6.081  -0.321  0.00  0.00    -0.181 NA
ATOM     28  C   UNL     1       3.338   5.890  -0.183  0.00  0.00    +0.110 C 
ATOM     29  C   UNL     1       3.591   4.607   0.618  0.00  0.00    +0.028 C 
ATOM     30  C   UNL     1       2.852   3.446  -0.041  0.00  0.00    -0.001 C 
ATOM     31  C   UNL     1       3.378   3.233  -1.473  0.00  0.00    +0.016 C 
ATOM     32  C   UNL     1       3.293   1.700  -1.630  0.00  0.00    +0.036 C 
ATOM     33  C   UNL     1       3.394   1.150  -0.223  0.00  0.00    -0.044 A 
ATOM     34  C   UNL     1       3.139   2.157   0.692  0.00  0.00    -0.038 A 
ATOM     35  C   UNL     1       3.175   1.879   2.048  0.00  0.00    +0.004 A 
ATOM     36  C   UNL     1       3.465   0.603   2.490  0.00  0.00    +0.000 A 
ATOM     37  C   UNL     1       3.720  -0.402   1.576  0.00  0.00    +0.000 A 
ATOM     38  C   UNL     1       3.684  -0.128   0.222  0.00  0.00    +0.004 A 
ATOM     39  C   UNL     1       1.350   3.714  -0.074  0.00  0.00    +0.028 C 
ATOM     40  C   UNL     1       1.079   4.989  -0.880  0.00  0.00    +0.110 C 
ENDBRANCH  24  27
ENDBRANCH  23  24
ENDBRANCH   6  23
TORSDOF 6
