REMARK  Name = ZINC59333904
REMARK  11 active torsions:
REMARK  status: ('A' for Active; 'I' for Inactive)
REMARK    1  A    between atoms: C_1  and  C_2
REMARK    2  A    between atoms: C_4  and  S_27
REMARK    3  A    between atoms: C_6  and  N_9
REMARK    4  A    between atoms: C_7  and  C_8
REMARK    5  A    between atoms: C_10  and  C_12
REMARK    6  A    between atoms: C_12  and  N_13
REMARK    7  A    between atoms: N_13  and  C_14
REMARK    8  A    between atoms: N_13  and  C_17
REMARK    9  A    between atoms: C_17  and  C_19
REMARK   10  A    between atoms: C_17  and  C_20
REMARK   11  A    between atoms: S_27  and  N_30
REMARK                            x       y       z     vdW  Elec       q    Type
REMARK                         _______ _______ _______ _____ _____    ______ ____
ROOT
ATOM      1  N   UNL     1       0.473  -2.976   2.007  0.00  0.00    -0.287 N 
ATOM      2  C   UNL     1       0.229  -4.294   2.148  0.00  0.00    +0.201 C 
ATOM      3  O   UNL     1       0.158  -5.006   1.169  0.00  0.00    -0.278 OA
ATOM      4  H   UNL     1       0.601  -2.420   2.791  0.00  0.00    +0.155 HD
ENDROOT
BRANCH   1  10
ATOM      5  C   UNL     1       2.080   0.603  -0.957  0.00  0.00    +0.044 C 
ATOM      6  C   UNL     1       1.313  -0.675  -0.736  0.00  0.00    -0.044 A 
ATOM      7  C   UNL     1       0.675  -1.291  -1.798  0.00  0.00    +0.032 A 
ATOM      8  C   UNL     1      -0.029  -2.464  -1.600  0.00  0.00    +0.107 A 
ATOM      9  C   UNL     1      -0.098  -3.025  -0.339  0.00  0.00    +0.052 A 
ATOM     10  C   UNL     1       0.541  -2.410   0.729  0.00  0.00    +0.038 A 
ATOM     11  C   UNL     1       1.252  -1.234   0.525  0.00  0.00    -0.026 A 
ATOM     12  C   UNL     1       1.952  -0.566   1.681  0.00  0.00    +0.046 C 
BRANCH   8  13
ATOM     13  S   UNL     1      -0.840  -3.243  -2.956  0.00  0.00    +0.056 S 
ATOM     14  O   UNL     1      -1.884  -4.034  -2.405  0.00  0.00    -0.153 OA
ATOM     15  O   UNL     1      -1.081  -2.230  -3.922  0.00  0.00    -0.153 OA
BRANCH  13  16
ATOM     16  N   UNL     1       0.243  -4.296  -3.634  0.00  0.00    -0.204 NA
ATOM     17  H   UNL     1       1.135  -4.381  -3.263  0.00  0.00    +0.144 HD
ATOM     18  H   UNL     1      -0.015  -4.828  -4.403  0.00  0.00    +0.144 HD
ENDBRANCH  13  16
ENDBRANCH   8  13
ENDBRANCH   1  10
BRANCH   2  19
ATOM     19  C   UNL     1       0.044  -4.883   3.523  0.00  0.00    +0.020 C 
BRANCH  19  20
ATOM     20  N   UNL     1      -0.087  -6.342   3.417  0.00  0.00    +0.392 N 
ATOM     21  H   UNL     1      -0.121  -6.745   4.341  0.00  0.00    -0.080 HD
BRANCH  20  22
ATOM     22  C   UNL     1       1.067  -6.886   2.688  0.00  0.00    -0.067 C 
ATOM     23  C   UNL     1       1.775  -8.101   3.291  0.00  0.00    -0.017 C 
ATOM     24  C   UNL     1       2.446  -6.726   3.330  0.00  0.00    -0.017 C 
ENDBRANCH  20  22
BRANCH  20  25
ATOM     25  C   UNL     1      -1.323  -6.671   2.693  0.00  0.00    -0.038 C 
ATOM     26  C   UNL     1      -1.410  -8.186   2.496  0.00  0.00    -0.008 C 
BRANCH  25  27
ATOM     27  C   UNL     1      -2.512  -6.199   3.490  0.00  0.00    -0.043 A 
ATOM     28  C   UNL     1      -2.382  -5.947   4.842  0.00  0.00    +0.003 A 
ATOM     29  C   UNL     1      -3.473  -5.513   5.573  0.00  0.00    +0.000 A 
ATOM     30  C   UNL     1      -4.694  -5.332   4.951  0.00  0.00    +0.001 A 
ATOM     31  C   UNL     1      -4.825  -5.585   3.598  0.00  0.00    +0.020 A 
ATOM     32  C   UNL     1      -3.732  -6.013   2.865  0.00  0.00    +0.043 A 
ATOM     33 CL   UNL     1      -3.894  -6.324   1.165  0.00  0.00    -0.083 Cl
ENDBRANCH  25  27
ENDBRANCH  20  25
ENDBRANCH  19  20
ENDBRANCH   2  19
TORSDOF 8
