REMARK  Name = ZINC48154082
REMARK  12 active torsions:
REMARK  status: ('A' for Active; 'I' for Inactive)
REMARK    1  A    between atoms: C_1  and  N_2
REMARK    2  A    between atoms: N_2  and  C_3
REMARK    3  A    between atoms: N_2  and  C_4
REMARK    4  A    between atoms: C_4  and  C_5
REMARK    5  A    between atoms: C_9  and  C_11
REMARK    6  A    between atoms: C_11  and  N_12
REMARK    7  A    between atoms: N_15  and  C_16
REMARK    8  A    between atoms: C_20  and  C_22
REMARK    9  A    between atoms: N_24  and  C_25
REMARK   10  A    between atoms: C_25  and  C_26
REMARK   11  A    between atoms: C_26  and  O_28
REMARK   12  A    between atoms: O_28  and  C_29
REMARK                            x       y       z     vdW  Elec       q    Type
REMARK                         _______ _______ _______ _____ _____    ______ ____
ROOT
ATOM      1  N   UNL     1       5.553  -1.104   1.517  0.00  0.00    -0.295 N 
ATOM      2  C   UNL     1       6.411  -1.800   2.288  0.00  0.00    +0.304 C 
ATOM      3  O   UNL     1       7.086  -2.686   1.800  0.00  0.00    -0.252 OA
ATOM      4  N   UNL     1       6.521  -1.515   3.601  0.00  0.00    -0.269 N 
ATOM      5  H   UNL     1       5.014  -0.398   1.907  0.00  0.00    +0.151 HD
ATOM      6  H   UNL     1       6.033  -0.766   3.977  0.00  0.00    +0.156 HD
ENDROOT
BRANCH   4   7
ATOM      7  C   UNL     1       7.340  -2.300   4.421  0.00  0.00    +0.035 A 
ATOM      8  C   UNL     1       6.968  -2.552   5.737  0.00  0.00    +0.023 A 
ATOM      9  C   UNL     1       7.772  -3.326   6.551  0.00  0.00    +0.003 A 
ATOM     10  C   UNL     1       8.950  -3.855   6.064  0.00  0.00    +0.013 A 
ATOM     11  C   UNL     1       9.332  -3.609   4.744  0.00  0.00    +0.038 A 
ATOM     12  C   UNL     1       8.518  -2.831   3.921  0.00  0.00    +0.036 A 
BRANCH  11  13
ATOM     13  C   UNL     1      10.594  -4.174   4.219  0.00  0.00    +0.245 C 
ATOM     14  O   UNL     1      10.924  -3.958   3.069  0.00  0.00    -0.270 OA
ATOM     15  N   UNL     1      11.377  -4.929   5.015  0.00  0.00    -0.301 N 
ATOM     16  H   UNL     1      11.113  -5.101   5.932  0.00  0.00    +0.150 HD
BRANCH  15  17
ATOM     17  C   UNL     1      12.626  -5.489   4.495  0.00  0.00    +0.225 C 
BRANCH  17  18
ATOM     18  C   UNL     1      13.308  -6.287   5.576  0.00  0.00    +0.324 C 
ATOM     19  O   UNL     1      12.802  -6.378   6.670  0.00  0.00    -0.249 OA
BRANCH  18  20
ATOM     20  O   UNL     1      14.478  -6.896   5.325  0.00  0.00    -0.467 OA
ATOM     21  C   UNL     1      15.068  -7.634   6.397  0.00  0.00    +0.280 C 
ENDBRANCH  18  20
ENDBRANCH  17  18
ENDBRANCH  15  17
ENDBRANCH  11  13
ENDBRANCH   4   7
BRANCH   1  22
ATOM     22  C   UNL     1       5.433  -1.414   0.090  0.00  0.00    +0.141 C 
BRANCH  22  27
ATOM     23  C   UNL     1       2.150  -0.034  -1.162  0.00  0.00    -0.064 A 
ATOM     24  C   UNL     1       2.546   1.179  -1.694  0.00  0.00    +0.002 A 
ATOM     25  C   UNL     1       3.876   1.552  -1.650  0.00  0.00    +0.001 A 
ATOM     26  C   UNL     1       4.810   0.713  -1.072  0.00  0.00    +0.005 A 
ATOM     27  C   UNL     1       4.415  -0.499  -0.539  0.00  0.00    -0.030 A 
ATOM     28  C   UNL     1       3.083  -0.871  -0.580  0.00  0.00    +0.007 A 
BRANCH  23  29
ATOM     29  C   UNL     1       0.700  -0.441  -1.211  0.00  0.00    -0.044 C 
BRANCH  29  31
ATOM     30  C   UNL     1       0.007   1.509   0.003  0.00  0.00    -0.096 C 
ATOM     31  N   UNL     1       0.015   0.040  -0.003  0.00  0.00    +0.379 N 
ATOM     32  C   UNL     1      -1.367  -0.458   0.007  0.00  0.00    -0.096 C 
ATOM     33  H   UNL     1       0.500  -0.297   0.815  0.00  0.00    -0.082 HD
ENDBRANCH  29  31
ENDBRANCH  23  29
ENDBRANCH  22  27
ENDBRANCH   1  22
TORSDOF 9
