REMARK  Name = ZINC56541115
REMARK  12 active torsions:
REMARK  status: ('A' for Active; 'I' for Inactive)
REMARK    1  A    between atoms: C_1  and  C_2
REMARK    2  A    between atoms: C_5  and  N_15
REMARK    3  A    between atoms: C_6  and  O_8
REMARK    4  A    between atoms: O_8  and  C_9
REMARK    5  A    between atoms: C_9  and  C_10
REMARK    6  A    between atoms: N_12  and  C_13
REMARK    7  A    between atoms: N_12  and  C_14
REMARK    8  A    between atoms: N_18  and  C_19
REMARK    9  A    between atoms: C_21  and  C_27
REMARK   10  A    between atoms: C_21  and  C_28
REMARK   11  A    between atoms: C_23  and  C_25
REMARK   12  A    between atoms: C_23  and  C_26
REMARK                            x       y       z     vdW  Elec       q    Type
REMARK                         _______ _______ _______ _____ _____    ______ ____
ROOT
ATOM      1  N   UNL     1       0.087  -4.239  -0.654  0.00  0.00    -0.266 N 
ATOM      2  C   UNL     1      -0.124  -4.951  -1.779  0.00  0.00    +0.304 C 
ATOM      3  O   UNL     1      -0.234  -4.381  -2.848  0.00  0.00    -0.252 OA
ATOM      4  N   UNL     1      -0.212  -6.295  -1.720  0.00  0.00    -0.296 N 
ATOM      5  H   UNL     1       0.236  -4.696   0.188  0.00  0.00    +0.156 HD
ATOM      6  H   UNL     1      -0.124  -6.749  -0.868  0.00  0.00    +0.151 HD
ENDROOT
BRANCH   4   7
ATOM      7  C   UNL     1      -0.442  -7.070  -2.946  0.00  0.00    +0.072 C 
ATOM      8  C   UNL     1      -1.947  -7.163  -3.206  0.00  0.00    +0.009 C 
ATOM      9  C   UNL     1      -2.203  -7.978  -4.473  0.00  0.00    -0.072 C 
ATOM     10  N   UNL     1      -1.564  -9.285  -4.423  0.00  0.00    +0.386 N 
ATOM     11  C   UNL     1      -0.178  -9.342  -3.986  0.00  0.00    -0.072 C 
ATOM     12  C   UNL     1       0.100  -8.486  -2.755  0.00  0.00    +0.009 C 
ATOM     13  C   UNL     1       0.787  -8.966  -5.113  0.00  0.00    -0.010 C 
ATOM     14  C   UNL     1       0.127 -10.810  -3.602  0.00  0.00    -0.010 C 
ATOM     15  C   UNL     1      -1.788  -7.181  -5.709  0.00  0.00    -0.010 C 
ATOM     16  C   UNL     1      -3.729  -8.209  -4.569  0.00  0.00    -0.010 C 
ATOM     17  H   UNL     1      -2.119  -9.890  -3.814  0.00  0.00    -0.084 HD
ATOM     18  H   UNL     1      -1.627  -9.709  -5.352  0.00  0.00    -0.084 HD
ENDBRANCH   4   7
BRANCH   1  23
ATOM     19  C   UNL     1       0.108   1.436  -0.852  0.00  0.00    +0.044 C 
ATOM     20  C   UNL     1       0.102  -0.070  -0.797  0.00  0.00    -0.047 A 
ATOM     21  C   UNL     1       0.444  -0.802  -1.919  0.00  0.00    +0.005 A 
ATOM     22  C   UNL     1       0.440  -2.184  -1.874  0.00  0.00    +0.027 A 
ATOM     23  C   UNL     1       0.092  -2.838  -0.702  0.00  0.00    +0.077 A 
ATOM     24  C   UNL     1      -0.252  -2.100   0.428  0.00  0.00    +0.143 A 
ATOM     25  C   UNL     1      -0.240  -0.716   0.377  0.00  0.00    +0.051 A 
BRANCH  24  26
ATOM     26  O   UNL     1      -0.594  -2.737   1.580  0.00  0.00    -0.481 OA
BRANCH  26  27
ATOM     27  C   UNL     1      -0.935  -1.915   2.698  0.00  0.00    +0.324 C 
BRANCH  27  28
ATOM     28  C   UNL     1      -1.283  -2.789   3.876  0.00  0.00    +0.253 C 
ATOM     29  O   UNL     1      -1.243  -3.996   3.768  0.00  0.00    -0.272 OA
ATOM     30  N   UNL     1      -1.639  -2.229   5.049  0.00  0.00    -0.305 N 
ATOM     31  C   UNL     1      -1.977  -3.078   6.193  0.00  0.00    +0.131 C 
ATOM     32  C   UNL     1      -1.688  -0.770   5.179  0.00  0.00    +0.131 C 
ENDBRANCH  27  28
ENDBRANCH  26  27
ENDBRANCH  24  26
ENDBRANCH   1  23
TORSDOF 5
