REMARK  Name = ZINC37856734
REMARK  9 active torsions:
REMARK  status: ('A' for Active; 'I' for Inactive)
REMARK    1  A    between atoms: C_1  and  C_2
REMARK    2  A    between atoms: C_2  and  C_4
REMARK    3  A    between atoms: C_2  and  N_9
REMARK    4  A    between atoms: N_9  and  C_10
REMARK    5  A    between atoms: C_10  and  C_11
REMARK    6  A    between atoms: C_11  and  C_13
REMARK    7  A    between atoms: C_11  and  O_23
REMARK    8  A    between atoms: C_13  and  O_14
REMARK    9  A    between atoms: O_14  and  C_15
REMARK                            x       y       z     vdW  Elec       q    Type
REMARK                         _______ _______ _______ _____ _____    ______ ____
ROOT
ATOM      1  C   UNL     1      -3.485  -0.656  -1.224  0.00  0.00    +0.135 C 
ENDROOT
BRANCH   1   2
ATOM      2  O   UNL     1      -4.222  -0.014  -0.181  0.00  0.00    -0.390 OA
ATOM      3  H   UNL     1      -4.273   0.948  -0.270  0.00  0.00    +0.210 HD
ENDBRANCH   1   2
BRANCH   1   4
ATOM      4  C   UNL     1      -2.050  -0.126  -1.234  0.00  0.00    -0.047 C 
BRANCH   4   5
ATOM      5  N   UNL     1      -1.376  -0.512   0.012  0.00  0.00    +0.385 N 
ATOM      6  H   UNL     1      -1.363  -1.518   0.090  0.00  0.00    -0.085 HD
ATOM      7  H   UNL     1      -1.873  -0.121   0.799  0.00  0.00    -0.085 HD
BRANCH   5   9
ATOM      8  C   UNL     1      -0.019   1.526   0.010  0.00  0.00    -0.008 C 
ATOM      9  C   UNL     1       0.002  -0.004   0.002  0.00  0.00    -0.037 C 
BRANCH   9  10
ATOM     10  C   UNL     1       0.731  -0.503   1.223  0.00  0.00    -0.024 A 
ATOM     11  C   UNL     1       2.010  -0.938   1.335  0.00  0.00    +0.009 A 
ATOM     12  C   UNL     1       2.470  -1.354   2.570  0.00  0.00    +0.008 A 
ATOM     13  C   UNL     1       1.630  -1.314   3.633  0.00  0.00    +0.045 A 
ATOM     14  S   UNL     1       0.137  -0.668   2.898  0.00  0.00    -0.103 S 
ENDBRANCH   9  10
ENDBRANCH   5   9
ENDBRANCH   4   5
ENDBRANCH   1   4
BRANCH   1  15
ATOM     15  C   UNL     1      -4.147  -0.362  -2.571  0.00  0.00    +0.258 C 
BRANCH  15  16
ATOM     16  O   UNL     1      -5.446  -0.958  -2.604  0.00  0.00    -0.487 OA
BRANCH  16  17
ATOM     17  C   UNL     1      -6.174  -0.790  -3.740  0.00  0.00    +0.157 A 
ATOM     18  C   UNL     1      -7.015   0.306  -3.871  0.00  0.00    +0.084 A 
ATOM     19  C   UNL     1      -7.754   0.474  -5.027  0.00  0.00    +0.024 A 
ATOM     20  C   UNL     1      -7.655  -0.448  -6.053  0.00  0.00    +0.003 A 
ATOM     21  C   UNL     1      -6.818  -1.541  -5.925  0.00  0.00    +0.024 A 
ATOM     22  C   UNL     1      -6.072  -1.711  -4.773  0.00  0.00    +0.084 A 
ATOM     23 CL   UNL     1      -5.016  -3.080  -4.616  0.00  0.00    -0.080 Cl
ATOM     24 CL   UNL     1      -7.140   1.464  -2.584  0.00  0.00    -0.080 Cl
ENDBRANCH  16  17
ENDBRANCH  15  16
ENDBRANCH   1  15
TORSDOF 8
