REMARK  Name = ZINC09496094
REMARK  7 active torsions:
REMARK  status: ('A' for Active; 'I' for Inactive)
REMARK    1  A    between atoms: C_1  and  C_2
REMARK    2  A    between atoms: C_2  and  C_28
REMARK    3  A    between atoms: C_6  and  C_16
REMARK    4  A    between atoms: C_12  and  S_14
REMARK    5  A    between atoms: S_14  and  C_15
REMARK    6  A    between atoms: C_21  and  O_22
REMARK    7  A    between atoms: O_22  and  C_23
REMARK                            x       y       z     vdW  Elec       q    Type
REMARK                         _______ _______ _______ _____ _____    ______ ____
ROOT
ATOM      1  C   UNL     1      -0.143   1.533   0.016  0.00  0.00    +0.011 C 
ATOM      2  C   UNL     1      -0.088   0.004   0.007  0.00  0.00    -0.023 C 
ATOM      3  C   UNL     1      -1.510  -0.560   0.020  0.00  0.00    +0.060 C 
ATOM      4  C   UNL     1      -1.454  -2.068   0.059  0.00  0.00    +0.028 C 
ATOM      5  C   UNL     1      -0.392  -2.702   0.675  0.00  0.00    +0.041 C 
ATOM      6  C   UNL     1      -0.385  -4.218   0.689  0.00  0.00    +0.166 C 
ATOM      7  N   UNL     1      -1.526  -4.872   0.036  0.00  0.00    -0.208 N 
ATOM      8  C   UNL     1      -2.502  -4.091  -0.533  0.00  0.00    +0.215 C 
ATOM      9  N   UNL     1      -2.431  -2.766  -0.501  0.00  0.00    -0.330 N 
ATOM     10  N   UNL     1      -3.420  -4.915  -1.056  0.00  0.00    -0.192 NA
ATOM     11  C   UNL     1      -3.077  -6.175  -0.851  0.00  0.00    +0.174 C 
ATOM     12  N   UNL     1      -1.893  -6.205  -0.167  0.00  0.00    -0.239 N 
ATOM     13  C   UNL     1       0.645  -1.996   1.264  0.00  0.00    +0.164 C 
ATOM     14  O   UNL     1       1.557  -2.600   1.797  0.00  0.00    -0.292 OA
ATOM     15  C   UNL     1       0.655  -0.489   1.252  0.00  0.00    +0.086 C 
ATOM     16  C   UNL     1       0.643  -0.474  -1.249  0.00  0.00    +0.011 C 
ATOM     17  H   UNL     1      -3.152  -2.270  -0.920  0.00  0.00    +0.168 HD
ATOM     18  H   UNL     1      -1.405  -6.993   0.119  0.00  0.00    +0.172 HD
ENDROOT
BRANCH   6  19
ATOM     19  C   UNL     1      -0.345  -4.675   2.124  0.00  0.00    +0.022 A 
ATOM     20  C   UNL     1       0.819  -5.201   2.651  0.00  0.00    +0.024 A 
ATOM     21  C   UNL     1       0.856  -5.621   3.968  0.00  0.00    +0.018 A 
ATOM     22  C   UNL     1      -0.273  -5.514   4.762  0.00  0.00    +0.019 A 
ATOM     23  C   UNL     1      -1.438  -4.989   4.240  0.00  0.00    +0.047 A 
ATOM     24  C   UNL     1      -1.476  -4.563   2.920  0.00  0.00    +0.125 A 
ATOM     25 BR   UNL     1       2.450  -6.341   4.685  0.00  0.00    -0.050 Br
BRANCH  24  26
ATOM     26  O   UNL     1      -2.621  -4.041   2.406  0.00  0.00    -0.495 OA
ATOM     27  C   UNL     1      -3.746  -3.955   3.283  0.00  0.00    +0.277 C 
ENDBRANCH  24  26
ENDBRANCH   6  19
BRANCH  11  28
ATOM     28  S   UNL     1      -3.997  -7.585  -1.371  0.00  0.00    -0.092 S 
ATOM     29  C   UNL     1      -5.443  -6.881  -2.210  0.00  0.00    +0.093 C 
ENDBRANCH  11  28
TORSDOF 3
