REMARK  Name = ZINC63743824
REMARK  7 active torsions:
REMARK  status: ('A' for Active; 'I' for Inactive)
REMARK    1  A    between atoms: C_1  and  O_2
REMARK    2  A    between atoms: O_2  and  C_3
REMARK    3  A    between atoms: C_6  and  O_30
REMARK    4  A    between atoms: C_7  and  N_9
REMARK    5  A    between atoms: N_12  and  C_13
REMARK    6  A    between atoms: C_16  and  C_19
REMARK    7  A    between atoms: O_30  and  C_31
REMARK                            x       y       z     vdW  Elec       q    Type
REMARK                         _______ _______ _______ _____ _____    ______ ____
ROOT
ATOM      1  C   UNL     1       0.436  -6.961  -0.347  0.00  0.00    +0.035 A 
ATOM      2  C   UNL     1      -0.190  -6.356   0.735  0.00  0.00    +0.024 A 
ATOM      3  C   UNL     1      -0.754  -7.133   1.728  0.00  0.00    +0.008 A 
ATOM      4  C   UNL     1      -0.696  -8.512   1.645  0.00  0.00    -0.021 A 
ATOM      5  C   UNL     1      -0.073  -9.117   0.569  0.00  0.00    +0.008 A 
ATOM      6  C   UNL     1       0.488  -8.346  -0.430  0.00  0.00    +0.024 A 
ENDROOT
BRANCH   4   7
ATOM      7  C   UNL     1      -1.313  -9.356   2.730  0.00  0.00    +0.133 C 
ATOM      8  C   UNL     1      -0.237  -9.892   3.648  0.00  0.00    +0.012 C 
ATOM      9  C   UNL     1      -0.308 -11.240   3.562  0.00  0.00    -0.002 A 
ATOM     10  C   UNL     1       0.455 -12.319   4.201  0.00  0.00    +0.029 A 
ATOM     11  C   UNL     1       0.145 -13.604   3.910  0.00  0.00    +0.042 A 
ATOM     12  C   UNL     1      -0.885 -13.929   3.015  0.00  0.00    +0.022 A 
ATOM     13  C   UNL     1      -1.630 -12.993   2.390  0.00  0.00    +0.027 A 
ATOM     14  C   UNL     1      -1.391 -11.610   2.622  0.00  0.00    +0.043 A 
ATOM     15  N   UNL     1      -1.967 -10.532   2.145  0.00  0.00    -0.374 N 
ATOM     16 CL   UNL     1       1.046 -14.882   4.663  0.00  0.00    -0.084 Cl
ATOM     17  H   UNL     1      -2.702 -10.514   1.512  0.00  0.00    +0.161 HD
ENDBRANCH   4   7
BRANCH   1  21
ATOM     18  N   UNL     1       2.024  -4.186  -2.030  0.00  0.00    -0.266 N 
ATOM     19  C   UNL     1       1.569  -4.990  -1.049  0.00  0.00    +0.308 C 
ATOM     20  O   UNL     1       1.665  -4.644   0.113  0.00  0.00    -0.252 OA
ATOM     21  N   UNL     1       1.008  -6.176  -1.355  0.00  0.00    -0.269 N 
ATOM     22  H   UNL     1       1.876  -4.423  -2.959  0.00  0.00    +0.156 HD
ATOM     23  H   UNL     1       1.001  -6.487  -2.274  0.00  0.00    +0.156 HD
BRANCH  18  28
ATOM     24  C   UNL     1       3.957  -1.687  -0.138  0.00  0.00    +0.122 A 
ATOM     25  C   UNL     1       4.067  -0.672  -1.078  0.00  0.00    +0.049 A 
ATOM     26  C   UNL     1       3.500  -0.822  -2.330  0.00  0.00    +0.051 A 
ATOM     27  C   UNL     1       2.821  -1.986  -2.650  0.00  0.00    +0.141 A 
ATOM     28  C   UNL     1       2.710  -3.007  -1.709  0.00  0.00    +0.080 A 
ATOM     29  C   UNL     1       3.284  -2.857  -0.455  0.00  0.00    +0.072 A 
BRANCH  24  31
ATOM     30  C   UNL     1       5.194  -0.306   1.351  0.00  0.00    +0.277 C 
ATOM     31  O   UNL     1       4.515  -1.536   1.092  0.00  0.00    -0.495 OA
ENDBRANCH  24  31
BRANCH  27  32
ATOM     32  O   UNL     1       2.264  -2.132  -3.882  0.00  0.00    -0.493 OA
ATOM     33  C   UNL     1       2.417  -1.045  -4.797  0.00  0.00    +0.277 C 
ENDBRANCH  27  32
ENDBRANCH  18  28
ENDBRANCH   1  21
TORSDOF 5
