REMARK  Name = ZINC43283613
REMARK  8 active torsions:
REMARK  status: ('A' for Active; 'I' for Inactive)
REMARK    1  A    between atoms: C_1  and  C_2
REMARK    2  A    between atoms: C_2  and  C_3
REMARK    3  A    between atoms: C_3  and  C_5
REMARK    4  A    between atoms: C_3  and  N_23
REMARK    5  A    between atoms: C_5  and  C_7
REMARK    6  A    between atoms: C_5  and  S_13
REMARK    7  A    between atoms: S_13  and  C_14
REMARK    8  A    between atoms: C_17  and  C_22
REMARK                            x       y       z     vdW  Elec       q    Type
REMARK                         _______ _______ _______ _____ _____    ______ ____
ROOT
ATOM      1  C   UNL     1      -1.700  -2.122   0.123  0.00  0.00    +0.076 C 
ENDROOT
BRANCH   1   2
ATOM      2  C   UNL     1      -3.082  -2.723   0.121  0.00  0.00    +0.003 A 
ATOM      3  C   UNL     1      -3.652  -3.549  -0.789  0.00  0.00    +0.013 A 
ATOM      4  C   UNL     1      -4.949  -3.981  -0.583  0.00  0.00    +0.023 A 
ATOM      5  C   UNL     1      -5.612  -3.565   0.525  0.00  0.00    +0.055 A 
ATOM      6  S   UNL     1      -4.389  -2.538   1.323  0.00  0.00    -0.085 S 
ATOM      7 BR   UNL     1      -7.372  -3.974   1.084  0.00  0.00    -0.043 Br
ENDBRANCH   1   2
BRANCH   1   8
ATOM      8  C   UNL     1      -1.807  -0.596   0.126  0.00  0.00    -0.057 C 
BRANCH   8   9
ATOM      9  N   UNL     1      -2.561  -0.156  -1.056  0.00  0.00    +0.381 N 
ATOM     10  H   UNL     1      -2.083  -0.457  -1.891  0.00  0.00    -0.090 HD
ATOM     11  H   UNL     1      -3.486  -0.558  -1.034  0.00  0.00    -0.090 HD
ATOM     12  H   UNL     1      -2.631   0.851  -1.053  0.00  0.00    -0.090 HD
ENDBRANCH   8   9
BRANCH   8  14
ATOM     13  C   UNL     1      -0.505   1.534   0.235  0.00  0.00    +0.002 C 
ATOM     14  C   UNL     1      -0.404   0.014   0.093  0.00  0.00    -0.018 C 
ENDBRANCH   8  14
ENDBRANCH   1   8
BRANCH   1  15
ATOM     15  S   UNL     1      -0.804  -2.669   1.603  0.00  0.00    -0.081 S 
BRANCH  15  16
ATOM     16  C   UNL     1      -0.559  -4.394   1.340  0.00  0.00    +0.170 A 
ATOM     17  N   UNL     1      -0.918  -4.932   0.190  0.00  0.00    -0.228 NA
ATOM     18  H   UNL     1       0.266  -4.736   3.163  0.00  0.00    +0.171 HD
ATOM     19  C   UNL     1      -0.750  -6.230  -0.049  0.00  0.00    +0.046 A 
ATOM     20  C   UNL     1      -0.195  -7.036   0.903  0.00  0.00    +0.093 A 
ATOM     21  C   UNL     1       0.191  -6.471   2.131  0.00  0.00    +0.252 A 
ATOM     22  O   UNL     1       0.690  -7.162   3.005  0.00  0.00    -0.268 OA
ATOM     23  N   UNL     1       0.004  -5.147   2.324  0.00  0.00    -0.302 N 
ATOM     24  C   UNL     1      -1.173  -6.812  -1.373  0.00  0.00    +0.066 C 
ENDBRANCH  15  16
ENDBRANCH   1  15
TORSDOF 6
