REMARK  Name = ZINC22812442
REMARK  7 active torsions:
REMARK  status: ('A' for Active; 'I' for Inactive)
REMARK    1  A    between atoms: C_1  and  C_2
REMARK    2  A    between atoms: C_5  and  N_8
REMARK    3  A    between atoms: C_11  and  C_16
REMARK    4  A    between atoms: C_16  and  N_17
REMARK    5  A    between atoms: N_20  and  C_23
REMARK    6  A    between atoms: C_23  and  C_24
REMARK    7  A    between atoms: C_25  and  C_26
REMARK                            x       y       z     vdW  Elec       q    Type
REMARK                         _______ _______ _______ _____ _____    ______ ____
ROOT
ATOM      1  N   UNL     1       0.057  -4.169  -0.021  0.00  0.00    -0.284 N 
ATOM      2  C   UNL     1       0.176  -4.865   1.167  0.00  0.00    +0.224 A 
ATOM      3  N   UNL     1       0.299  -6.190   1.153  0.00  0.00    -0.198 NA
ATOM      4  C   UNL     1       0.413  -6.856   2.288  0.00  0.00    +0.150 A 
ATOM      5  N   UNL     1       0.406  -6.211   3.441  0.00  0.00    -0.198 NA
ATOM      6  C   UNL     1       0.284  -4.886   3.463  0.00  0.00    +0.217 A 
ATOM      7  N   UNL     1       0.174  -4.211   2.323  0.00  0.00    -0.181 NA
ATOM      8  N   UNL     1       0.276  -4.212   4.667  0.00  0.00    -0.327 N 
ATOM      9  H   UNL     1      -0.022  -4.650  -0.859  0.00  0.00    +0.155 HD
ATOM     10  H   UNL     1       0.359  -4.705   5.499  0.00  0.00    +0.145 HD
ATOM     11  H   UNL     1       0.186  -3.246   4.683  0.00  0.00    +0.145 HD
ENDROOT
BRANCH   1  16
ATOM     12  C   UNL     1       0.030   1.503   0.005  0.00  0.00    +0.044 C 
ATOM     13  C   UNL     1       0.037  -0.004  -0.002  0.00  0.00    -0.050 A 
ATOM     14  C   UNL     1       0.791  -0.694   0.929  0.00  0.00    +0.005 A 
ATOM     15  C   UNL     1       0.800  -2.075   0.926  0.00  0.00    +0.023 A 
ATOM     16  C   UNL     1       0.050  -2.771  -0.014  0.00  0.00    +0.034 A 
ATOM     17  C   UNL     1      -0.707  -2.074  -0.948  0.00  0.00    +0.023 A 
ATOM     18  C   UNL     1      -0.716  -0.693  -0.935  0.00  0.00    +0.005 A 
ENDBRANCH   1  16
BRANCH   4  19
ATOM     19  C   UNL     1       0.552  -8.357   2.268  0.00  0.00    +0.160 C 
BRANCH  19  20
ATOM     20  N   UNL     1       1.974  -8.717   2.198  0.00  0.00    -0.299 NA
ATOM     21  C   UNL     1       2.561  -8.300   0.916  0.00  0.00    +0.066 C 
ATOM     22  C   UNL     1       4.053  -8.638   0.908  0.00  0.00    -0.063 C 
ATOM     23  N   UNL     1       4.229 -10.084   1.099  0.00  0.00    +0.384 N 
ATOM     24  C   UNL     1       3.660 -10.481   2.393  0.00  0.00    -0.063 C 
ATOM     25  C   UNL     1       2.165 -10.158   2.415  0.00  0.00    +0.066 C 
ATOM     26  H   UNL     1       3.757 -10.580   0.358  0.00  0.00    -0.081 HD
BRANCH  23  27
ATOM     27  C   UNL     1       5.661 -10.410   1.072  0.00  0.00    -0.051 C 
BRANCH  27  28
ATOM     28  C   UNL     1       5.836 -11.905   1.145  0.00  0.00    -0.045 C 
ATOM     29  C   UNL     1       6.539 -12.536   0.214  0.00  0.00    +0.002 C 
BRANCH  29  30
ATOM     30  C   UNL     1       6.711 -14.003   0.285  0.00  0.00    -0.025 A 
ATOM     31  C   UNL     1       6.131 -14.726   1.328  0.00  0.00    +0.008 A 
ATOM     32  C   UNL     1       6.295 -16.095   1.389  0.00  0.00    +0.001 A 
ATOM     33  C   UNL     1       7.034 -16.750   0.419  0.00  0.00    +0.000 A 
ATOM     34  C   UNL     1       7.612 -16.038  -0.617  0.00  0.00    +0.001 A 
ATOM     35  C   UNL     1       7.449 -14.670  -0.693  0.00  0.00    +0.008 A 
ENDBRANCH  29  30
ENDBRANCH  27  28
ENDBRANCH  23  27
ENDBRANCH  19  20
ENDBRANCH   4  19
TORSDOF 6
