REMARK  Name = ZINC40758285
REMARK  6 active torsions:
REMARK  status: ('A' for Active; 'I' for Inactive)
REMARK    1  A    between atoms: C_4  and  N_7
REMARK    2  A    between atoms: N_7  and  C_8
REMARK    3  A    between atoms: N_7  and  N_14
REMARK    4  A    between atoms: C_16  and  N_32
REMARK    5  A    between atoms: C_17  and  N_21
REMARK    6  A    between atoms: N_21  and  C_22
REMARK                            x       y       z     vdW  Elec       q    Type
REMARK                         _______ _______ _______ _____ _____    ______ ____
ROOT
ATOM      1  N   UNL     1       4.582   0.366   0.084  0.00  0.00    -0.242 N 
ATOM      2  C   UNL     1       5.223   0.505   1.309  0.00  0.00    +0.161 A 
ATOM      3  C   UNL     1       6.507   1.052   1.379  0.00  0.00    +0.105 A 
ATOM      4  C   UNL     1       7.105   1.169   2.635  0.00  0.00    +0.126 A 
ATOM      5  N   UNL     1       6.434   0.760   3.709  0.00  0.00    -0.333 N 
ATOM      6  C   UNL     1       5.225   0.250   3.599  0.00  0.00    +0.200 A 
ATOM      7  N   UNL     1       4.622   0.126   2.433  0.00  0.00    -0.219 NA
ATOM      8  H   UNL     1       5.027   0.645  -0.731  0.00  0.00    +0.172 HD
ATOM      9  H   UNL     1       6.842   0.838   4.586  0.00  0.00    +0.168 HD
ENDROOT
BRANCH   3  10
ATOM     10  N   UNL     1       7.177   1.470   0.219  0.00  0.00    -0.353 N 
ATOM     11  H   UNL     1       6.749   1.382  -0.647  0.00  0.00    +0.143 HD
ATOM     12  H   UNL     1       8.068   1.848   0.283  0.00  0.00    +0.143 HD
ENDBRANCH   3  10
BRANCH   4  13
ATOM     13  N   UNL     1       8.381   1.706   2.761  0.00  0.00    -0.298 N 
ATOM     14  H   UNL     1       8.832   2.073   1.985  0.00  0.00    +0.154 HD
BRANCH  13  15
ATOM     15  C   UNL     1       9.014   1.716   4.004  0.00  0.00    +0.059 A 
ATOM     16  C   UNL     1       9.139   2.894   4.710  0.00  0.00    +0.025 A 
ATOM     17  C   UNL     1       9.768   2.918   5.951  0.00  0.00    +0.003 A 
ATOM     18  C   UNL     1      10.275   1.781   6.502  0.00  0.00    +0.010 A 
ATOM     19  C   UNL     1      10.167   0.561   5.815  0.00  0.00    +0.002 A 
ATOM     20  C   UNL     1       9.524   0.520   4.553  0.00  0.00    +0.092 A 
ATOM     21  N   UNL     1       9.415  -0.640   3.900  0.00  0.00    -0.253 NA
ATOM     22  C   UNL     1       9.887  -1.754   4.404  0.00  0.00    +0.111 A 
ATOM     23  C   UNL     1      10.525  -1.785   5.642  0.00  0.00    +0.020 A 
ATOM     24  C   UNL     1      10.681  -0.632   6.357  0.00  0.00    +0.011 A 
ENDBRANCH  13  15
ENDBRANCH   4  13
BRANCH   1  25
ATOM     25  N   UNL     1       3.292  -0.178   0.026  0.00  0.00    -0.221 N 
BRANCH  25  29
ATOM     26  C   UNL     1       0.015   2.303  -0.638  0.00  0.00    +0.000 A 
ATOM     27  C   UNL     1       0.984   2.671   0.278  0.00  0.00    +0.002 A 
ATOM     28  C   UNL     1       2.072   1.850   0.501  0.00  0.00    +0.025 A 
ATOM     29  C   UNL     1       2.192   0.654  -0.196  0.00  0.00    +0.053 A 
ATOM     30  C   UNL     1       1.217   0.288  -1.116  0.00  0.00    +0.025 A 
ATOM     31  C   UNL     1       0.132   1.114  -1.334  0.00  0.00    +0.002 A 
ENDBRANCH  25  29
BRANCH  25  32
ATOM     32  C   UNL     1       3.106  -1.552   0.192  0.00  0.00    +0.053 A 
ATOM     33  C   UNL     1       4.067  -2.446  -0.265  0.00  0.00    +0.025 A 
ATOM     34  C   UNL     1       3.879  -3.804  -0.100  0.00  0.00    +0.002 A 
ATOM     35  C   UNL     1       2.736  -4.275   0.520  0.00  0.00    +0.000 A 
ATOM     36  C   UNL     1       1.777  -3.389   0.976  0.00  0.00    +0.002 A 
ATOM     37  C   UNL     1       1.961  -2.029   0.819  0.00  0.00    +0.025 A 
ENDBRANCH  25  32
ENDBRANCH   1  25
TORSDOF 6
