REMARK  Name = ZINC02782348
REMARK  13 active torsions:
REMARK  status: ('A' for Active; 'I' for Inactive)
REMARK    1  A    between atoms: C_1  and  C_2
REMARK    2  A    between atoms: C_2  and  N_3
REMARK    3  A    between atoms: N_3  and  C_4
REMARK    4  A    between atoms: C_4  and  C_5
REMARK    5  A    between atoms: C_6  and  C_8
REMARK    6  A    between atoms: C_9  and  C_32
REMARK    7  A    between atoms: C_10  and  C_30
REMARK    8  A    between atoms: C_11  and  N_13
REMARK    9  A    between atoms: C_14  and  C_16
REMARK   10  A    between atoms: C_19  and  C_21
REMARK   11  A    between atoms: C_21  and  N_22
REMARK   12  A    between atoms: C_23  and  C_29
REMARK   13  A    between atoms: C_25  and  C_27
REMARK                            x       y       z     vdW  Elec       q    Type
REMARK                         _______ _______ _______ _____ _____    ______ ____
ROOT
ATOM      1  N   UNL     1      -2.501   1.650   0.391  0.00  0.00    -0.272 N 
ATOM      2  C   UNL     1      -3.547   2.498   0.457  0.00  0.00    +0.284 C 
ATOM      3  O   UNL     1      -3.358   3.700   0.436  0.00  0.00    -0.266 OA
ATOM      4  H   UNL     1      -2.652   0.692   0.407  0.00  0.00    +0.156 HD
ENDROOT
BRANCH   1   8
ATOM      5  C   UNL     1       1.063   3.532   0.130  0.00  0.00    +0.080 A 
ATOM      6  C   UNL     1       1.162   2.166   0.132  0.00  0.00    -0.012 A 
ATOM      7  C   UNL     1      -0.013   1.436   0.223  0.00  0.00    +0.084 A 
ATOM      8  C   UNL     1      -1.215   2.145   0.300  0.00  0.00    +0.091 A 
ATOM      9  S   UNL     1      -0.695   3.798   0.256  0.00  0.00    -0.067 S 
ATOM     10  C   UNL     1       2.501   1.480   0.039  0.00  0.00    +0.046 C 
BRANCH   5  12
ATOM     11  N   UNL     1       1.832   5.833  -0.087  0.00  0.00    -0.298 N 
ATOM     12  C   UNL     1       2.134   4.526   0.044  0.00  0.00    +0.254 C 
ATOM     13  O   UNL     1       3.298   4.172   0.091  0.00  0.00    -0.269 OA
BRANCH  11  15
ATOM     14  C   UNL     1       3.124   7.095  -1.737  0.00  0.00    +0.024 C 
ATOM     15  C   UNL     1       2.902   6.820  -0.248  0.00  0.00    +0.105 C 
ENDBRANCH  11  15
BRANCH  11  16
ATOM     16  C   UNL     1       0.432   6.266  -0.070  0.00  0.00    +0.105 C 
ATOM     17  C   UNL     1      -0.039   6.409   1.379  0.00  0.00    +0.024 C 
ENDBRANCH  11  16
ENDBRANCH   5  12
BRANCH   7  18
ATOM     18  C   UNL     1       0.005   0.004   0.231  0.00  0.00    +0.102 C 
ATOM     19  N   UNL     1       0.018  -1.131   0.237  0.00  0.00    -0.191 NA
ENDBRANCH   7  18
ENDBRANCH   1   8
BRANCH   2  20
ATOM     20  C   UNL     1      -4.912   1.972   0.553  0.00  0.00    +0.190 A 
ATOM     21  C   UNL     1      -6.055   2.716   0.627  0.00  0.00    +0.055 A 
ATOM     22  C   UNL     1      -7.122   1.808   0.705  0.00  0.00    +0.047 A 
ATOM     23  C   UNL     1      -6.591   0.566   0.677  0.00  0.00    +0.127 A 
ATOM     24  O   UNL     1      -5.259   0.669   0.580  0.00  0.00    -0.453 OA
BRANCH  23  25
ATOM     25  C   UNL     1      -7.370  -0.723   0.739  0.00  0.00    +0.218 C 
BRANCH  25  26
ATOM     26  N   UNL     1      -7.717  -1.150  -0.618  0.00  0.00    -0.260 N 
ATOM     27  C   UNL     1      -8.839  -0.820  -1.292  0.00  0.00    +0.051 A 
ATOM     28  C   UNL     1      -8.779  -1.411  -2.509  0.00  0.00    +0.061 A 
ATOM     29  C   UNL     1      -7.582  -2.133  -2.577  0.00  0.00    +0.074 A 
ATOM     30  N   UNL     1      -6.945  -1.978  -1.445  0.00  0.00    -0.175 NA
ATOM     31  C   UNL     1      -7.109  -2.950  -3.752  0.00  0.00    +0.068 C 
ATOM     32 BR   UNL     1     -10.083  -1.287  -3.872  0.00  0.00    -0.047 Br
ATOM     33  C   UNL     1      -9.958   0.052  -0.782  0.00  0.00    +0.066 C 
ENDBRANCH  25  26
ENDBRANCH  23  25
ENDBRANCH   2  20
TORSDOF 8
