REMARK  Name = ZINC34682062
REMARK  7 active torsions:
REMARK  status: ('A' for Active; 'I' for Inactive)
REMARK    1  A    between atoms: C_1  and  C_2
REMARK    2  A    between atoms: C_2  and  C_3
REMARK    3  A    between atoms: C_2  and  C_4
REMARK    4  A    between atoms: C_7  and  N_10
REMARK    5  A    between atoms: N_13  and  C_14
REMARK    6  A    between atoms: N_23  and  C_26
REMARK    7  A    between atoms: C_26  and  C_27
REMARK                            x       y       z     vdW  Elec       q    Type
REMARK                         _______ _______ _______ _____ _____    ______ ____
ROOT
ATOM      1  C   UNL     1      -7.627  -3.887  -2.032  0.00  0.00    +0.051 A 
ATOM      2  C   UNL     1      -6.793  -4.202  -3.103  0.00  0.00    +0.028 A 
ATOM      3  C   UNL     1      -7.290  -5.009  -4.111  0.00  0.00    +0.043 A 
ATOM      4  C   UNL     1      -8.598  -5.475  -4.022  0.00  0.00    +0.099 A 
ATOM      5  N   UNL     1      -9.362  -5.155  -2.990  0.00  0.00    -0.348 N 
ATOM      6  C   UNL     1      -8.918  -4.392  -2.009  0.00  0.00    +0.107 A 
ATOM      7  N   UNL     1      -9.108  -6.287  -5.031  0.00  0.00    -0.320 N 
ATOM      8  C   UNL     1      -8.245  -6.779  -6.116  0.00  0.00    +0.088 C 
ATOM      9  C   UNL     1      -8.437  -8.295  -6.239  0.00  0.00    -0.059 C 
ATOM     10  N   UNL     1      -9.863  -8.594  -6.417  0.00  0.00    +0.386 N 
ATOM     11  C   UNL     1     -10.611  -8.198  -5.217  0.00  0.00    -0.059 C 
ATOM     12  C   UNL     1     -10.525  -6.682  -5.040  0.00  0.00    +0.088 C 
ATOM     13  H   UNL     1     -10.270  -5.493  -2.952  0.00  0.00    +0.167 HD
ATOM     14  H   UNL     1     -10.215  -8.085  -7.214  0.00  0.00    -0.081 HD
ENDROOT
BRANCH   1  18
ATOM     15  N   UNL     1      -5.743  -1.387  -0.222  0.00  0.00    -0.269 N 
ATOM     16  C   UNL     1      -6.263  -2.103  -1.239  0.00  0.00    +0.308 C 
ATOM     17  O   UNL     1      -5.919  -1.873  -2.382  0.00  0.00    -0.252 OA
ATOM     18  N   UNL     1      -7.165  -3.073  -0.988  0.00  0.00    -0.268 N 
ATOM     19  H   UNL     1      -5.957  -1.621   0.695  0.00  0.00    +0.156 HD
ATOM     20  H   UNL     1      -7.494  -3.208  -0.086  0.00  0.00    +0.156 HD
BRANCH  15  24
ATOM     21  C   UNL     1      -3.216   1.829  -1.016  0.00  0.00    -0.045 A 
ATOM     22  C   UNL     1      -4.252   1.535  -1.884  0.00  0.00    +0.006 A 
ATOM     23  C   UNL     1      -5.091   0.469  -1.623  0.00  0.00    +0.023 A 
ATOM     24  C   UNL     1      -4.894  -0.307  -0.489  0.00  0.00    +0.035 A 
ATOM     25  C   UNL     1      -3.853  -0.009   0.380  0.00  0.00    +0.023 A 
ATOM     26  C   UNL     1      -3.014   1.054   0.112  0.00  0.00    +0.006 A 
BRANCH  21  28
ATOM     27  C   UNL     1      -1.613   2.777  -2.652  0.00  0.00    +0.012 C 
ATOM     28  C   UNL     1      -2.302   2.992  -1.303  0.00  0.00    +0.013 C 
ATOM     29  C   UNL     1      -3.119   4.284  -1.348  0.00  0.00    +0.012 C 
ENDBRANCH  21  28
ENDBRANCH  15  24
ENDBRANCH   1  18
BRANCH  10  30
ATOM     30  C   UNL     1     -10.035 -10.035  -6.645  0.00  0.00    -0.003 C 
BRANCH  30  31
ATOM     31  C   UNL     1     -11.482 -10.327  -6.949  0.00  0.00    +0.089 A 
ATOM     32  C   UNL     1     -12.041 -10.339  -8.172  0.00  0.00    +0.042 A 
ATOM     33  C   UNL     1     -13.407 -10.657  -7.995  0.00  0.00    +0.041 A 
ATOM     34  C   UNL     1     -13.601 -10.819  -6.673  0.00  0.00    +0.195 A 
ATOM     35  O   UNL     1     -12.430 -10.624  -6.046  0.00  0.00    -0.470 OA
ENDBRANCH  30  31
ENDBRANCH  10  30
TORSDOF 5
