REMARK  Name = ZINC55183278
REMARK  8 active torsions:
REMARK  status: ('A' for Active; 'I' for Inactive)
REMARK    1  A    between atoms: C_1  and  C_2
REMARK    2  A    between atoms: C_2  and  C_3
REMARK    3  A    between atoms: C_2  and  N_4
REMARK    4  A    between atoms: C_10  and  C_12
REMARK    5  A    between atoms: C_12  and  C_13
REMARK    6  A    between atoms: N_15  and  C_16
REMARK    7  A    between atoms: C_16  and  C_17
REMARK    8  A    between atoms: C_17  and  N_18
REMARK                            x       y       z     vdW  Elec       q    Type
REMARK                         _______ _______ _______ _____ _____    ______ ____
ROOT
ATOM      1  C   UNL     1       1.551  -2.567  -0.127  0.00  0.00    +0.089 C 
ENDROOT
BRANCH   1   8
ATOM      2  N   UNL     1      -0.571  -2.560   1.091  0.00  0.00    +0.390 N 
ATOM      3  C   UNL     1      -1.347  -1.882   2.141  0.00  0.00    -0.058 C 
ATOM      4  C   UNL     1      -1.595  -0.434   1.714  0.00  0.00    +0.085 C 
ATOM      5  N   UNL     1      -0.335   0.190   1.317  0.00  0.00    -0.318 N 
ATOM      6  C   UNL     1       0.758  -0.521   1.016  0.00  0.00    +0.200 C 
ATOM      7  O   UNL     1       1.760   0.070   0.673  0.00  0.00    -0.278 OA
ATOM      8  C   UNL     1       0.794  -2.021   1.086  0.00  0.00    +0.028 C 
ATOM      9  H   UNL     1      -0.289   1.157   1.270  0.00  0.00    +0.149 HD
ATOM     10  H   UNL     1      -1.002  -2.399   0.193  0.00  0.00    -0.080 HD
BRANCH   2  12
ATOM     11  C   UNL     1      -0.012  -4.238   2.785  0.00  0.00    -0.013 C 
ATOM     12  C   UNL     1      -0.529  -4.003   1.365  0.00  0.00    -0.074 C 
ATOM     13  C   UNL     1      -1.937  -4.588   1.231  0.00  0.00    -0.013 C 
ENDBRANCH   2  12
ENDBRANCH   1   8
BRANCH   1  14
ATOM     14  C   UNL     1       0.911  -2.054  -1.391  0.00  0.00    +0.212 C 
ATOM     15  O   UNL     1      -0.108  -1.398  -1.331  0.00  0.00    -0.276 OA
ATOM     16  N   UNL     1       1.470  -2.324  -2.587  0.00  0.00    -0.314 N 
ATOM     17  H   UNL     1       2.284  -2.848  -2.634  0.00  0.00    +0.149 HD
BRANCH  16  18
ATOM     18  C   UNL     1       0.848  -1.825  -3.816  0.00  0.00    +0.123 C 
BRANCH  18  19
ATOM     19  C   UNL     1       1.676  -2.268  -5.023  0.00  0.00    +0.128 C 
BRANCH  19  20
ATOM     20  N   UNL     1       1.053  -1.769  -6.252  0.00  0.00    -0.283 N 
ATOM     21  C   UNL     1       0.036  -2.480  -7.041  0.00  0.00    +0.128 C 
ATOM     22  C   UNL     1      -0.263  -1.519  -8.208  0.00  0.00    +0.124 C 
ATOM     23  N   UNL     1       0.617  -0.369  -7.953  0.00  0.00    -0.298 N 
ATOM     24  C   UNL     1       1.316  -0.591  -6.832  0.00  0.00    +0.302 C 
ATOM     25  O   UNL     1       2.120   0.204  -6.384  0.00  0.00    -0.253 OA
ATOM     26  H   UNL     1       0.678   0.425  -8.506  0.00  0.00    +0.150 HD
ENDBRANCH  19  20
ENDBRANCH  18  19
ENDBRANCH  16  18
ENDBRANCH   1  14
TORSDOF 6
