REMARK  Name = ZINC40757860
REMARK  6 active torsions:
REMARK  status: ('A' for Active; 'I' for Inactive)
REMARK    1  A    between atoms: C_1  and  N_2
REMARK    2  A    between atoms: N_2  and  C_3
REMARK    3  A    between atoms: C_10  and  N_27
REMARK    4  A    between atoms: C_11  and  N_15
REMARK    5  A    between atoms: N_15  and  C_16
REMARK    6  A    between atoms: C_20  and  C_22
REMARK                            x       y       z     vdW  Elec       q    Type
REMARK                         _______ _______ _______ _____ _____    ______ ____
ROOT
ATOM      1  C   UNL     1       0.036   0.491   0.785  0.00  0.00    +0.137 C 
ATOM      2  N   UNL     1      -1.074   0.533  -0.171  0.00  0.00    -0.287 N 
ATOM      3  C   UNL     1      -1.008  -0.208  -1.345  0.00  0.00    +0.151 A 
ATOM      4  C   UNL     1      -0.375   0.311  -2.476  0.00  0.00    +0.104 A 
ATOM      5  C   UNL     1      -0.337  -0.475  -3.629  0.00  0.00    +0.126 A 
ATOM      6  N   UNL     1      -0.902  -1.680  -3.607  0.00  0.00    -0.333 N 
ATOM      7  C   UNL     1      -1.490  -2.132  -2.518  0.00  0.00    +0.200 A 
ATOM      8  N   UNL     1      -1.543  -1.425  -1.407  0.00  0.00    -0.220 NA
ATOM      9  H   UNL     1      -0.880  -2.234  -4.403  0.00  0.00    +0.168 HD
ENDROOT
BRANCH   2  10
ATOM     10  C   UNL     1      -2.198   1.319   0.098  0.00  0.00    +0.035 A 
ATOM     11  C   UNL     1      -3.289   1.290  -0.761  0.00  0.00    +0.023 A 
ATOM     12  C   UNL     1      -4.398   2.067  -0.493  0.00  0.00    +0.002 A 
ATOM     13  C   UNL     1      -4.424   2.874   0.630  0.00  0.00    +0.000 A 
ATOM     14  C   UNL     1      -3.340   2.905   1.488  0.00  0.00    +0.002 A 
ATOM     15  C   UNL     1      -2.229   2.126   1.228  0.00  0.00    +0.023 A 
ENDBRANCH   2  10
BRANCH   4  16
ATOM     16  N   UNL     1       0.208   1.588  -2.455  0.00  0.00    -0.353 N 
ATOM     17  H   UNL     1       0.108   2.154  -1.673  0.00  0.00    +0.143 HD
ATOM     18  H   UNL     1       0.710   1.905  -3.222  0.00  0.00    +0.143 HD
ENDBRANCH   4  16
BRANCH   5  19
ATOM     19  N   UNL     1       0.281  -0.007  -4.783  0.00  0.00    -0.299 N 
ATOM     20  H   UNL     1       0.772   0.830  -4.765  0.00  0.00    +0.154 HD
BRANCH  19  21
ATOM     21  C   UNL     1       0.194  -0.741  -5.970  0.00  0.00    +0.033 A 
ATOM     22  C   UNL     1      -0.992  -1.381  -6.307  0.00  0.00    +0.025 A 
ATOM     23  C   UNL     1      -1.075  -2.106  -7.479  0.00  0.00    +0.022 A 
ATOM     24  C   UNL     1       0.021  -2.193  -8.319  0.00  0.00    +0.053 A 
ATOM     25  C   UNL     1       1.204  -1.556  -7.987  0.00  0.00    +0.075 A 
ATOM     26  C   UNL     1       1.291  -0.826  -6.818  0.00  0.00    +0.037 A 
ATOM     27 CL   UNL     1      -0.087  -3.105  -9.793  0.00  0.00    -0.083 Cl
BRANCH  25  28
ATOM     28  C   UNL     1       2.395  -1.654  -8.904  0.00  0.00    +0.419 C 
ATOM     29  F   UNL     1       3.463  -0.933  -8.359  0.00  0.00    -0.166 F 
ATOM     30  F   UNL     1       2.763  -2.996  -9.049  0.00  0.00    -0.166 F 
ATOM     31  F   UNL     1       2.065  -1.123 -10.156  0.00  0.00    -0.166 F 
ENDBRANCH  25  28
ENDBRANCH  19  21
ENDBRANCH   5  19
TORSDOF 5
