REMARK  Name = ZINC27828738
REMARK  12 active torsions:
REMARK  status: ('A' for Active; 'I' for Inactive)
REMARK    1  A    between atoms: C_1  and  C_2
REMARK    2  A    between atoms: C_2  and  C_3
REMARK    3  A    between atoms: C_3  and  C_4
REMARK    4  A    between atoms: C_4  and  C_5
REMARK    5  A    between atoms: C_8  and  C_12
REMARK    6  A    between atoms: C_8  and  C_13
REMARK    7  A    between atoms: N_18  and  C_19
REMARK    8  A    between atoms: C_19  and  C_20
REMARK    9  A    between atoms: C_20  and  C_21
REMARK   10  A    between atoms: C_21  and  N_22
REMARK   11  A    between atoms: N_22  and  C_23
REMARK   12  A    between atoms: C_23  and  N_25
REMARK                            x       y       z     vdW  Elec       q    Type
REMARK                         _______ _______ _______ _____ _____    ______ ____
ROOT
ATOM      1  C   UNL     1      -0.084   1.141   4.760  0.00  0.00    +0.068 A 
ATOM      2  C   UNL     1       1.028   0.376   4.650  0.00  0.00    +0.073 A 
ATOM      3  S   UNL     1       1.179   0.261   2.873  0.00  0.00    -0.062 S 
ATOM      4  C   UNL     1      -0.208   1.223   2.466  0.00  0.00    +0.136 A 
ATOM      5  N   UNL     1      -0.679   1.548   3.655  0.00  0.00    -0.338 N 
ATOM      6  N   UNL     1      -0.698   1.558   1.213  0.00  0.00    -0.325 N 
ATOM      7  H   UNL     1      -1.602   2.179   1.124  0.00  0.00    +0.148 HD
ATOM      8  H   UNL     1      -1.585   2.170   3.715  0.00  0.00    +0.167 HD
ENDROOT
BRANCH   1  11
ATOM      9  C   UNL     1      -1.738   3.365   7.180  0.00  0.00    +0.102 C 
ATOM     10  C   UNL     1      -1.873   2.423   5.961  0.00  0.00    +0.069 C 
ATOM     11  C   UNL     1      -0.630   1.517   6.113  0.00  0.00    +0.151 C 
ATOM     12  O   UNL     1       0.333   2.334   6.842  0.00  0.00    -0.452 OA
ATOM     13  C   UNL     1      -0.312   3.184   7.654  0.00  0.00    +0.311 C 
ATOM     14  O   UNL     1       0.172   3.723   8.621  0.00  0.00    -0.251 OA
ATOM     15  C   UNL     1      -0.980   0.261   6.915  0.00  0.00    +0.062 C 
BRANCH   9  16
ATOM     16  C   UNL     1      -1.980   4.817   6.763  0.00  0.00    +0.015 C 
BRANCH  16  17
ATOM     17  C   UNL     1      -1.888   5.723   7.993  0.00  0.00    +0.001 C 
BRANCH  17  19
ATOM     18  C   UNL     1      -2.039   8.081   8.806  0.00  0.00    +0.004 C 
ATOM     19  C   UNL     1      -2.130   7.175   7.576  0.00  0.00    -0.003 C 
ENDBRANCH  17  19
ENDBRANCH  16  17
ENDBRANCH   9  16
ENDBRANCH   1  11
BRANCH   6  20
ATOM     20  C   UNL     1      -0.013   1.086   0.008  0.00  0.00    +0.105 C 
BRANCH  20  21
ATOM     21  C   UNL     1      -0.753   1.593  -1.232  0.00  0.00    +0.037 C 
BRANCH  21  22
ATOM     22  C   UNL     1      -0.037   1.099  -2.490  0.00  0.00    +0.104 C 
BRANCH  22  23
ATOM     23  N   UNL     1      -0.745   1.585  -3.677  0.00  0.00    -0.327 N 
ATOM     24  H   UNL     1      -1.647   2.204  -3.564  0.00  0.00    +0.148 HD
BRANCH  23  25
ATOM     25  C   UNL     1      -0.292   1.272  -4.907  0.00  0.00    +0.128 C 
ATOM     26  S   UNL     1       1.112   0.307  -5.083  0.00  0.00    -0.019 S 
BRANCH  25  27
ATOM     27  N   UNL     1      -0.944   1.718  -5.999  0.00  0.00    -0.341 N 
ATOM     28  H   UNL     1      -0.574   1.463  -7.003  0.00  0.00    +0.144 HD
ATOM     29  H   UNL     1      -1.846   2.338  -5.886  0.00  0.00    +0.144 HD
ENDBRANCH  25  27
ENDBRANCH  23  25
ENDBRANCH  22  23
ENDBRANCH  21  22
ENDBRANCH  20  21
ENDBRANCH   6  20
TORSDOF 10
