REMARK  Name = ZINC09129558
REMARK  8 active torsions:
REMARK  status: ('A' for Active; 'I' for Inactive)
REMARK    1  A    between atoms: C_1  and  C_2
REMARK    2  A    between atoms: C_12  and  C_21
REMARK    3  A    between atoms: C_15  and  C_17
REMARK    4  A    between atoms: C_17  and  C_19
REMARK    5  A    between atoms: C_17  and  O_20
REMARK    6  A    between atoms: N_23  and  C_24
REMARK    7  A    between atoms: C_27  and  O_30
REMARK    8  A    between atoms: O_30  and  C_31
REMARK                            x       y       z     vdW  Elec       q    Type
REMARK                         _______ _______ _______ _____ _____    ______ ____
ROOT
ATOM      1  C   UNL     1      -3.529   6.219   3.505  0.00  0.00    +0.046 C 
ATOM      2  C   UNL     1      -3.651   4.970   2.670  0.00  0.00    -0.028 A 
ATOM      3  C   UNL     1      -4.877   4.351   2.534  0.00  0.00    +0.025 A 
ATOM      4  C   UNL     1      -4.999   3.204   1.770  0.00  0.00    +0.042 A 
ATOM      5  C   UNL     1      -3.885   2.675   1.139  0.00  0.00    +0.024 A 
ATOM      6  C   UNL     1      -2.661   3.290   1.274  0.00  0.00    -0.026 A 
ATOM      7  C   UNL     1      -2.527   4.445   2.039  0.00  0.00    +0.039 A 
ATOM      8  N   UNL     1      -1.200   4.882   2.023  0.00  0.00    -0.286 N 
ATOM      9  C   UNL     1      -0.410   4.082   1.283  0.00  0.00    +0.211 C 
ATOM     10  O   UNL     1       0.780   4.218   1.092  0.00  0.00    -0.277 OA
ATOM     11  C   UNL     1      -1.288   2.986   0.737  0.00  0.00    +0.049 C 
ATOM     12  C   UNL     1      -0.804   1.611   1.226  0.00  0.00    +0.076 C 
ATOM     13  C   UNL     1      -0.010   1.072   0.004  0.00  0.00    -0.001 C 
ATOM     14  C   UNL     1      -0.833   1.637  -1.181  0.00  0.00    -0.040 C 
ATOM     15 CL   UNL     1      -6.544   2.431   1.603  0.00  0.00    -0.084 Cl
ATOM     16  H   UNL     1      -0.885   5.671   2.492  0.00  0.00    +0.155 HD
ATOM     17  N   UNL     1      -1.275   2.968  -0.725  0.00  0.00    +0.395 N 
ATOM     18  H   UNL     1      -0.627   3.685  -1.073  0.00  0.00    -0.083 HD
ATOM     19  H   UNL     1      -2.219   3.159  -1.081  0.00  0.00    -0.083 HD
ENDROOT
BRANCH  12  20
ATOM     20  C   UNL     1      -1.973   0.714   1.540  0.00  0.00    +0.220 C 
ATOM     21  O   UNL     1      -2.568   0.156   0.642  0.00  0.00    -0.275 OA
ATOM     22  N   UNL     1      -2.358   0.531   2.818  0.00  0.00    -0.285 N 
ATOM     23  H   UNL     1      -1.935   1.037   3.529  0.00  0.00    +0.155 HD
BRANCH  22  24
ATOM     24  C   UNL     1      -3.369  -0.391   3.121  0.00  0.00    +0.034 A 
ATOM     25  C   UNL     1      -4.250  -0.138   4.163  0.00  0.00    +0.027 A 
ATOM     26  C   UNL     1      -5.250  -1.044   4.458  0.00  0.00    +0.047 A 
ATOM     27  C   UNL     1      -5.367  -2.212   3.719  0.00  0.00    +0.120 A 
ATOM     28  C   UNL     1      -4.483  -2.468   2.681  0.00  0.00    +0.047 A 
ATOM     29  C   UNL     1      -3.486  -1.560   2.382  0.00  0.00    +0.027 A 
BRANCH  27  30
ATOM     30  O   UNL     1      -6.348  -3.107   4.013  0.00  0.00    -0.495 OA
ATOM     31  C   UNL     1      -7.222  -2.779   5.094  0.00  0.00    +0.277 C 
ENDBRANCH  27  30
ENDBRANCH  22  24
ENDBRANCH  12  20
BRANCH  14  32
ATOM     32  C   UNL     1       0.045   1.757  -2.429  0.00  0.00    +0.098 C 
ATOM     33  C   UNL     1      -0.751   2.430  -3.549  0.00  0.00    +0.036 C 
BRANCH  32  34
ATOM     34  O   UNL     1       1.199   2.543  -2.125  0.00  0.00    -0.394 OA
ATOM     35  H   UNL     1       0.997   3.442  -1.831  0.00  0.00    +0.210 HD
ENDBRANCH  32  34
ENDBRANCH  14  32
TORSDOF 5
