REMARK  Name = ZINC20539937
REMARK  14 active torsions:
REMARK  status: ('A' for Active; 'I' for Inactive)
REMARK    1  A    between atoms: C_1  and  N_2
REMARK    2  A    between atoms: N_5  and  C_8
REMARK    3  A    between atoms: C_8  and  C_9
REMARK    4  A    between atoms: C_9  and  C_11
REMARK    5  A    between atoms: C_9  and  O_32
REMARK    6  A    between atoms: C_11  and  O_12
REMARK    7  A    between atoms: O_12  and  C_13
REMARK    8  A    between atoms: C_15  and  O_30
REMARK    9  A    between atoms: C_18  and  C_19
REMARK   10  A    between atoms: C_19  and  N_20
REMARK   11  A    between atoms: N_20  and  C_21
REMARK   12  A    between atoms: C_21  and  C_22
REMARK   13  A    between atoms: C_22  and  N_23
REMARK   14  A    between atoms: O_30  and  C_31
REMARK                            x       y       z     vdW  Elec       q    Type
REMARK                         _______ _______ _______ _____ _____    ______ ____
ROOT
ATOM      1  C   UNL     1      -0.112   1.199   4.876  0.00  0.00    +0.125 A 
ATOM      2  C   UNL     1       1.179   0.695   4.916  0.00  0.00    +0.091 A 
ATOM      3  C   UNL     1       1.807   0.501   6.136  0.00  0.00    +0.124 A 
ATOM      4  C   UNL     1       1.143   0.812   7.314  0.00  0.00    +0.046 A 
ATOM      5  C   UNL     1      -0.143   1.315   7.272  0.00  0.00    +0.009 A 
ATOM      6  C   UNL     1      -0.770   1.513   6.056  0.00  0.00    -0.022 A 
ENDROOT
BRANCH   3   7
ATOM      7  O   UNL     1       3.073   0.008   6.178  0.00  0.00    -0.495 OA
ATOM      8  C   UNL     1       3.659  -0.166   7.470  0.00  0.00    +0.277 C 
ENDBRANCH   3   7
BRANCH   1   9
ATOM      9  O   UNL     1      -0.731   1.390   3.681  0.00  0.00    -0.489 OA
BRANCH   9  10
ATOM     10  C   UNL     1       0.008   1.050   2.506  0.00  0.00    +0.261 C 
BRANCH  10  11
ATOM     11  C   UNL     1      -0.846   1.331   1.268  0.00  0.00    +0.166 C 
BRANCH  11  12
ATOM     12  O   UNL     1      -1.981   0.463   1.265  0.00  0.00    -0.387 OA
ATOM     13  H   UNL     1      -2.700   0.496   2.096  0.00  0.00    +0.210 HD
ENDBRANCH  11  12
BRANCH  11  14
ATOM     14  C   UNL     1      -0.013   1.086   0.008  0.00  0.00    +0.119 C 
BRANCH  14  19
ATOM     15  C   UNL     1      -2.060   2.869  -4.945  0.00  0.00    -0.096 C 
ATOM     16  N   UNL     1      -1.261   2.538  -3.758  0.00  0.00    +0.379 N 
ATOM     17  C   UNL     1      -1.815   3.176  -2.555  0.00  0.00    -0.064 C 
ATOM     18  C   UNL     1      -0.912   2.872  -1.358  0.00  0.00    +0.066 C 
ATOM     19  N   UNL     1      -0.812   1.417  -1.179  0.00  0.00    -0.303 NA
ATOM     20  C   UNL     1      -0.258   0.779  -2.382  0.00  0.00    +0.066 C 
ATOM     21  C   UNL     1      -1.161   1.082  -3.579  0.00  0.00    -0.064 C 
ATOM     22  H   UNL     1      -0.246   2.931  -3.914  0.00  0.00    -0.082 HD
ENDBRANCH  14  19
ENDBRANCH  11  14
ENDBRANCH  10  11
ENDBRANCH   9  10
ENDBRANCH   1   9
BRANCH   6  23
ATOM     23  C   UNL     1      -2.171   2.067   6.013  0.00  0.00    -0.043 C 
BRANCH  23  24
ATOM     24  N   UNL     1      -3.126   0.968   5.817  0.00  0.00    +0.383 N 
ATOM     25  H   UNL     1      -2.905   0.455   4.870  0.00  0.00    -0.085 HD
ATOM     26  H   UNL     1      -3.039   0.253   6.649  0.00  0.00    -0.085 HD
BRANCH  24  27
ATOM     27  C   UNL     1      -4.505   1.470   5.770  0.00  0.00    -0.063 C 
BRANCH  27  28
ATOM     28  C   UNL     1      -5.468   0.299   5.565  0.00  0.00    +0.089 C 
BRANCH  28  29
ATOM     29  N   UNL     1      -6.844   0.801   5.518  0.00  0.00    -0.303 N 
ATOM     30  C   UNL     1      -7.389   1.179   4.221  0.00  0.00    +0.107 C 
ATOM     31  C   UNL     1      -8.917   1.220   4.273  0.00  0.00    +0.019 C 
ATOM     32  C   UNL     1      -9.344   2.071   5.475  0.00  0.00    +0.011 C 
ATOM     33  C   UNL     1      -8.948   1.333   6.756  0.00  0.00    +0.096 C 
ATOM     34  C   UNL     1      -7.520   0.878   6.665  0.00  0.00    +0.215 C 
ATOM     35  O   UNL     1      -6.950   0.569   7.690  0.00  0.00    -0.276 OA
ENDBRANCH  28  29
ENDBRANCH  27  28
ENDBRANCH  24  27
ENDBRANCH  23  24
ENDBRANCH   6  23
TORSDOF 12
