REMARK  Name = ZINC52013407
REMARK  6 active torsions:
REMARK  status: ('A' for Active; 'I' for Inactive)
REMARK    1  A    between atoms: C_1  and  C_2
REMARK    2  A    between atoms: C_2  and  C_4
REMARK    3  A    between atoms: C_2  and  N_11
REMARK    4  A    between atoms: N_9  and  C_10
REMARK    5  A    between atoms: N_11  and  C_12
REMARK    6  A    between atoms: C_18  and  O_20
REMARK                            x       y       z     vdW  Elec       q    Type
REMARK                         _______ _______ _______ _____ _____    ______ ____
ROOT
ATOM      1  C   UNL     1      -0.019   1.526   0.010  0.00  0.00    -0.004 C 
ATOM      2  C   UNL     1       0.002  -0.004   0.002  0.00  0.00    +0.014 C 
ENDROOT
BRANCH   2   3
ATOM      3  C   UNL     1       0.731  -0.503   1.223  0.00  0.00    +0.206 C 
ATOM      4  O   UNL     1       0.159  -1.212   2.023  0.00  0.00    -0.277 OA
ATOM      5  N   UNL     1       2.019  -0.161   1.426  0.00  0.00    -0.242 N 
ATOM      6  C   UNL     1       2.671  -0.608   2.518  0.00  0.00    +0.306 C 
ATOM      7  O   UNL     1       2.097  -1.319   3.319  0.00  0.00    -0.252 OA
ATOM      8  N   UNL     1       3.958  -0.266   2.720  0.00  0.00    -0.302 N 
ATOM      9  C   UNL     1       4.667  -0.751   3.907  0.00  0.00    +0.129 C 
ATOM     10  H   UNL     1       2.476   0.406   0.786  0.00  0.00    +0.159 HD
ATOM     11  H   UNL     1       4.416   0.302   2.081  0.00  0.00    +0.150 HD
ENDBRANCH   2   3
BRANCH   2  12
ATOM     12  N   UNL     1      -1.376  -0.512   0.012  0.00  0.00    +0.390 N 
ATOM     13  H   UNL     1      -1.363  -1.518   0.090  0.00  0.00    -0.084 HD
ATOM     14  H   UNL     1      -1.873  -0.121   0.799  0.00  0.00    -0.084 HD
BRANCH  12  15
ATOM     15  C   UNL     1      -2.050  -0.126  -1.234  0.00  0.00    -0.042 C 
ATOM     16  C   UNL     1      -1.371  -0.820  -2.417  0.00  0.00    -0.013 C 
ATOM     17  C   UNL     1      -2.073  -0.418  -3.716  0.00  0.00    -0.001 C 
ATOM     18  C   UNL     1      -3.543  -0.838  -3.652  0.00  0.00    +0.002 C 
ATOM     19  C   UNL     1      -4.222  -0.144  -2.470  0.00  0.00    +0.030 C 
ATOM     20  C   UNL     1      -3.520  -0.547  -1.171  0.00  0.00    +0.101 C 
BRANCH  20  21
ATOM     21  O   UNL     1      -4.154   0.102  -0.066  0.00  0.00    -0.393 OA
ATOM     22  H   UNL     1      -5.090  -0.119   0.035  0.00  0.00    +0.210 HD
ENDBRANCH  20  21
ENDBRANCH  12  15
ENDBRANCH   2  12
TORSDOF 4
