REMARK  Name = ZINC32513707
REMARK  11 active torsions:
REMARK  status: ('A' for Active; 'I' for Inactive)
REMARK    1  A    between atoms: C_1  and  C_2
REMARK    2  A    between atoms: C_2  and  C_3
REMARK    3  A    between atoms: C_10  and  N_28
REMARK    4  A    between atoms: C_11  and  C_26
REMARK    5  A    between atoms: C_12  and  C_14
REMARK    6  A    between atoms: C_17  and  O_24
REMARK    7  A    between atoms: C_18  and  O_22
REMARK    8  A    between atoms: C_19  and  O_20
REMARK    9  A    between atoms: O_20  and  C_21
REMARK   10  A    between atoms: O_22  and  C_23
REMARK   11  A    between atoms: O_24  and  C_25
REMARK                            x       y       z     vdW  Elec       q    Type
REMARK                         _______ _______ _______ _____ _____    ______ ____
ROOT
ATOM      1  C   UNL     1       5.422   1.227   0.937  0.00  0.00    +0.044 A 
ATOM      2  C   UNL     1       4.175   1.216   0.444  0.00  0.00    +0.049 A 
ATOM      3  C   UNL     1       3.480   2.322   0.982  0.00  0.00    +0.245 A 
ATOM      4  N   UNL     1       4.294   2.964   1.769  0.00  0.00    -0.135 NA
ATOM      5  N   UNL     1       5.527   2.293   1.764  0.00  0.00    -0.278 N 
ATOM      6  H   UNL     1       6.317   2.550   2.265  0.00  0.00    +0.189 HD
ATOM      7  O   UNL     1       2.184   2.583   0.665  0.00  0.00    -0.421 OA
ATOM      8  C   UNL     1       1.655   1.919  -0.383  0.00  0.00    +0.201 C 
ATOM      9  C   UNL     1       2.220   0.844  -0.971  0.00  0.00    +0.098 C 
ATOM     10  C   UNL     1       3.527   0.248  -0.513  0.00  0.00    +0.105 C 
ENDROOT
BRANCH  10  11
ATOM     11  C   UNL     1       3.272  -1.063   0.184  0.00  0.00    +0.011 A 
ATOM     12  C   UNL     1       3.570  -2.253  -0.453  0.00  0.00    +0.012 A 
ATOM     13  C   UNL     1       3.337  -3.458   0.182  0.00  0.00    +0.050 A 
ATOM     14  C   UNL     1       2.803  -3.478   1.462  0.00  0.00    +0.165 A 
ATOM     15  C   UNL     1       2.502  -2.284   2.105  0.00  0.00    +0.204 A 
ATOM     16  C   UNL     1       2.742  -1.074   1.465  0.00  0.00    +0.169 A 
BRANCH  16  17
ATOM     17  O   UNL     1       2.454   0.097   2.093  0.00  0.00    -0.491 OA
ATOM     18  C   UNL     1       1.089   0.521   2.082  0.00  0.00    +0.277 C 
ENDBRANCH  16  17
BRANCH  15  19
ATOM     19  O   UNL     1       1.978  -2.300   3.361  0.00  0.00    -0.488 OA
ATOM     20  C   UNL     1       2.902  -2.276   4.451  0.00  0.00    +0.277 C 
ENDBRANCH  15  19
BRANCH  14  21
ATOM     21  O   UNL     1       2.574  -4.665   2.085  0.00  0.00    -0.491 OA
ATOM     22  C   UNL     1       2.906  -5.852   1.363  0.00  0.00    +0.277 C 
ENDBRANCH  14  21
ENDBRANCH  10  11
BRANCH   8  23
ATOM     23  N   UNL     1       0.460   2.368  -0.885  0.00  0.00    -0.328 N 
ATOM     24  H   UNL     1       0.025   3.138  -0.488  0.00  0.00    +0.145 HD
ATOM     25  H   UNL     1       0.050   1.915  -1.639  0.00  0.00    +0.145 HD
ENDBRANCH   8  23
BRANCH   1  27
ATOM     26  C   UNL     1       7.243   0.651  -0.645  0.00  0.00    +0.010 C 
ATOM     27  C   UNL     1       6.509   0.230   0.630  0.00  0.00    +0.052 C 
ENDBRANCH   1  27
BRANCH   9  28
ATOM     28  C   UNL     1       1.546   0.241  -2.081  0.00  0.00    +0.101 C 
ATOM     29  N   UNL     1       1.011  -0.238  -2.962  0.00  0.00    -0.191 NA
ENDBRANCH   9  28
TORSDOF 7
