REMARK  Name = ZINC24896311
REMARK  9 active torsions:
REMARK  status: ('A' for Active; 'I' for Inactive)
REMARK    1  A    between atoms: C_4  and  C_7
REMARK    2  A    between atoms: C_8  and  C_9
REMARK    3  A    between atoms: C_9  and  N_10
REMARK    4  A    between atoms: N_13  and  C_16
REMARK    5  A    between atoms: C_16  and  C_17
REMARK    6  A    between atoms: C_17  and  C_18
REMARK    7  A    between atoms: N_20  and  C_21
REMARK    8  A    between atoms: C_24  and  S_27
REMARK    9  A    between atoms: S_27  and  N_30
REMARK                            x       y       z     vdW  Elec       q    Type
REMARK                         _______ _______ _______ _____ _____    ______ ____
ROOT
ATOM      1  C   UNL     1      -1.447   3.591  -2.412  0.00  0.00    +0.093 C 
ENDROOT
BRANCH   1   5
ATOM      2  N   UNL     1      -0.726   1.553   1.219  0.00  0.00    +0.384 N 
ATOM      3  C   UNL     1      -0.028   1.083   0.014  0.00  0.00    -0.063 C 
ATOM      4  C   UNL     1      -0.761   1.591  -1.229  0.00  0.00    +0.066 C 
ATOM      5  N   UNL     1      -0.816   3.060  -1.196  0.00  0.00    -0.305 NA
ATOM      6  C   UNL     1      -1.514   3.530   0.009  0.00  0.00    +0.066 C 
ATOM      7  C   UNL     1      -0.781   3.021   1.252  0.00  0.00    -0.063 C 
ATOM      8  H   UNL     1      -1.758   1.175   1.183  0.00  0.00    -0.081 HD
BRANCH   2   9
ATOM      9  C   UNL     1      -0.094   1.022   2.434  0.00  0.00    -0.051 C 
BRANCH   9  11
ATOM     10  C   UNL     1      -1.204   0.995   4.623  0.00  0.00    +0.002 C 
ATOM     11  C   UNL     1      -0.673   1.712   3.643  0.00  0.00    -0.045 C 
BRANCH  10  15
ATOM     12  C   UNL     1      -2.834   2.938   8.030  0.00  0.00    +0.000 A 
ATOM     13  C   UNL     1      -2.860   1.558   7.947  0.00  0.00    +0.001 A 
ATOM     14  C   UNL     1      -2.332   0.920   6.843  0.00  0.00    +0.008 A 
ATOM     15  C   UNL     1      -1.772   1.672   5.809  0.00  0.00    -0.025 A 
ATOM     16  C   UNL     1      -1.744   3.063   5.902  0.00  0.00    +0.008 A 
ATOM     17  C   UNL     1      -2.280   3.689   7.009  0.00  0.00    +0.001 A 
ENDBRANCH  10  15
ENDBRANCH   9  11
ENDBRANCH   2   9
ENDBRANCH   1   5
BRANCH   1  18
ATOM     18  C   UNL     1      -1.713   5.087  -2.236  0.00  0.00    +0.111 C 
BRANCH  18  19
ATOM     19  C   UNL     1      -2.360   5.632  -3.483  0.00  0.00    +0.218 C 
ATOM     20  O   UNL     1      -2.587   4.896  -4.420  0.00  0.00    -0.275 OA
ATOM     21  N   UNL     1      -2.687   6.937  -3.557  0.00  0.00    -0.285 N 
ATOM     22  H   UNL     1      -2.553   7.589  -2.681  0.00  0.00    +0.155 HD
BRANCH  21  23
ATOM     23  C   UNL     1      -3.199   7.464  -4.749  0.00  0.00    +0.033 A 
ATOM     24  C   UNL     1      -2.885   8.762  -5.127  0.00  0.00    +0.025 A 
ATOM     25  C   UNL     1      -3.386   9.277  -6.307  0.00  0.00    +0.030 A 
ATOM     26  C   UNL     1      -4.210   8.504  -7.105  0.00  0.00    +0.105 A 
ATOM     27  C   UNL     1      -4.529   7.213  -6.728  0.00  0.00    +0.030 A 
ATOM     28  C   UNL     1      -4.026   6.690  -5.553  0.00  0.00    +0.025 A 
BRANCH  26  29
ATOM     29  S   UNL     1      -4.853   9.167  -8.605  0.00  0.00    +0.056 S 
ATOM     30  O   UNL     1      -3.967  10.204  -9.004  0.00  0.00    -0.153 OA
ATOM     31  O   UNL     1      -5.155   8.059  -9.442  0.00  0.00    -0.153 OA
BRANCH  29  32
ATOM     32  N   UNL     1      -6.297   9.892  -8.241  0.00  0.00    -0.204 NA
ATOM     33  H   UNL     1      -6.733  10.320  -9.155  0.00  0.00    +0.144 HD
ATOM     34  H   UNL     1      -6.130  10.692  -7.505  0.00  0.00    +0.144 HD
ENDBRANCH  29  32
ENDBRANCH  26  29
ENDBRANCH  21  23
ENDBRANCH  18  19
ENDBRANCH   1  18
TORSDOF 9
