REMARK  Name = ZINC52906631
REMARK  12 active torsions:
REMARK  status: ('A' for Active; 'I' for Inactive)
REMARK    1  A    between atoms: C_1  and  C_2
REMARK    2  A    between atoms: C_2  and  C_3
REMARK    3  A    between atoms: C_2  and  C_4
REMARK    4  A    between atoms: C_4  and  C_5
REMARK    5  A    between atoms: C_5  and  C_7
REMARK    6  A    between atoms: C_5  and  N_11
REMARK    7  A    between atoms: C_7  and  N_8
REMARK    8  A    between atoms: N_8  and  C_9
REMARK    9  A    between atoms: N_8  and  C_10
REMARK   10  A    between atoms: N_11  and  C_12
REMARK   11  A    between atoms: C_17  and  C_18
REMARK   12  A    between atoms: C_18  and  N_20
REMARK                            x       y       z     vdW  Elec       q    Type
REMARK                         _______ _______ _______ _____ _____    ______ ____
ROOT
ATOM      1  N   UNL     1      -0.041   1.450   2.341  0.00  0.00    -0.342 N 
ATOM      2  H   UNL     1       0.587   1.997   2.839  0.00  0.00    +0.146 HD
ENDROOT
BRANCH   1   3
ATOM      3  C   UNL     1      -1.051   2.052   1.600  0.00  0.00    +0.038 A 
ATOM      4  C   UNL     1      -2.015   1.273   0.974  0.00  0.00    +0.024 A 
ATOM      5  C   UNL     1      -3.018   1.871   0.237  0.00  0.00    +0.003 A 
ATOM      6  C   UNL     1      -3.071   3.250   0.116  0.00  0.00    +0.021 A 
ATOM      7  C   UNL     1      -2.123   4.042   0.730  0.00  0.00    +0.052 A 
ATOM      8  C   UNL     1      -1.105   3.450   1.485  0.00  0.00    +0.042 A 
ATOM      9 CL   UNL     1      -2.197   5.769   0.571  0.00  0.00    -0.083 Cl
BRANCH   8  10
ATOM     10  C   UNL     1      -0.092   4.288   2.148  0.00  0.00    +0.080 C 
ATOM     11  S   UNL     1      -0.297   4.740   3.787  0.00  0.00    -0.035 S 
BRANCH  10  12
ATOM     12  N   UNL     1       0.995   4.698   1.467  0.00  0.00    -0.352 N 
ATOM     13  H   UNL     1       1.076   4.503   0.520  0.00  0.00    +0.143 HD
ATOM     14  H   UNL     1       1.697   5.188   1.923  0.00  0.00    +0.143 HD
ENDBRANCH  10  12
ENDBRANCH   8  10
ENDBRANCH   1   3
BRANCH   1  15
ATOM     15  C   UNL     1       0.075  -0.010   2.372  0.00  0.00    +0.054 C 
BRANCH  15  16
ATOM     16  C   UNL     1       0.799  -0.490   1.112  0.00  0.00    +0.023 C 
BRANCH  16  18
ATOM     17  C   UNL     1      -0.645  -2.519   0.918  0.00  0.00    +0.007 C 
ATOM     18  C   UNL     1       0.792  -2.019   1.072  0.00  0.00    -0.016 C 
ATOM     19  C   UNL     1       1.629  -2.502  -0.115  0.00  0.00    +0.007 C 
ENDBRANCH  16  18
ENDBRANCH  15  16
BRANCH  15  20
ATOM     20  C   UNL     1       0.871  -0.432   3.609  0.00  0.00    -0.057 C 
BRANCH  20  21
ATOM     21  N   UNL     1       0.241   0.130   4.811  0.00  0.00    +0.377 N 
ATOM     22  C   UNL     1      -1.093  -0.459   4.987  0.00  0.00    -0.097 C 
ATOM     23  C   UNL     1       1.069  -0.175   5.985  0.00  0.00    -0.097 C 
ATOM     24  H   UNL     1       0.157   1.130   4.710  0.00  0.00    -0.083 HD
ENDBRANCH  20  21
ENDBRANCH  15  20
ENDBRANCH   1  15
TORSDOF 8
