REMARK  Name = ZINC23471904
REMARK  15 active torsions:
REMARK  status: ('A' for Active; 'I' for Inactive)
REMARK    1  A    between atoms: C_1  and  C_2
REMARK    2  A    between atoms: C_2  and  O_3
REMARK    3  A    between atoms: O_3  and  C_4
REMARK    4  A    between atoms: C_6  and  C_20
REMARK    5  A    between atoms: C_9  and  O_10
REMARK    6  A    between atoms: O_10  and  C_11
REMARK    7  A    between atoms: C_11  and  C_12
REMARK    8  A    between atoms: C_20  and  N_21
REMARK    9  A    between atoms: N_21  and  C_22
REMARK   10  A    between atoms: C_22  and  C_23
REMARK   11  A    between atoms: C_23  and  N_24
REMARK   12  A    between atoms: N_24  and  C_25
REMARK   13  A    between atoms: C_25  and  C_26
REMARK   14  A    between atoms: C_26  and  C_28
REMARK   15  A    between atoms: C_26  and  O_29
REMARK                            x       y       z     vdW  Elec       q    Type
REMARK                         _______ _______ _______ _____ _____    ______ ____
ROOT
ATOM      1  C   UNL     1       0.777  -1.811  -1.336  0.00  0.00    +0.164 A 
ATOM      2  C   UNL     1       0.243  -2.669  -0.388  0.00  0.00    +0.051 A 
ATOM      3  C   UNL     1       0.352  -4.037  -0.554  0.00  0.00    -0.059 A 
ATOM      4  C   UNL     1       0.992  -4.553  -1.665  0.00  0.00    +0.025 A 
ATOM      5  C   UNL     1       1.527  -3.703  -2.616  0.00  0.00    +0.086 A 
ATOM      6  C   UNL     1       1.416  -2.329  -2.458  0.00  0.00    +0.181 A 
ATOM      7 CL   UNL     1       2.331  -4.354  -4.010  0.00  0.00    -0.080 Cl
ENDROOT
BRANCH   1   8
ATOM      8  O   UNL     1       0.671  -0.465  -1.174  0.00  0.00    -0.489 OA
BRANCH   8  10
ATOM      9  C   UNL     1      -0.019   1.526   0.010  0.00  0.00    +0.048 C 
ATOM     10  C   UNL     1       0.002  -0.004   0.002  0.00  0.00    +0.226 C 
ENDBRANCH   8  10
ENDBRANCH   1   8
BRANCH   6  11
ATOM     11  O   UNL     1       1.936  -1.491  -3.395  0.00  0.00    -0.482 OA
BRANCH  11  12
ATOM     12  C   UNL     1       3.292  -1.079  -3.215  0.00  0.00    +0.264 C 
BRANCH  12  13
ATOM     13  C   UNL     1       3.691  -0.161  -4.341  0.00  0.00    -0.010 A 
ATOM     14  C   UNL     1       4.239  -0.683  -5.498  0.00  0.00    +0.008 A 
ATOM     15  C   UNL     1       4.606   0.159  -6.531  0.00  0.00    +0.020 A 
ATOM     16  C   UNL     1       4.423   1.525  -6.407  0.00  0.00    +0.041 A 
ATOM     17  C   UNL     1       3.874   2.047  -5.249  0.00  0.00    +0.020 A 
ATOM     18  C   UNL     1       3.503   1.204  -4.219  0.00  0.00    +0.008 A 
ATOM     19 CL   UNL     1       4.883   2.584  -7.704  0.00  0.00    -0.084 Cl
ENDBRANCH  12  13
ENDBRANCH  11  12
ENDBRANCH   6  11
BRANCH   3  20
ATOM     20  C   UNL     1      -0.229  -4.968   0.479  0.00  0.00    -0.047 C 
BRANCH  20  21
ATOM     21  N   UNL     1      -1.621  -5.282   0.128  0.00  0.00    +0.381 N 
ATOM     22  H   UNL     1      -2.161  -4.431   0.101  0.00  0.00    -0.086 HD
ATOM     23  H   UNL     1      -1.647  -5.726  -0.778  0.00  0.00    -0.086 HD
BRANCH  21  24
ATOM     24  C   UNL     1      -2.187  -6.190   1.135  0.00  0.00    -0.102 C 
BRANCH  24  25
ATOM     25  C   UNL     1      -3.636  -6.517   0.769  0.00  0.00    -0.102 C 
BRANCH  25  26
ATOM     26  N   UNL     1      -4.202  -7.425   1.776  0.00  0.00    +0.379 N 
ATOM     27  H   UNL     1      -3.662  -8.276   1.803  0.00  0.00    -0.086 HD
ATOM     28  H   UNL     1      -4.176  -6.981   2.682  0.00  0.00    -0.086 HD
BRANCH  26  29
ATOM     29  C   UNL     1      -5.593  -7.739   1.425  0.00  0.00    -0.051 C 
BRANCH  29  30
ATOM     30  C   UNL     1      -6.183  -8.684   2.473  0.00  0.00    +0.095 C 
ATOM     31  C   UNL     1      -7.632  -9.011   2.108  0.00  0.00    +0.035 C 
BRANCH  30  32
ATOM     32  O   UNL     1      -5.418  -9.890   2.512  0.00  0.00    -0.394 OA
ATOM     33  H   UNL     1      -5.735 -10.537   3.156  0.00  0.00    +0.210 HD
ENDBRANCH  30  32
ENDBRANCH  29  30
ENDBRANCH  26  29
ENDBRANCH  25  26
ENDBRANCH  24  25
ENDBRANCH  21  24
ENDBRANCH  20  21
ENDBRANCH   3  20
TORSDOF 13
