REMARK  Name = ZINC16433361
REMARK  10 active torsions:
REMARK  status: ('A' for Active; 'I' for Inactive)
REMARK    1  A    between atoms: C_1  and  C_2
REMARK    2  A    between atoms: C_2  and  C_3
REMARK    3  A    between atoms: C_3  and  C_4
REMARK    4  A    between atoms: C_4  and  N_5
REMARK    5  A    between atoms: N_5  and  C_6
REMARK    6  A    between atoms: C_6  and  C_7
REMARK    7  A    between atoms: N_9  and  C_10
REMARK    8  A    between atoms: C_12  and  C_22
REMARK    9  A    between atoms: N_14  and  C_15
REMARK   10  A    between atoms: N_30  and  C_31
REMARK                            x       y       z     vdW  Elec       q    Type
REMARK                         _______ _______ _______ _____ _____    ______ ____
ROOT
ATOM      1  C   UNL     1       2.858   0.948  -1.409  0.00  0.00    +0.236 C 
ATOM      2  O   UNL     1       2.169   1.340  -2.327  0.00  0.00    -0.274 OA
ATOM      3  N   UNL     1       4.014   0.303  -1.661  0.00  0.00    -0.269 N 
ATOM      4  H   UNL     1       4.565  -0.010  -0.927  0.00  0.00    +0.156 HD
ENDROOT
BRANCH   3   5
ATOM      5  C   UNL     1       4.418   0.085  -2.978  0.00  0.00    +0.129 A 
ATOM      6  C   UNL     1       3.747   0.467  -4.096  0.00  0.00    +0.074 A 
ATOM      7  C   UNL     1       4.499   0.053  -5.212  0.00  0.00    +0.095 A 
ATOM      8  N   UNL     1       5.581  -0.556  -4.776  0.00  0.00    -0.165 NA
ATOM      9  N   UNL     1       5.558  -0.545  -3.375  0.00  0.00    -0.218 N 
BRANCH   9  10
ATOM     10  C   UNL     1       6.535  -1.090  -2.531  0.00  0.00    +0.068 A 
ATOM     11  C   UNL     1       6.837  -0.469  -1.326  0.00  0.00    +0.030 A 
ATOM     12  C   UNL     1       7.797  -1.010  -0.494  0.00  0.00    +0.040 A 
ATOM     13  C   UNL     1       8.465  -2.165  -0.864  0.00  0.00    +0.124 A 
ATOM     14  C   UNL     1       8.168  -2.784  -2.067  0.00  0.00    +0.040 A 
ATOM     15  C   UNL     1       7.206  -2.248  -2.900  0.00  0.00    +0.030 A 
ATOM     16  F   UNL     1       9.407  -2.690  -0.050  0.00  0.00    -0.205 F 
ENDBRANCH   9  10
BRANCH   7  17
ATOM     17  C   UNL     1       4.134   0.266  -6.635  0.00  0.00    +0.002 A 
ATOM     18  C   UNL     1       2.950   0.924  -6.962  0.00  0.00    +0.010 A 
ATOM     19  C   UNL     1       2.618   1.124  -8.287  0.00  0.00    +0.001 A 
ATOM     20  C   UNL     1       3.453   0.662  -9.289  0.00  0.00    +0.000 A 
ATOM     21  C   UNL     1       4.626   0.004  -8.970  0.00  0.00    +0.001 A 
ATOM     22  C   UNL     1       4.971  -0.197  -7.648  0.00  0.00    +0.010 A 
ENDBRANCH   7  17
ENDBRANCH   3   5
BRANCH   1  23
ATOM     23  C   UNL     1       2.422   1.184   0.014  0.00  0.00    +0.205 C 
BRANCH  23  24
ATOM     24  N   UNL     1       1.144   1.900   0.021  0.00  0.00    -0.277 N 
ATOM     25  C   UNL     1      -0.015   1.211   0.017  0.00  0.00    +0.307 C 
ATOM     26  O   UNL     1       0.001  -0.005   0.009  0.00  0.00    -0.252 OA
ATOM     27  N   UNL     1      -1.191   1.870   0.018  0.00  0.00    -0.267 N 
ATOM     28  H   UNL     1      -1.205   2.837   0.090  0.00  0.00    +0.156 HD
BRANCH  27  29
ATOM     29  C   UNL     1      -2.392   1.157  -0.086  0.00  0.00    +0.070 A 
ATOM     30  C   UNL     1      -2.511  -0.096   0.499  0.00  0.00    +0.026 A 
ATOM     31  C   UNL     1      -3.699  -0.794   0.398  0.00  0.00    +0.002 A 
ATOM     32  C   UNL     1      -4.767  -0.251  -0.292  0.00  0.00    +0.003 A 
ATOM     33  C   UNL     1      -4.652   0.995  -0.881  0.00  0.00    +0.040 A 
ATOM     34  C   UNL     1      -3.467   1.702  -0.780  0.00  0.00    +0.145 A 
ATOM     35  F   UNL     1      -3.354   2.919  -1.355  0.00  0.00    -0.204 F 
ENDBRANCH  27  29
BRANCH  24  36
ATOM     36  C   UNL     1       1.125   3.365   0.031  0.00  0.00    +0.110 C 
BRANCH  36  37
ATOM     37  C   UNL     1       1.120   3.865   1.477  0.00  0.00    +0.019 C 
BRANCH  37  39
ATOM     38  C   UNL     1       1.095   5.895   2.933  0.00  0.00    +0.004 C 
ATOM     39  C   UNL     1       1.100   5.395   1.487  0.00  0.00    -0.002 C 
ENDBRANCH  37  39
ENDBRANCH  36  37
ENDBRANCH  24  36
ENDBRANCH  23  24
ENDBRANCH   1  23
TORSDOF 9
