REMARK  Name = ZINC50695541
REMARK  12 active torsions:
REMARK  status: ('A' for Active; 'I' for Inactive)
REMARK    1  A    between atoms: C_1  and  C_2
REMARK    2  A    between atoms: C_2  and  N_3
REMARK    3  A    between atoms: N_3  and  C_4
REMARK    4  A    between atoms: N_3  and  C_6
REMARK    5  A    between atoms: C_4  and  C_5
REMARK    6  A    between atoms: C_6  and  C_7
REMARK    7  A    between atoms: C_7  and  C_8
REMARK    8  A    between atoms: C_8  and  C_9
REMARK    9  A    between atoms: C_9  and  C_11
REMARK   10  A    between atoms: C_9  and  N_12
REMARK   11  A    between atoms: C_13  and  C_15
REMARK   12  A    between atoms: C_20  and  N_21
REMARK                            x       y       z     vdW  Elec       q    Type
REMARK                         _______ _______ _______ _____ _____    ______ ____
ROOT
ATOM      1  N   UNL     1      -1.061  -3.467   4.810  0.00  0.00    -0.309 N 
ATOM      2  C   UNL     1      -0.499  -3.106   5.981  0.00  0.00    +0.248 C 
ATOM      3  O   UNL     1       0.675  -3.344   6.190  0.00  0.00    -0.270 OA
ATOM      4  H   UNL     1      -1.998  -3.278   4.644  0.00  0.00    +0.149 HD
ENDROOT
BRANCH   2   5
ATOM      5  C   UNL     1      -1.307  -2.424   7.008  0.00  0.00    +0.077 A 
ATOM      6  C   UNL     1      -2.688  -2.266   6.839  0.00  0.00    +0.033 A 
ATOM      7  C   UNL     1      -3.402  -1.619   7.832  0.00  0.00    +0.037 A 
ATOM      8  C   UNL     1      -2.738  -1.149   8.953  0.00  0.00    +0.128 A 
ATOM      9  N   UNL     1      -1.436  -1.307   9.092  0.00  0.00    -0.239 NA
ATOM     10  C   UNL     1      -0.707  -1.924   8.175  0.00  0.00    +0.128 A 
ATOM     11 BR   UNL     1      -5.269  -1.377   7.660  0.00  0.00    -0.049 Br
BRANCH  10  12
ATOM     12  N   UNL     1       0.655  -2.072   8.366  0.00  0.00    -0.343 N 
ATOM     13  H   UNL     1       1.208  -2.429   7.653  0.00  0.00    +0.144 HD
ATOM     14  H   UNL     1       1.057  -1.819   9.212  0.00  0.00    +0.144 HD
ENDBRANCH  10  12
ENDBRANCH   2   5
BRANCH   1  15
ATOM     15  C   UNL     1      -0.258  -4.145   3.790  0.00  0.00    +0.070 C 
ATOM     16  C   UNL     1      -0.236  -5.649   4.075  0.00  0.00    +0.028 C 
BRANCH  15  17
ATOM     17  C   UNL     1      -0.870  -3.897   2.410  0.00  0.00    +0.020 C 
BRANCH  17  18
ATOM     18  C   UNL     1      -0.779  -2.407   2.073  0.00  0.00    -0.017 C 
BRANCH  18  19
ATOM     19  C   UNL     1      -1.391  -2.158   0.693  0.00  0.00    -0.079 C 
BRANCH  19  20
ATOM     20  N   UNL     1      -1.304  -0.728   0.369  0.00  0.00    +0.379 N 
ATOM     21  H   UNL     1      -1.736  -0.189   1.105  0.00  0.00    -0.082 HD
BRANCH  20  23
ATOM     22  C   UNL     1       0.205   1.174   0.047  0.00  0.00    -0.017 C 
ATOM     23  C   UNL     1       0.108  -0.340   0.244  0.00  0.00    -0.082 C 
ENDBRANCH  20  23
BRANCH  20  24
ATOM     24  C   UNL     1      -1.997  -0.470  -0.900  0.00  0.00    -0.082 C 
ATOM     25  C   UNL     1      -3.493  -0.739  -0.728  0.00  0.00    -0.017 C 
ENDBRANCH  20  24
ENDBRANCH  19  20
ENDBRANCH  18  19
ENDBRANCH  17  18
ENDBRANCH  15  17
ENDBRANCH   1  15
TORSDOF 9
