REMARK  Name = ZINC53868013
REMARK  10 active torsions:
REMARK  status: ('A' for Active; 'I' for Inactive)
REMARK    1  A    between atoms: C_1  and  C_2
REMARK    2  A    between atoms: C_2  and  C_3
REMARK    3  A    between atoms: C_2  and  C_4
REMARK    4  A    between atoms: C_2  and  C_5
REMARK    5  A    between atoms: C_9  and  N_24
REMARK    6  A    between atoms: C_11  and  C_14
REMARK    7  A    between atoms: C_14  and  N_15
REMARK    8  A    between atoms: N_15  and  C_16
REMARK    9  A    between atoms: N_15  and  C_17
REMARK   10  A    between atoms: C_17  and  C_18
REMARK                            x       y       z     vdW  Elec       q    Type
REMARK                         _______ _______ _______ _____ _____    ______ ____
ROOT
ATOM      1  C   UNL     1       0.688  -0.499  -1.312  0.00  0.00    -0.005 C 
ATOM      2  C   UNL     1       0.737  -2.026  -1.225  0.00  0.00    +0.002 C 
ATOM      3  C   UNL     1       1.493  -2.582  -2.434  0.00  0.00    -0.016 C 
ATOM      4  C   UNL     1       2.918  -2.025  -2.443  0.00  0.00    -0.071 C 
ATOM      5  C   UNL     1       2.869  -0.498  -2.530  0.00  0.00    -0.011 C 
ATOM      6  C   UNL     1       2.113   0.057  -1.321  0.00  0.00    +0.007 C 
ENDROOT
BRANCH   1   8
ATOM      7  C   UNL     1      -0.117   1.583  -0.190  0.00  0.00    +0.011 C 
ATOM      8  C   UNL     1      -0.068   0.056  -0.103  0.00  0.00    -0.035 C 
ATOM      9  C   UNL     1       0.650  -0.359   1.183  0.00  0.00    +0.011 C 
ATOM     10  C   UNL     1      -1.494  -0.500  -0.093  0.00  0.00    +0.011 C 
ENDBRANCH   1   8
BRANCH   4  11
ATOM     11  N   UNL     1       3.608  -2.424  -1.209  0.00  0.00    +0.380 N 
ATOM     12  H   UNL     1       3.640  -3.430  -1.152  0.00  0.00    -0.090 HD
ATOM     13  H   UNL     1       4.548  -2.057  -1.215  0.00  0.00    -0.090 HD
ATOM     14  H   UNL     1       3.109  -2.057  -0.412  0.00  0.00    -0.090 HD
ENDBRANCH   4  11
BRANCH   5  15
ATOM     15  C   UNL     1       4.294   0.058  -2.540  0.00  0.00    +0.086 C 
BRANCH  15  16
ATOM     16  N   UNL     1       4.993  -0.406  -3.746  0.00  0.00    -0.301 NA
ATOM     17  C   UNL     1       4.541   0.334  -4.932  0.00  0.00    +0.105 C 
BRANCH  16  18
ATOM     18  C   UNL     1       6.449  -0.302  -3.584  0.00  0.00    +0.119 C 
BRANCH  18  19
ATOM     19  C   UNL     1       7.133  -1.006  -4.727  0.00  0.00    -0.031 A 
ATOM     20  C   UNL     1       7.453  -2.353  -4.641  0.00  0.00    +0.024 A 
ATOM     21  C   UNL     1       8.080  -2.965  -5.710  0.00  0.00    +0.111 A 
ATOM     22  N   UNL     1       8.375  -2.284  -6.800  0.00  0.00    -0.263 NA
ATOM     23  C   UNL     1       8.086  -1.002  -6.916  0.00  0.00    +0.111 A 
ATOM     24  C   UNL     1       7.453  -0.325  -5.891  0.00  0.00    +0.024 A 
ENDBRANCH  18  19
ENDBRANCH  16  18
ENDBRANCH  15  16
ENDBRANCH   5  15
TORSDOF 6
