REMARK  Name = ZINC32682851
REMARK  8 active torsions:
REMARK  status: ('A' for Active; 'I' for Inactive)
REMARK    1  A    between atoms: C_10  and  C_12
REMARK    2  A    between atoms: C_12  and  S_13
REMARK    3  A    between atoms: S_13  and  C_14
REMARK    4  A    between atoms: C_19  and  C_20
REMARK    5  A    between atoms: N_22  and  C_23
REMARK    6  A    between atoms: C_23  and  C_24
REMARK    7  A    between atoms: C_24  and  C_26
REMARK    8  A    between atoms: C_24  and  N_31
REMARK                            x       y       z     vdW  Elec       q    Type
REMARK                         _______ _______ _______ _____ _____    ______ ____
ROOT
ATOM      1  C   UNL     1      -4.573   5.997  -3.519  0.00  0.00    +0.020 A 
ATOM      2  C   UNL     1      -5.654   6.868  -3.453  0.00  0.00    +0.015 A 
ATOM      3  C   UNL     1      -6.317   7.056  -2.258  0.00  0.00    +0.001 A 
ATOM      4  C   UNL     1      -5.912   6.382  -1.116  0.00  0.00    +0.001 A 
ATOM      5  C   UNL     1      -4.846   5.511  -1.163  0.00  0.00    +0.014 A 
ATOM      6  C   UNL     1      -4.160   5.313  -2.365  0.00  0.00    +0.050 A 
ENDROOT
BRANCH   6   7
ATOM      7  C   UNL     1      -3.015   4.387  -2.420  0.00  0.00    +0.245 C 
ATOM      8  O   UNL     1      -2.424   4.213  -3.469  0.00  0.00    -0.270 OA
ATOM      9  N   UNL     1      -2.623   3.732  -1.309  0.00  0.00    -0.312 N 
ATOM     10  H   UNL     1      -3.157   3.889  -0.361  0.00  0.00    +0.149 HD
BRANCH   9  11
ATOM     11  C   UNL     1      -1.484   2.812  -1.365  0.00  0.00    +0.097 C 
BRANCH  11  12
ATOM     12  C   UNL     1      -1.250   2.205   0.020  0.00  0.00    +0.016 C 
BRANCH  12  13
ATOM     13  N   UNL     1      -1.085   3.283   1.005  0.00  0.00    +0.387 N 
ATOM     14  C   UNL     1       0.013   4.181   0.623  0.00  0.00    -0.078 C 
ATOM     15  C   UNL     1       0.063   5.368   1.587  0.00  0.00    -0.019 C 
ATOM     16  C   UNL     1       0.273   4.851   3.014  0.00  0.00    -0.004 C 
ATOM     17  C   UNL     1      -0.857   3.882   3.369  0.00  0.00    -0.019 C 
ATOM     18  C   UNL     1      -0.880   2.738   2.353  0.00  0.00    -0.078 C 
ATOM     19  H   UNL     1      -2.012   3.875   1.020  0.00  0.00    -0.081 HD
ENDBRANCH  12  13
BRANCH  12  20
ATOM     20  C   UNL     1      -0.007   1.355  -0.007  0.00  0.00    +0.093 A 
ATOM     21  C   UNL     1       0.028   0.011   0.034  0.00  0.00    +0.043 A 
ATOM     22  C   UNL     1       1.389  -0.366  -0.020  0.00  0.00    +0.041 A 
ATOM     23  C   UNL     1       2.105   0.770  -0.091  0.00  0.00    +0.195 A 
ATOM     24  O   UNL     1       1.254   1.810  -0.083  0.00  0.00    -0.469 OA
ENDBRANCH  12  20
ENDBRANCH  11  12
ENDBRANCH   9  11
ENDBRANCH   6   7
BRANCH   1  25
ATOM     25  S   UNL     1      -3.724   5.753  -5.044  0.00  0.00    -0.115 S 
BRANCH  25  26
ATOM     26  C   UNL     1      -4.604   6.826  -6.213  0.00  0.00    +0.170 C 
BRANCH  26  36
ATOM     27  C   UNL     1      -7.644  10.104  -8.803  0.00  0.00    +0.000 A 
ATOM     28  C   UNL     1      -7.385   9.524  -7.575  0.00  0.00    +0.002 A 
ATOM     29  C   UNL     1      -6.347   8.628  -7.436  0.00  0.00    +0.024 A 
ATOM     30  C   UNL     1      -5.550   8.299  -8.534  0.00  0.00    +0.039 A 
ATOM     31  C   UNL     1      -5.818   8.885  -9.761  0.00  0.00    -0.024 A 
ATOM     32  C   UNL     1      -6.859   9.783  -9.895  0.00  0.00    +0.005 A 
ATOM     33  C   UNL     1      -4.821   8.364 -10.771  0.00  0.00    +0.056 C 
ATOM     34  C   UNL     1      -3.929   7.400  -9.973  0.00  0.00    +0.118 C 
ATOM     35  N   UNL     1      -4.461   7.423  -8.609  0.00  0.00    -0.270 N 
ATOM     36  C   UNL     1      -3.971   6.711  -7.575  0.00  0.00    +0.230 C 
ATOM     37  O   UNL     1      -3.019   5.977  -7.742  0.00  0.00    -0.274 OA
ENDBRANCH  26  36
ENDBRANCH  25  26
ENDBRANCH   1  25
TORSDOF 8
