REMARK  Name = ZINC39325382
REMARK  10 active torsions:
REMARK  status: ('A' for Active; 'I' for Inactive)
REMARK    1  A    between atoms: C_1  and  C_2
REMARK    2  A    between atoms: C_8  and  C_14
REMARK    3  A    between atoms: C_14  and  N_15
REMARK    4  A    between atoms: N_15  and  C_16
REMARK    5  A    between atoms: N_15  and  S_25
REMARK    6  A    between atoms: C_16  and  C_17
REMARK    7  A    between atoms: C_20  and  O_23
REMARK    8  A    between atoms: O_23  and  C_24
REMARK    9  A    between atoms: S_25  and  C_28
REMARK   10  A    between atoms: C_29  and  C_37
REMARK                            x       y       z     vdW  Elec       q    Type
REMARK                         _______ _______ _______ _____ _____    ______ ____
ROOT
ATOM      1  N   UNL     1      -1.221  -2.440   6.165  0.00  0.00    -0.171 NA
ENDROOT
BRANCH   1   2
ATOM      2  S   UNL     1      -0.262  -2.904   7.433  0.00  0.00    +0.064 S 
ATOM      3  O   UNL     1      -0.752  -2.227   8.582  0.00  0.00    -0.153 OA
ATOM      4  O   UNL     1      -0.161  -4.320   7.368  0.00  0.00    -0.153 OA
BRANCH   2   5
ATOM      5  C   UNL     1       1.352  -2.269   7.125  0.00  0.00    +0.136 A 
ATOM      6  C   UNL     1       1.722  -1.078   7.652  0.00  0.00    -0.022 A 
ATOM      7  C   UNL     1       2.991  -0.545   7.429  0.00  0.00    +0.007 A 
ATOM      8  C   UNL     1       3.909  -1.195   6.676  0.00  0.00    +0.031 A 
ATOM      9  C   UNL     1       3.591  -2.450   6.090  0.00  0.00    +0.102 A 
ATOM     10  C   UNL     1       2.266  -3.011   6.328  0.00  0.00    +0.126 A 
ATOM     11  N   UNL     1       2.082  -4.191   5.736  0.00  0.00    -0.189 NA
ATOM     12  S   UNL     1       3.464  -4.518   4.980  0.00  0.00    +0.117 S 
ATOM     13  N   UNL     1       4.360  -3.228   5.327  0.00  0.00    -0.191 NA
ATOM     14  C   UNL     1       0.739  -0.311   8.498  0.00  0.00    +0.046 C 
ENDBRANCH   2   5
ENDBRANCH   1   2
BRANCH   1  15
ATOM     15  C   UNL     1      -1.431  -3.347   5.034  0.00  0.00    +0.126 C 
BRANCH  15  23
ATOM     16  C   UNL     1      -3.285  -8.824   7.093  0.00  0.00    +0.045 C 
ATOM     17  C   UNL     1      -3.305  -8.218   5.713  0.00  0.00    -0.029 A 
ATOM     18  C   UNL     1      -3.496  -9.015   4.630  0.00  0.00    +0.005 A 
ATOM     19  C   UNL     1      -3.525  -8.519   3.326  0.00  0.00    +0.001 A 
ATOM     20  C   UNL     1      -3.361  -7.196   3.069  0.00  0.00    +0.009 A 
ATOM     21  C   UNL     1      -3.151  -6.280   4.191  0.00  0.00    -0.007 A 
ATOM     22  C   UNL     1      -2.982  -4.944   3.981  0.00  0.00    -0.003 C 
ATOM     23  C   UNL     1      -2.769  -4.070   5.202  0.00  0.00    +0.114 C 
ATOM     24  C   UNL     1      -2.762  -4.751   6.551  0.00  0.00    +0.225 C 
ATOM     25  O   UNL     1      -2.596  -4.098   7.564  0.00  0.00    -0.275 OA
ATOM     26  N   UNL     1      -2.937  -6.059   6.627  0.00  0.00    -0.284 N 
ATOM     27  C   UNL     1      -3.130  -6.831   5.557  0.00  0.00    +0.043 A 
ATOM     28  H   UNL     1      -2.929  -6.477   7.503  0.00  0.00    +0.155 HD
ENDBRANCH  15  23
ENDBRANCH   1  15
BRANCH   1  29
ATOM     29  C   UNL     1      -1.860  -1.121   6.174  0.00  0.00    +0.144 C 
BRANCH  29  30
ATOM     30  C   UNL     1      -3.240  -1.236   6.770  0.00  0.00    -0.031 A 
ATOM     31  C   UNL     1      -4.323  -1.505   5.955  0.00  0.00    +0.008 A 
ATOM     32  C   UNL     1      -5.589  -1.610   6.498  0.00  0.00    +0.046 A 
ATOM     33  C   UNL     1      -5.772  -1.445   7.863  0.00  0.00    +0.120 A 
ATOM     34  C   UNL     1      -4.683  -1.175   8.679  0.00  0.00    +0.046 A 
ATOM     35  C   UNL     1      -3.419  -1.076   8.132  0.00  0.00    +0.008 A 
BRANCH  33  36
ATOM     36  O   UNL     1      -7.016  -1.547   8.400  0.00  0.00    -0.495 OA
ATOM     37  C   UNL     1      -7.130  -1.366   9.813  0.00  0.00    +0.277 C 
ENDBRANCH  33  36
ENDBRANCH  29  30
ENDBRANCH   1  29
TORSDOF 7
