REMARK  Name = ZINC12299992
REMARK  9 active torsions:
REMARK  status: ('A' for Active; 'I' for Inactive)
REMARK    1  A    between atoms: C_1  and  O_2
REMARK    2  A    between atoms: O_2  and  C_3
REMARK    3  A    between atoms: C_3  and  C_4
REMARK    4  A    between atoms: C_4  and  N_66
REMARK    5  A    between atoms: C_5  and  C_6
REMARK    6  A    between atoms: C_5  and  N_66
REMARK    7  A    between atoms: C_15  and  C_16
REMARK    8  A    between atoms: C_15  and  N_66
REMARK    9  A    between atoms: C_22  and  N_68
REMARK                            x       y       z     vdW  Elec       q    Type
REMARK                         _______ _______ _______ _____ _____    ______ ____
ROOT
ATOM      1  C   UNL     1      -2.359  -3.232  -2.207  0.00  0.00    -0.077 C 
ENDROOT
BRANCH   1   2
ATOM      2  C   UNL     1      -2.852  -1.899  -2.772  0.00  0.00    -0.044 C 
ATOM      3  C   UNL     1      -4.126  -1.470  -2.038  0.00  0.00    -0.002 C 
ATOM      4  C   UNL     1      -4.578  -0.108  -2.569  0.00  0.00    -0.018 C 
ATOM      5  C   UNL     1      -3.450   0.908  -2.381  0.00  0.00    -0.078 C 
ATOM      6  C   UNL     1      -1.773  -0.831  -2.578  0.00  0.00    -0.077 C 
ATOM      7  N   UNL     1      -2.261   0.451  -3.131  0.00  0.00    +0.382 N 
ATOM      8  H   UNL     1      -2.522   0.311  -4.114  0.00  0.00    -0.081 HD
BRANCH   7   9
ATOM      9  C   UNL     1      -1.194   1.470  -3.058  0.00  0.00    -0.060 C 
ATOM     10  C   UNL     1      -1.704   2.819  -3.611  0.00  0.00    +0.020 C 
ATOM     11  C   UNL     1      -0.519   3.425  -4.330  0.00  0.00    -0.046 A 
ATOM     12  C   UNL     1      -0.287   4.729  -4.737  0.00  0.00    +0.004 A 
ATOM     13  C   UNL     1       0.886   5.056  -5.388  0.00  0.00    +0.000 A 
ATOM     14  C   UNL     1       1.833   4.079  -5.635  0.00  0.00    +0.000 A 
ATOM     15  C   UNL     1       1.604   2.779  -5.231  0.00  0.00    +0.004 A 
ATOM     16  C   UNL     1       0.428   2.449  -4.577  0.00  0.00    -0.046 A 
ATOM     17  C   UNL     1      -0.057   1.119  -4.040  0.00  0.00    +0.020 C 
ENDBRANCH   7   9
ENDBRANCH   1   2
BRANCH   1  18
ATOM     18  N   UNL     1      -3.357  -4.277  -2.518  0.00  0.00    +0.384 N 
ATOM     19  H   UNL     1      -4.298  -3.896  -2.360  0.00  0.00    -0.081 HD
BRANCH  18  20
ATOM     20  C   UNL     1      -3.157  -5.445  -1.635  0.00  0.00    -0.050 C 
BRANCH  20  21
ATOM     21  C   UNL     1      -3.746  -5.127  -0.260  0.00  0.00    +0.141 C 
BRANCH  21  23
ATOM     22  C   UNL     1      -5.792  -4.522   0.833  0.00  0.00    +0.193 C 
ATOM     23  O   UNL     1      -5.157  -4.933  -0.379  0.00  0.00    -0.385 OA
ENDBRANCH  21  23
ENDBRANCH  20  21
ENDBRANCH  18  20
BRANCH  18  24
ATOM     24  C   UNL     1      -3.236  -4.686  -3.933  0.00  0.00    -0.043 C 
BRANCH  24  25
ATOM     25  C   UNL     1      -4.470  -5.459  -4.321  0.00  0.00    -0.063 A 
ATOM     26  C   UNL     1      -5.610  -4.788  -4.726  0.00  0.00    +0.005 A 
ATOM     27  C   UNL     1      -6.743  -5.491  -5.079  0.00  0.00    +0.046 A 
ATOM     28  C   UNL     1      -6.749  -6.883  -5.030  0.00  0.00    +0.124 A 
ATOM     29  C   UNL     1      -5.597  -7.545  -4.627  0.00  0.00    -0.002 A 
ATOM     30  C   UNL     1      -4.465  -6.841  -4.278  0.00  0.00    +0.009 A 
ATOM     31  C   UNL     1      -5.894  -9.031  -4.686  0.00  0.00    +0.080 C 
ATOM     32  C   UNL     1      -7.184  -9.065  -5.539  0.00  0.00    +0.234 C 
ATOM     33  O   UNL     1      -7.749  -7.762  -5.314  0.00  0.00    -0.491 OA
ENDBRANCH  24  25
ENDBRANCH  18  24
ENDBRANCH   1  18
TORSDOF 8
