REMARK  Name = ZINC18088241
REMARK  6 active torsions:
REMARK  status: ('A' for Active; 'I' for Inactive)
REMARK    1  A    between atoms: C_1  and  C_2
REMARK    2  A    between atoms: C_8  and  C_12
REMARK    3  A    between atoms: C_12  and  C_13
REMARK    4  A    between atoms: C_13  and  N_46
REMARK    5  A    between atoms: C_14  and  N_46
REMARK    6  A    between atoms: N_19  and  C_22
REMARK                            x       y       z     vdW  Elec       q    Type
REMARK                         _______ _______ _______ _____ _____    ______ ____
ROOT
ATOM      1  N   UNL     1      -1.336   0.449  -1.967  0.00  0.00    +0.387 N 
ATOM      2  H   UNL     1      -0.637  -0.303  -1.952  0.00  0.00    -0.085 HD
ATOM      3  H   UNL     1      -2.209   0.112  -1.542  0.00  0.00    -0.085 HD
ENDROOT
BRANCH   1   4
ATOM      4  C   UNL     1      -0.831   1.599  -1.194  0.00  0.00    +0.026 C 
ATOM      5  C   UNL     1       0.004   1.111   0.007  0.00  0.00    +0.090 C 
ATOM      6  C   UNL     1      -0.752   1.639   1.207  0.00  0.00    +0.225 C 
ATOM      7  O   UNL     1      -0.432   1.479   2.365  0.00  0.00    -0.275 OA
ATOM      8  N   UNL     1      -1.834   2.309   0.782  0.00  0.00    -0.212 N 
ATOM      9  C   UNL     1      -1.975   2.351  -0.549  0.00  0.00    +0.213 C 
ATOM     10  O   UNL     1      -2.876   2.903  -1.143  0.00  0.00    -0.277 OA
BRANCH   8  11
ATOM     11  C   UNL     1      -2.742   2.919   1.660  0.00  0.00    +0.047 A 
ATOM     12  C   UNL     1      -2.844   4.303   1.704  0.00  0.00    +0.044 A 
ATOM     13  C   UNL     1      -3.743   4.901   2.567  0.00  0.00    +0.044 A 
ATOM     14  C   UNL     1      -4.532   4.122   3.395  0.00  0.00    +0.040 A 
ATOM     15  C   UNL     1      -4.428   2.743   3.357  0.00  0.00    +0.044 A 
ATOM     16  C   UNL     1      -3.535   2.140   2.491  0.00  0.00    +0.044 A 
ATOM     17 CL   UNL     1      -5.420   1.770   4.396  0.00  0.00    -0.083 Cl
ATOM     18 CL   UNL     1      -3.877   6.631   2.617  0.00  0.00    -0.083 Cl
ENDBRANCH   8  11
ENDBRANCH   1   4
BRANCH   1  19
ATOM     19  C   UNL     1      -1.596   0.845  -3.364  0.00  0.00    -0.077 C 
BRANCH  19  20
ATOM     20  C   UNL     1      -2.118  -0.367  -4.139  0.00  0.00    +0.018 C 
BRANCH  20  28
ATOM     21  C   UNL     1       2.071  -0.376  -8.047  0.00  0.00    +0.044 C 
ATOM     22  C   UNL     1       0.598  -0.072  -7.949  0.00  0.00    -0.050 A 
ATOM     23  C   UNL     1      -0.095   0.348  -9.076  0.00  0.00    +0.005 A 
ATOM     24  C   UNL     1      -1.443   0.624  -9.009  0.00  0.00    +0.026 A 
ATOM     25  C   UNL     1      -2.116   0.492  -7.799  0.00  0.00    +0.047 A 
ATOM     26  C   UNL     1      -1.409   0.069  -6.659  0.00  0.00    +0.003 A 
ATOM     27  C   UNL     1      -0.044  -0.212  -6.751  0.00  0.00    +0.013 A 
ATOM     28  C   UNL     1      -2.386   0.029  -5.569  0.00  0.00    -0.024 A 
ATOM     29  C   UNL     1      -3.563   0.418  -6.082  0.00  0.00    +0.087 A 
ATOM     30  N   UNL     1      -3.422   0.699  -7.414  0.00  0.00    -0.360 N 
ATOM     31  H   UNL     1      -4.135   0.998  -7.999  0.00  0.00    +0.165 HD
ENDBRANCH  20  28
ENDBRANCH  19  20
ENDBRANCH   1  19
TORSDOF 5
