REMARK  Name = ZINC06395595
REMARK  8 active torsions:
REMARK  status: ('A' for Active; 'I' for Inactive)
REMARK    1  A    between atoms: C_1  and  O_2
REMARK    2  A    between atoms: O_2  and  C_3
REMARK    3  A    between atoms: C_5  and  C_11
REMARK    4  A    between atoms: C_8  and  O_9
REMARK    5  A    between atoms: C_11  and  C_13
REMARK    6  A    between atoms: C_11  and  N_25
REMARK    7  A    between atoms: C_22  and  O_23
REMARK    8  A    between atoms: N_25  and  C_26
REMARK                            x       y       z     vdW  Elec       q    Type
REMARK                         _______ _______ _______ _____ _____    ______ ____
ROOT
ATOM      1  C   UNL     1       3.635  -1.981  -0.133  0.00  0.00    +0.136 C 
ENDROOT
BRANCH   1   2
ATOM      2  C   UNL     1       2.814  -2.497  -1.286  0.00  0.00    +0.022 A 
ATOM      3  C   UNL     1       1.821  -1.690  -1.835  0.00  0.00    +0.030 A 
ATOM      4  C   UNL     1       1.065  -2.125  -2.882  0.00  0.00    +0.051 A 
ATOM      5  C   UNL     1       1.280  -3.409  -3.411  0.00  0.00    +0.022 A 
ATOM      6  C   UNL     1       0.516  -3.895  -4.488  0.00  0.00    +0.013 A 
ATOM      7  C   UNL     1       0.781  -5.153  -4.950  0.00  0.00    +0.020 A 
ATOM      8  C   UNL     1       1.784  -5.915  -4.355  0.00  0.00    +0.111 A 
ATOM      9  N   UNL     1       2.493  -5.458  -3.352  0.00  0.00    -0.251 NA
ATOM     10  C   UNL     1       2.285  -4.237  -2.853  0.00  0.00    +0.114 A 
ATOM     11  C   UNL     1       3.052  -3.750  -1.773  0.00  0.00    +0.148 A 
ATOM     12 CL   UNL     1      -0.164  -1.099  -3.556  0.00  0.00    -0.083 Cl
BRANCH  11  13
ATOM     13  O   UNL     1       4.022  -4.525  -1.221  0.00  0.00    -0.504 OA
ATOM     14  H   UNL     1       3.714  -5.082  -0.493  0.00  0.00    +0.292 HD
ENDBRANCH  11  13
ENDBRANCH   1   2
BRANCH   1  17
ATOM     15  C   UNL     1       3.024  -3.836   3.102  0.00  0.00    +0.163 A 
ATOM     16  C   UNL     1       3.598  -3.429   1.908  0.00  0.00    +0.055 A 
ATOM     17  C   UNL     1       3.010  -2.422   1.166  0.00  0.00    -0.018 A 
ATOM     18  C   UNL     1       1.852  -1.814   1.615  0.00  0.00    +0.025 A 
ATOM     19  C   UNL     1       1.271  -2.219   2.803  0.00  0.00    +0.063 A 
ATOM     20  C   UNL     1       1.856  -3.229   3.552  0.00  0.00    +0.173 A 
ATOM     21 BR   UNL     1      -0.317  -1.390   3.410  0.00  0.00    -0.046 Br
BRANCH  15  23
ATOM     22  C   UNL     1       4.800  -5.404   3.310  0.00  0.00    +0.277 C 
ATOM     23  O   UNL     1       3.602  -4.827   3.833  0.00  0.00    -0.491 OA
ENDBRANCH  15  23
BRANCH  20  24
ATOM     24  O   UNL     1       1.289  -3.625   4.723  0.00  0.00    -0.503 OA
ATOM     25  H   UNL     1       1.605  -3.139   5.497  0.00  0.00    +0.292 HD
ENDBRANCH  20  24
ENDBRANCH   1  17
BRANCH   1  26
ATOM     26  N   UNL     1       3.680  -0.518  -0.181  0.00  0.00    -0.320 N 
ATOM     27  H   UNL     1       3.087   0.004   0.381  0.00  0.00    +0.148 HD
BRANCH  26  28
ATOM     28  C   UNL     1       4.574   0.122  -1.031  0.00  0.00    +0.097 A 
ATOM     29  C   UNL     1       5.495  -0.629  -1.756  0.00  0.00    +0.041 A 
ATOM     30  C   UNL     1       6.378   0.021  -2.599  0.00  0.00    +0.005 A 
ATOM     31  C   UNL     1       6.312   1.405  -2.688  0.00  0.00    +0.018 A 
ATOM     32  C   UNL     1       5.373   2.087  -1.940  0.00  0.00    +0.084 A 
ATOM     33  N   UNL     1       4.489   1.482  -1.103  0.00  0.00    -0.350 N 
ATOM     34  H   UNL     1       3.801   2.015  -0.559  0.00  0.00    +0.166 HD
ENDBRANCH  26  28
ENDBRANCH   1  26
TORSDOF 7
