REMARK  Name = ZINC02470532
REMARK  9 active torsions:
REMARK  status: ('A' for Active; 'I' for Inactive)
REMARK    1  A    between atoms: C_1  and  C_2
REMARK    2  A    between atoms: N_7  and  C_8
REMARK    3  A    between atoms: C_8  and  C_10
REMARK    4  A    between atoms: C_8  and  C_19
REMARK    5  A    between atoms: C_13  and  O_18
REMARK    6  A    between atoms: C_14  and  O_16
REMARK    7  A    between atoms: O_16  and  C_17
REMARK    8  A    between atoms: C_25  and  C_30
REMARK    9  A    between atoms: C_28  and  O_29
REMARK                            x       y       z     vdW  Elec       q    Type
REMARK                         _______ _______ _______ _____ _____    ______ ____
ROOT
ATOM      1  C   UNL     1      -0.465   2.912   5.830  0.00  0.00    +0.136 C 
ENDROOT
BRANCH   1   2
ATOM      2  C   UNL     1       0.304   2.396   7.019  0.00  0.00    +0.021 A 
ATOM      3  C   UNL     1       1.673   2.170   6.904  0.00  0.00    +0.010 A 
ATOM      4  C   UNL     1       2.398   1.709   7.961  0.00  0.00    +0.010 A 
ATOM      5  C   UNL     1       1.757   1.446   9.183  0.00  0.00    +0.004 A 
ATOM      6  C   UNL     1       2.471   0.964  10.296  0.00  0.00    +0.012 A 
ATOM      7  C   UNL     1       1.783   0.730  11.452  0.00  0.00    +0.023 A 
ATOM      8  C   UNL     1       0.411   0.970  11.504  0.00  0.00    +0.039 A 
ATOM      9  N   UNL     1      -0.250   1.419  10.466  0.00  0.00    -0.248 NA
ATOM     10  C   UNL     1       0.364   1.668   9.306  0.00  0.00    +0.113 A 
ATOM     11  C   UNL     1      -0.353   2.152   8.191  0.00  0.00    +0.148 A 
ATOM     12  C   UNL     1      -0.331   0.707  12.789  0.00  0.00    +0.065 C 
BRANCH  11  13
ATOM     13  O   UNL     1      -1.690   2.374   8.283  0.00  0.00    -0.504 OA
ATOM     14  H   UNL     1      -2.233   1.608   8.049  0.00  0.00    +0.292 HD
ENDBRANCH  11  13
ENDBRANCH   1   2
BRANCH   1  21
ATOM     15  C   UNL     1       0.172   1.440  -0.074  0.00  0.00    +0.063 C 
ATOM     16  C   UNL     1      -0.567   1.879   1.163  0.00  0.00    +0.014 A 
ATOM     17  C   UNL     1      -1.917   2.157   1.088  0.00  0.00    +0.021 A 
ATOM     18  C   UNL     1      -2.595   2.556   2.233  0.00  0.00    +0.005 A 
ATOM     19  C   UNL     1      -1.884   2.670   3.414  0.00  0.00    +0.041 A 
ATOM     20  C   UNL     1      -0.524   2.379   3.416  0.00  0.00    +0.097 A 
ATOM     21  N   UNL     1       0.203   2.489   4.596  0.00  0.00    -0.320 N 
ATOM     22  H   UNL     1       1.151   2.287   4.603  0.00  0.00    +0.148 HD
ATOM     23  N   UNL     1       0.163   1.980   2.306  0.00  0.00    -0.347 N 
ATOM     24  H   UNL     1       1.167   1.771   2.332  0.00  0.00    +0.167 HD
ENDBRANCH   1  21
BRANCH   1  25
ATOM     25  C   UNL     1      -0.519   4.417   5.882  0.00  0.00    -0.019 A 
ATOM     26  C   UNL     1       0.567   5.161   5.460  0.00  0.00    +0.009 A 
ATOM     27  C   UNL     1       0.521   6.542   5.504  0.00  0.00    +0.049 A 
ATOM     28  C   UNL     1      -0.614   7.183   5.973  0.00  0.00    +0.158 A 
ATOM     29  C   UNL     1      -1.707   6.434   6.398  0.00  0.00    +0.162 A 
ATOM     30  C   UNL     1      -1.657   5.050   6.346  0.00  0.00    +0.055 A 
BRANCH  29  31
ATOM     31  O   UNL     1      -2.824   7.059   6.859  0.00  0.00    -0.491 OA
ATOM     32  C   UNL     1      -3.906   6.226   7.279  0.00  0.00    +0.277 C 
ENDBRANCH  29  31
BRANCH  28  33
ATOM     33  O   UNL     1      -0.661   8.542   6.017  0.00  0.00    -0.503 OA
ATOM     34  H   UNL     1      -1.004   8.950   5.210  0.00  0.00    +0.292 HD
ENDBRANCH  28  33
ENDBRANCH   1  25
TORSDOF 6
