REMARK  Name = ZINC63648739
REMARK  8 active torsions:
REMARK  status: ('A' for Active; 'I' for Inactive)
REMARK    1  A    between atoms: C_1  and  O_2
REMARK    2  A    between atoms: O_2  and  C_3
REMARK    3  A    between atoms: C_6  and  C_9
REMARK    4  A    between atoms: C_11  and  S_20
REMARK    5  A    between atoms: S_20  and  C_21
REMARK    6  A    between atoms: C_21  and  C_22
REMARK    7  A    between atoms: N_24  and  C_25
REMARK    8  A    between atoms: C_25  and  C_26
REMARK                            x       y       z     vdW  Elec       q    Type
REMARK                         _______ _______ _______ _____ _____    ______ ____
ROOT
ATOM      1  C   UNL     1      -4.961  -2.618   0.037  0.00  0.00    +0.160 C 
ATOM      2  N   UNL     1      -4.989  -3.926   0.041  0.00  0.00    -0.230 NA
ATOM      3  C   UNL     1      -6.299  -4.598   0.051  0.00  0.00    +0.272 C 
ATOM      4  N   UNL     1      -7.492  -3.731   0.055  0.00  0.00    -0.203 N 
ATOM      5  C   UNL     1      -7.288  -2.384   0.050  0.00  0.00    +0.128 C 
ATOM      6  N   UNL     1      -6.092  -1.878   0.047  0.00  0.00    -0.215 NA
ATOM      7  C   UNL     1      -8.662  -1.748   0.056  0.00  0.00    +0.170 C 
ATOM      8  C   UNL     1      -9.613  -2.925   0.065  0.00  0.00    +0.236 C 
ATOM      9  O   UNL     1     -10.825  -2.878   0.071  0.00  0.00    -0.274 OA
ATOM     10  N   UNL     1      -8.852  -4.034   0.064  0.00  0.00    -0.230 N 
ATOM     11  H   UNL     1      -9.207  -4.937   0.068  0.00  0.00    +0.173 HD
ENDROOT
BRANCH   1  15
ATOM     12  C   UNL     1      -1.199  -0.637   0.010  0.00  0.00    +0.120 A 
ATOM     13  C   UNL     1      -2.373   0.105   0.020  0.00  0.00    +0.046 A 
ATOM     14  C   UNL     1      -3.594  -0.534   0.028  0.00  0.00    +0.015 A 
ATOM     15  C   UNL     1      -3.650  -1.928   0.027  0.00  0.00    +0.019 A 
ATOM     16  C   UNL     1      -2.469  -2.670   0.017  0.00  0.00    +0.015 A 
ATOM     17  C   UNL     1      -1.251  -2.025   0.003  0.00  0.00    +0.046 A 
BRANCH  12  19
ATOM     18  C   UNL     1      -0.017   1.425   0.010  0.00  0.00    +0.277 C 
ATOM     19  O   UNL     1       0.002  -0.004   0.002  0.00  0.00    -0.495 OA
ENDBRANCH  12  19
ENDBRANCH   1  15
BRANCH   3  20
ATOM     20  S   UNL     1      -6.391  -5.668  -1.412  0.00  0.00    -0.104 S 
BRANCH  20  21
ATOM     21  C   UNL     1      -6.200  -4.522  -2.806  0.00  0.00    +0.168 C 
BRANCH  21  22
ATOM     22  C   UNL     1      -6.258  -5.292  -4.100  0.00  0.00    +0.223 C 
ATOM     23  O   UNL     1      -6.413  -6.494  -4.084  0.00  0.00    -0.275 OA
ATOM     24  N   UNL     1      -6.138  -4.643  -5.276  0.00  0.00    -0.311 N 
ATOM     25  H   UNL     1      -6.014  -3.681  -5.288  0.00  0.00    +0.149 HD
BRANCH  24  26
ATOM     26  C   UNL     1      -6.195  -5.391  -6.534  0.00  0.00    +0.151 C 
BRANCH  26  27
ATOM     27  C   UNL     1      -6.035  -4.425  -7.709  0.00  0.00    +0.191 C 
ATOM     28  N   UNL     1      -4.777  -3.679  -7.580  0.00  0.00    -0.362 N 
ATOM     29  C   UNL     1      -5.079  -2.416  -7.498  0.00  0.00    +0.060 A 
ATOM     30  C   UNL     1      -4.264  -1.201  -7.357  0.00  0.00    +0.027 A 
ATOM     31  C   UNL     1      -4.869   0.003  -7.298  0.00  0.00    +0.002 A 
ATOM     32  C   UNL     1      -6.266   0.153  -7.365  0.00  0.00    +0.002 A 
ATOM     33  C   UNL     1      -7.104  -0.895  -7.494  0.00  0.00    +0.027 A 
ATOM     34  C   UNL     1      -6.557  -2.256  -7.570  0.00  0.00    +0.060 A 
ATOM     35  N   UNL     1      -7.112  -3.427  -7.692  0.00  0.00    -0.362 N 
ATOM     36  H   UNL     1      -3.884  -4.058  -7.559  0.00  0.00    +0.162 HD
ATOM     37  H   UNL     1      -8.062  -3.608  -7.761  0.00  0.00    +0.162 HD
ENDBRANCH  26  27
ENDBRANCH  24  26
ENDBRANCH  21  22
ENDBRANCH  20  21
ENDBRANCH   3  20
TORSDOF 7
