REMARK  Name = ZINC20483432
REMARK  5 active torsions:
REMARK  status: ('A' for Active; 'I' for Inactive)
REMARK    1  A    between atoms: C_3  and  O_10
REMARK    2  A    between atoms: C_4  and  C_8
REMARK    3  A    between atoms: C_8  and  N_9
REMARK    4  A    between atoms: O_10  and  C_11
REMARK    5  A    between atoms: C_11  and  C_12
REMARK                            x       y       z     vdW  Elec       q    Type
REMARK                         _______ _______ _______ _____ _____    ______ ____
ROOT
ATOM      1  C   UNL     1      -1.218   1.751   0.017  0.00  0.00    +0.019 A 
ATOM      2  C   UNL     1      -0.013   1.076   0.008  0.00  0.00    +0.047 A 
ATOM      3  C   UNL     1       1.179   1.786   0.000  0.00  0.00    +0.123 A 
ATOM      4  C   UNL     1       1.157   3.173   0.008  0.00  0.00    -0.022 A 
ATOM      5  C   UNL     1      -0.050   3.844   0.022  0.00  0.00    +0.020 A 
ATOM      6  C   UNL     1      -1.237   3.134   0.029  0.00  0.00    +0.018 A 
ATOM      7 BR   UNL     1      -2.889   4.055   0.048  0.00  0.00    -0.050 Br
ENDROOT
BRANCH   4   8
ATOM      8  C   UNL     1       2.450   3.948  -0.001  0.00  0.00    -0.047 C 
BRANCH   8   9
ATOM      9  N   UNL     1       2.980   4.000  -1.370  0.00  0.00    +0.381 N 
ATOM     10  H   UNL     1       3.924   4.565  -1.376  0.00  0.00    -0.090 HD
ATOM     11  H   UNL     1       2.251   4.496  -2.027  0.00  0.00    -0.090 HD
ATOM     12  H   UNL     1       3.163   2.977  -1.732  0.00  0.00    -0.090 HD
ENDBRANCH   8   9
ENDBRANCH   4   8
BRANCH   3  13
ATOM     13  O   UNL     1       2.366   1.124  -0.015  0.00  0.00    -0.483 OA
BRANCH  13  14
ATOM     14  C   UNL     1       2.312  -0.304  -0.022  0.00  0.00    +0.324 C 
BRANCH  14  15
ATOM     15  C   UNL     1       3.713  -0.859  -0.038  0.00  0.00    +0.253 C 
ATOM     16  O   UNL     1       4.664  -0.106  -0.043  0.00  0.00    -0.272 OA
ATOM     17  N   UNL     1       3.909  -2.193  -0.047  0.00  0.00    -0.299 N 
ATOM     18  C   UNL     1       2.768  -3.117  -0.035  0.00  0.00    +0.108 C 
ATOM     19  C   UNL     1       2.915  -4.091  -1.214  0.00  0.00    +0.019 C 
ATOM     20  C   UNL     1       4.280  -4.777  -1.135  0.00  0.00    +0.003 C 
ATOM     21  C   UNL     1       5.388  -3.726  -1.236  0.00  0.00    +0.019 C 
ATOM     22  C   UNL     1       5.269  -2.749  -0.063  0.00  0.00    +0.108 C 
ENDBRANCH  14  15
ENDBRANCH  13  14
ENDBRANCH   3  13
TORSDOF 5
