REMARK  Name = ZINC48846326
REMARK  7 active torsions:
REMARK  status: ('A' for Active; 'I' for Inactive)
REMARK    1  A    between atoms: C_1  and  C_2
REMARK    2  A    between atoms: C_2  and  C_3
REMARK    3  A    between atoms: C_2  and  C_10
REMARK    4  A    between atoms: C_2  and  N_13
REMARK    5  A    between atoms: C_17  and  C_20
REMARK    6  A    between atoms: C_20  and  N_21
REMARK    7  A    between atoms: N_21  and  C_22
REMARK                            x       y       z     vdW  Elec       q    Type
REMARK                         _______ _______ _______ _____ _____    ______ ____
ROOT
ATOM      1  C   UNL     1       1.062  -0.635   0.907  0.00  0.00    +0.007 C 
ATOM      2  C   UNL     1       0.002  -0.004   0.002  0.00  0.00    +0.061 C 
ENDROOT
BRANCH   2   3
ATOM      3  C   UNL     1      -1.307  -0.728   0.181  0.00  0.00    -0.046 A 
ATOM      4  C   UNL     1      -1.820  -1.495  -0.848  0.00  0.00    +0.003 A 
ATOM      5  C   UNL     1      -3.021  -2.159  -0.684  0.00  0.00    +0.001 A 
ATOM      6  C   UNL     1      -3.710  -2.057   0.510  0.00  0.00    +0.015 A 
ATOM      7  C   UNL     1      -3.198  -1.290   1.540  0.00  0.00    +0.018 A 
ATOM      8  C   UNL     1      -1.993  -0.630   1.377  0.00  0.00    +0.018 A 
ATOM      9 BR   UNL     1      -4.140  -1.149   3.173  0.00  0.00    -0.050 Br
ENDBRANCH   2   3
BRANCH   2  10
ATOM     10  N   UNL     1       0.430  -0.107  -1.399  0.00  0.00    +0.393 N 
ATOM     11  C   UNL     1       1.735   0.547  -1.560  0.00  0.00    -0.077 C 
ATOM     12  C   UNL     1       2.223   0.372  -3.000  0.00  0.00    -0.018 C 
ATOM     13  C   UNL     1       1.211   1.007  -3.957  0.00  0.00    -0.002 C 
ATOM     14  C   UNL     1      -0.163   0.369  -3.729  0.00  0.00    -0.045 C 
ATOM     15  C   UNL     1      -0.563   0.544  -2.262  0.00  0.00    -0.075 C 
ATOM     16  H   UNL     1       0.510  -1.080  -1.655  0.00  0.00    -0.080 HD
BRANCH  14  17
ATOM     17  C   UNL     1      -1.198   1.050  -4.626  0.00  0.00    -0.081 C 
BRANCH  17  18
ATOM     18  N   UNL     1      -0.875   0.784  -6.035  0.00  0.00    +0.377 N 
ATOM     19  C   UNL     1      -1.869   1.437  -6.896  0.00  0.00    -0.100 C 
ATOM     20  H   UNL     1       0.042   1.147  -6.244  0.00  0.00    -0.086 HD
ATOM     21  H   UNL     1      -0.889  -0.211  -6.200  0.00  0.00    -0.086 HD
ENDBRANCH  17  18
ENDBRANCH  14  17
ENDBRANCH   2  10
BRANCH   2  22
ATOM     22  C   UNL     1      -0.172   1.447   0.369  0.00  0.00    +0.350 C 
ATOM     23  O   UNL     1       0.156   2.318  -0.419  0.00  0.00    -0.248 OA
ATOM     24  O   UNL     1      -0.640   1.750   1.453  0.00  0.00    -0.248 OA
ENDBRANCH   2  22
TORSDOF 5
