REMARK  Name = ZINC50677810
REMARK  11 active torsions:
REMARK  status: ('A' for Active; 'I' for Inactive)
REMARK    1  A    between atoms: C_1  and  C_2
REMARK    2  A    between atoms: C_2  and  C_3
REMARK    3  A    between atoms: C_2  and  C_4
REMARK    4  A    between atoms: C_2  and  N_19
REMARK    5  A    between atoms: C_4  and  N_5
REMARK    6  A    between atoms: N_5  and  S_6
REMARK    7  A    between atoms: S_6  and  C_9
REMARK    8  A    between atoms: C_11  and  N_18
REMARK    9  A    between atoms: C_14  and  N_15
REMARK   10  A    between atoms: N_19  and  C_20
REMARK   11  A    between atoms: N_19  and  C_21
REMARK                            x       y       z     vdW  Elec       q    Type
REMARK                         _______ _______ _______ _____ _____    ______ ____
ROOT
ATOM      1  S   UNL     1      -2.793  -2.931   0.535  0.00  0.00    +0.061 S 
ATOM      2  O   UNL     1      -2.566  -4.333   0.577  0.00  0.00    -0.153 OA
ATOM      3  O   UNL     1      -3.199  -2.191   1.678  0.00  0.00    -0.153 OA
ENDROOT
BRANCH   1   4
ATOM      4  C   UNL     1      -4.017  -2.656  -0.703  0.00  0.00    +0.137 A 
ATOM      5  C   UNL     1      -5.133  -1.896  -0.413  0.00  0.00    +0.053 A 
ATOM      6  C   UNL     1      -6.096  -1.680  -1.390  0.00  0.00    +0.027 A 
ATOM      7  C   UNL     1      -5.934  -2.229  -2.656  0.00  0.00    +0.025 A 
ATOM      8  C   UNL     1      -4.815  -2.988  -2.939  0.00  0.00    +0.036 A 
ATOM      9  C   UNL     1      -3.855  -3.197  -1.965  0.00  0.00    +0.152 A 
BRANCH   9  10
ATOM     10  N   UNL     1      -2.655  -4.007  -2.274  0.00  0.00    +0.058 N 
ATOM     11  O   UNL     1      -2.573  -4.587  -3.331  0.00  0.00    -0.126 OA
ATOM     12  O   UNL     1      -1.757  -4.088  -1.468  0.00  0.00    -0.126 OA
ENDBRANCH   9  10
BRANCH   6  13
ATOM     13  N   UNL     1      -7.226  -0.912  -1.100  0.00  0.00    -0.358 N 
ATOM     14  H   UNL     1      -7.339  -0.529  -0.216  0.00  0.00    +0.142 HD
ATOM     15  H   UNL     1      -7.899  -0.761  -1.783  0.00  0.00    +0.142 HD
ENDBRANCH   6  13
ENDBRANCH   1   4
BRANCH   1  16
ATOM     16  N   UNL     1      -1.388  -2.240  -0.003  0.00  0.00    -0.191 NA
ATOM     17  H   UNL     1      -0.609  -2.792  -0.170  0.00  0.00    +0.148 HD
BRANCH  16  18
ATOM     18  C   UNL     1      -1.322  -0.793  -0.225  0.00  0.00    +0.093 C 
BRANCH  18  20
ATOM     19  C   UNL     1       0.211   1.156  -0.529  0.00  0.00    -0.009 C 
ATOM     20  C   UNL     1       0.142  -0.354  -0.297  0.00  0.00    -0.058 C 
ATOM     21  C   UNL     1       0.843  -0.700   1.018  0.00  0.00    -0.009 C 
BRANCH  20  22
ATOM     22  N   UNL     1       0.808  -1.051  -1.405  0.00  0.00    +0.380 N 
ATOM     23  C   UNL     1       0.135  -0.719  -2.668  0.00  0.00    -0.096 C 
ATOM     24  C   UNL     1       2.214  -0.630  -1.474  0.00  0.00    -0.096 C 
ATOM     25  H   UNL     1       0.763  -2.047  -1.252  0.00  0.00    -0.082 HD
ENDBRANCH  20  22
ENDBRANCH  18  20
ENDBRANCH  16  18
ENDBRANCH   1  16
TORSDOF 7
