REMARK  Name = ZINC38756069
REMARK  2 active torsions:
REMARK  status: ('A' for Active; 'I' for Inactive)
REMARK    1  A    between atoms: C_8  and  C_10
REMARK    2  A    between atoms: C_10  and  C_11
REMARK                            x       y       z     vdW  Elec       q    Type
REMARK                         _______ _______ _______ _____ _____    ______ ____
ROOT
ATOM      1  C   UNL     1      -1.223   0.442   5.475  0.00  0.00    +0.112 C 
ATOM      2  C   UNL     1      -1.313   1.980   5.604  0.00  0.00    +0.103 C 
ATOM      3  S   UNL     1      -2.526   2.080   6.987  0.00  0.00    -0.086 S 
ATOM      4  C   UNL     1      -3.258   0.466   6.795  0.00  0.00    +0.172 A 
ATOM      5  N   UNL     1      -2.442  -0.224   5.947  0.00  0.00    -0.283 N 
ATOM      6  C   UNL     1      -2.835  -1.491   5.614  0.00  0.00    +0.258 A 
ATOM      7  O   UNL     1      -2.167  -2.150   4.834  0.00  0.00    -0.267 OA
ATOM      8  C   UNL     1      -4.003  -2.035   6.166  0.00  0.00    +0.038 A 
ATOM      9  C   UNL     1      -4.748  -1.283   7.026  0.00  0.00    +0.052 A 
ATOM     10  N   UNL     1      -4.348  -0.050   7.315  0.00  0.00    -0.228 NA
ATOM     11  C   UNL     1      -5.949  -2.071   7.499  0.00  0.00    +0.056 C 
ATOM     12  C   UNL     1      -6.091  -3.230   6.489  0.00  0.00    +0.011 C 
ATOM     13  C   UNL     1      -4.644  -3.393   5.977  0.00  0.00    +0.043 C 
ENDROOT
BRANCH   1  14
ATOM     14  C   UNL     1      -0.995   0.079   4.006  0.00  0.00    +0.122 C 
BRANCH  14  22
ATOM     15  C   UNL     1      -0.513   2.142   0.203  0.00  0.00    +0.002 C 
ATOM     16  C   UNL     1       0.881   2.760   0.139  0.00  0.00    +0.002 C 
ATOM     17  C   UNL     1       1.631   2.696   1.402  0.00  0.00    +0.019 C 
ATOM     18  C   UNL     1       1.883   1.222   1.805  0.00  0.00    +0.108 C 
ATOM     19  N   UNL     1       0.641   0.616   2.230  0.00  0.00    -0.301 N 
ATOM     20  C   UNL     1      -0.263  -0.089   1.300  0.00  0.00    +0.108 C 
ATOM     21  C   UNL     1      -0.414   0.656  -0.039  0.00  0.00    +0.019 C 
ATOM     22  C   UNL     1       0.293   0.699   3.530  0.00  0.00    +0.218 C 
ATOM     23  O   UNL     1       1.017   1.273   4.316  0.00  0.00    -0.276 OA
ENDBRANCH  14  22
ENDBRANCH   1  14
TORSDOF 2
