REMARK  Name = ZINC04073494
REMARK  4 active torsions:
REMARK  status: ('A' for Active; 'I' for Inactive)
REMARK    1  A    between atoms: C_1  and  C_2
REMARK    2  A    between atoms: C_19  and  C_21
REMARK    3  A    between atoms: C_21  and  N_62
REMARK    4  A    between atoms: C_27  and  C_29
REMARK                            x       y       z     vdW  Elec       q    Type
REMARK                         _______ _______ _______ _____ _____    ______ ____
ROOT
ATOM      1  C   UNL     1      -2.069   3.025   0.948  0.00  0.00    +0.012 C 
ATOM      2  C   UNL     1      -1.283   2.465  -0.240  0.00  0.00    -0.022 C 
ATOM      3  C   UNL     1      -1.458   0.949  -0.303  0.00  0.00    +0.007 C 
ATOM      4  C   UNL     1      -1.027   0.324   1.026  0.00  0.00    +0.005 C 
ATOM      5  C   UNL     1       0.465   0.584   1.256  0.00  0.00    +0.030 C 
ATOM      6  C   UNL     1       0.721   2.072   1.149  0.00  0.00    -0.073 C 
ATOM      7  C   UNL     1       1.370   2.714   2.089  0.00  0.00    +0.008 C 
ATOM      8  C   UNL     1       0.208   2.795  -0.074  0.00  0.00    +0.021 C 
ATOM      9  C   UNL     1       0.342   4.303   0.114  0.00  0.00    +0.016 C 
ATOM     10  C   UNL     1      -0.150   5.046  -1.131  0.00  0.00    +0.042 C 
ATOM     11  C   UNL     1      -1.568   4.591  -1.524  0.00  0.00    +0.181 C 
ATOM     12  C   UNL     1      -1.763   3.108  -1.540  0.00  0.00    +0.052 C 
ATOM     13  O   UNL     1      -2.420   5.241  -0.538  0.00  0.00    -0.461 OA
ATOM     14  C   UNL     1      -1.939   6.492  -0.359  0.00  0.00    +0.309 C 
ATOM     15  O   UNL     1      -2.586   7.447   0.000  0.00  0.00    -0.251 OA
ATOM     16  C   UNL     1      -0.436   6.512  -0.686  0.00  0.00    +0.088 C 
ENDROOT
BRANCH  16  17
ATOM     17  C   UNL     1      -0.140   7.486  -1.828  0.00  0.00    -0.064 C 
BRANCH  17  25
ATOM     18  C   UNL     1       2.075   8.101  -1.071  0.00  0.00    -0.059 C 
ATOM     19  C   UNL     1       3.570   7.893  -1.339  0.00  0.00    +0.089 C 
ATOM     20  N   UNL     1       3.870   8.363  -2.700  0.00  0.00    -0.299 N 
ATOM     21  C   UNL     1       3.039   7.866  -3.807  0.00  0.00    +0.089 C 
ATOM     22  C   UNL     1       1.566   8.075  -3.442  0.00  0.00    -0.059 C 
ATOM     23  C   UNL     1       4.880   9.226  -2.926  0.00  0.00    +0.282 C 
ATOM     24  O   UNL     1       5.045   9.691  -4.038  0.00  0.00    -0.267 OA
ATOM     25  N   UNL     1       1.303   7.428  -2.138  0.00  0.00    +0.382 N 
ATOM     26  H   UNL     1       1.594   6.445  -2.189  0.00  0.00    -0.082 HD
BRANCH  23  27
ATOM     27  C   UNL     1       5.781   9.605  -1.832  0.00  0.00    +0.189 A 
ATOM     28  C   UNL     1       6.756  10.559  -1.889  0.00  0.00    +0.054 A 
ATOM     29  C   UNL     1       7.364  10.590  -0.625  0.00  0.00    +0.042 A 
ATOM     30  C   UNL     1       6.748   9.659   0.136  0.00  0.00    +0.196 A 
ATOM     31  O   UNL     1       5.794   9.067  -0.595  0.00  0.00    -0.458 OA
ENDBRANCH  23  27
ENDBRANCH  17  25
ENDBRANCH  16  17
TORSDOF 3
