REMARK  Name = ZINC14158052
REMARK  9 active torsions:
REMARK  status: ('A' for Active; 'I' for Inactive)
REMARK    1  A    between atoms: C_1  and  C_2
REMARK    2  A    between atoms: C_4  and  C_32
REMARK    3  A    between atoms: N_10  and  C_11
REMARK    4  A    between atoms: N_13  and  C_14
REMARK    5  A    between atoms: N_22  and  C_23
REMARK    6  A    between atoms: C_25  and  C_30
REMARK    7  A    between atoms: C_25  and  C_31
REMARK    8  A    between atoms: C_26  and  C_28
REMARK    9  A    between atoms: C_26  and  C_29
REMARK                            x       y       z     vdW  Elec       q    Type
REMARK                         _______ _______ _______ _____ _____    ______ ____
ROOT
ATOM      1  C   UNL     1      -2.331   7.520  -7.614  0.00  0.00    +0.066 C 
ATOM      2  C   UNL     1      -2.303   7.194  -6.143  0.00  0.00    +0.044 A 
ATOM      3  C   UNL     1      -3.129   7.871  -5.260  0.00  0.00    +0.046 A 
ATOM      4  C   UNL     1      -3.073   7.541  -3.915  0.00  0.00    +0.044 A 
ATOM      5  N   UNL     1      -2.237   6.595  -3.517  0.00  0.00    -0.217 NA
ATOM      6  C   UNL     1      -1.461   5.968  -4.388  0.00  0.00    +0.231 A 
ATOM      7  N   UNL     1      -1.487   6.263  -5.678  0.00  0.00    -0.217 NA
ATOM      8  N   UNL     1      -0.596   4.981  -3.936  0.00  0.00    -0.297 N 
ATOM      9  C   UNL     1       0.090   4.209  -4.833  0.00  0.00    +0.198 C 
ATOM     10  N   UNL     1       1.002   4.760  -5.618  0.00  0.00    -0.129 NA
ATOM     11  N   UNL     1      -0.165   2.872  -4.919  0.00  0.00    -0.355 N 
ATOM     12  C   UNL     1      -3.953   8.249  -2.917  0.00  0.00    +0.066 C 
ATOM     13  H   UNL     1      -0.478   4.838  -2.983  0.00  0.00    +0.171 HD
ATOM     14  H   UNL     1       0.265   2.339  -5.606  0.00  0.00    +0.163 HD
ENDROOT
BRANCH  11  15
ATOM     15  C   UNL     1      -1.092   2.239  -3.972  0.00  0.00    +0.079 C 
ATOM     16  C   UNL     1      -0.734   0.760  -3.828  0.00  0.00    +0.011 C 
ATOM     17  C   UNL     1      -1.696   0.072  -2.864  0.00  0.00    -0.071 C 
ATOM     18  C   UNL     1      -3.501   1.673  -3.561  0.00  0.00    -0.071 C 
ATOM     19  C   UNL     1      -2.517   2.344  -4.516  0.00  0.00    +0.011 C 
ATOM     20  C   UNL     1      -4.855   1.556  -4.296  0.00  0.00    -0.010 C 
ATOM     21  C   UNL     1      -3.724   2.572  -2.340  0.00  0.00    -0.010 C 
ATOM     22  C   UNL     1      -1.351   0.470  -1.424  0.00  0.00    -0.010 C 
ATOM     23  C   UNL     1      -1.465  -1.451  -2.984  0.00  0.00    -0.010 C 
ATOM     24  N   UNL     1      -3.138   0.287  -3.158  0.00  0.00    +0.386 N 
ATOM     25  H   UNL     1      -3.673   0.052  -2.313  0.00  0.00    -0.084 HD
ATOM     26  H   UNL     1      -3.405  -0.346  -3.920  0.00  0.00    -0.084 HD
ENDBRANCH  11  15
BRANCH  10  27
ATOM     27  C   UNL     1       1.363   6.038  -5.432  0.00  0.00    +0.330 C 
ATOM     28  O   UNL     1       0.907   6.669  -4.495  0.00  0.00    -0.250 OA
ATOM     29  N   UNL     1       2.229   6.623  -6.281  0.00  0.00    -0.268 N 
ATOM     30  H   UNL     1       2.554   6.137  -7.055  0.00  0.00    +0.156 HD
BRANCH  29  31
ATOM     31  C   UNL     1       2.661   7.934  -6.047  0.00  0.00    +0.036 A 
ATOM     32  C   UNL     1       1.775   8.879  -5.545  0.00  0.00    +0.025 A 
ATOM     33  C   UNL     1       2.205  10.170  -5.309  0.00  0.00    +0.023 A 
ATOM     34  C   UNL     1       3.514  10.526  -5.582  0.00  0.00    +0.059 A 
ATOM     35  C   UNL     1       4.398   9.588  -6.088  0.00  0.00    +0.061 A 
ATOM     36  C   UNL     1       3.974   8.293  -6.320  0.00  0.00    +0.044 A 
ATOM     37 CL   UNL     1       6.040  10.038  -6.429  0.00  0.00    -0.082 Cl
ATOM     38 CL   UNL     1       4.049  12.152  -5.290  0.00  0.00    -0.082 Cl
ENDBRANCH  29  31
ENDBRANCH  10  27
TORSDOF 3
