REMARK  Name = ZINC37105993
REMARK  9 active torsions:
REMARK  status: ('A' for Active; 'I' for Inactive)
REMARK    1  A    between atoms: C_1  and  C_2
REMARK    2  A    between atoms: C_2  and  C_4
REMARK    3  A    between atoms: C_2  and  N_13
REMARK    4  A    between atoms: C_7  and  O_11
REMARK    5  A    between atoms: O_11  and  C_12
REMARK    6  A    between atoms: N_13  and  C_14
REMARK    7  A    between atoms: C_14  and  C_16
REMARK    8  A    between atoms: C_14  and  C_17
REMARK    9  A    between atoms: C_22  and  O_23
REMARK                            x       y       z     vdW  Elec       q    Type
REMARK                         _______ _______ _______ _____ _____    ______ ____
ROOT
ATOM      1  N   UNL     1       0.695  -0.383   1.255  0.00  0.00    +0.388 N 
ATOM      2  H   UNL     1       0.232  -0.042   2.084  0.00  0.00    -0.084 HD
ATOM      3  H   UNL     1       0.716  -1.392   1.273  0.00  0.00    -0.084 HD
ENDROOT
BRANCH   1   5
ATOM      4  C   UNL     1      -1.502  -0.354   0.174  0.00  0.00    -0.009 C 
ATOM      5  C   UNL     1      -0.036   0.070   0.064  0.00  0.00    -0.043 C 
BRANCH   5   6
ATOM      6  C   UNL     1       0.575  -0.550  -1.167  0.00  0.00    -0.060 A 
ATOM      7  C   UNL     1       0.988  -1.869  -1.142  0.00  0.00    +0.005 A 
ATOM      8  C   UNL     1       1.548  -2.440  -2.268  0.00  0.00    +0.047 A 
ATOM      9  C   UNL     1       1.697  -1.688  -3.425  0.00  0.00    +0.134 A 
ATOM     10  C   UNL     1       1.282  -0.364  -3.447  0.00  0.00    +0.060 A 
ATOM     11  C   UNL     1       0.716   0.200  -2.319  0.00  0.00    +0.021 A 
ATOM     12 BR   UNL     1       1.483   0.664  -5.021  0.00  0.00    -0.047 Br
BRANCH   9  13
ATOM     13  O   UNL     1       2.249  -2.248  -4.534  0.00  0.00    -0.494 OA
ATOM     14  C   UNL     1       2.654  -3.615  -4.438  0.00  0.00    +0.277 C 
ENDBRANCH   9  13
ENDBRANCH   5   6
ENDBRANCH   1   5
BRANCH   1  15
ATOM     15  C   UNL     1       2.069   0.135   1.212  0.00  0.00    -0.040 C 
ATOM     16  C   UNL     1       2.043   1.659   1.342  0.00  0.00    -0.009 C 
BRANCH  15  17
ATOM     17  C   UNL     1       2.862  -0.452   2.351  0.00  0.00    -0.020 A 
ATOM     18  C   UNL     1       2.210  -0.989   3.444  0.00  0.00    +0.005 A 
ATOM     19  C   UNL     1       2.938  -1.528   4.489  0.00  0.00    +0.000 A 
ATOM     20  C   UNL     1       4.320  -1.531   4.442  0.00  0.00    +0.004 A 
ATOM     21  C   UNL     1       4.977  -0.996   3.352  0.00  0.00    +0.045 A 
ATOM     22  C   UNL     1       4.248  -0.460   2.299  0.00  0.00    +0.118 A 
BRANCH  22  23
ATOM     23  O   UNL     1       4.892   0.062   1.222  0.00  0.00    -0.507 OA
ATOM     24  H   UNL     1       5.098   1.004   1.305  0.00  0.00    +0.292 HD
ENDBRANCH  22  23
ENDBRANCH  15  17
ENDBRANCH   1  15
TORSDOF 6
