REMARK  Name = ZINC40621282
REMARK  8 active torsions:
REMARK  status: ('A' for Active; 'I' for Inactive)
REMARK    1  A    between atoms: C_1  and  C_2
REMARK    2  A    between atoms: C_2  and  C_3
REMARK    3  A    between atoms: C_2  and  N_4
REMARK    4  A    between atoms: C_7  and  C_10
REMARK    5  A    between atoms: C_10  and  N_11
REMARK    6  A    between atoms: N_11  and  S_12
REMARK    7  A    between atoms: S_12  and  C_15
REMARK    8  A    between atoms: C_20  and  N_21
REMARK                            x       y       z     vdW  Elec       q    Type
REMARK                         _______ _______ _______ _____ _____    ______ ____
ROOT
ATOM      1  S   UNL     1       4.757  -5.126  -2.443  0.00  0.00    +0.060 S 
ATOM      2  O   UNL     1       5.820  -5.153  -3.385  0.00  0.00    -0.153 OA
ATOM      3  O   UNL     1       4.972  -4.906  -1.056  0.00  0.00    -0.153 OA
ENDROOT
BRANCH   1   4
ATOM      4  C   UNL     1       3.921  -6.671  -2.584  0.00  0.00    +0.126 A 
ATOM      5  C   UNL     1       3.650  -7.416  -1.452  0.00  0.00    +0.031 A 
ATOM      6  C   UNL     1       2.994  -8.628  -1.561  0.00  0.00    +0.017 A 
ATOM      7  C   UNL     1       2.607  -9.099  -2.803  0.00  0.00    +0.020 A 
ATOM      8  C   UNL     1       2.875  -8.359  -3.939  0.00  0.00    +0.040 A 
ATOM      9  C   UNL     1       3.529  -7.138  -3.832  0.00  0.00    +0.052 A 
ATOM     10 BR   UNL     1       1.710 -10.758  -2.947  0.00  0.00    -0.050 Br
BRANCH   9  11
ATOM     11  N   UNL     1       3.797  -6.385  -4.977  0.00  0.00    -0.356 N 
ATOM     12  H   UNL     1       4.175  -5.495  -4.895  0.00  0.00    +0.142 HD
ATOM     13  H   UNL     1       3.605  -6.751  -5.854  0.00  0.00    +0.142 HD
ENDBRANCH   9  11
ENDBRANCH   1   4
BRANCH   1  14
ATOM     14  N   UNL     1       3.705  -3.952  -2.951  0.00  0.00    -0.190 NA
ATOM     15  H   UNL     1       3.904  -3.434  -3.746  0.00  0.00    +0.148 HD
BRANCH  14  16
ATOM     16  C   UNL     1       2.473  -3.697  -2.199  0.00  0.00    +0.107 C 
BRANCH  16  20
ATOM     17  N   UNL     1       0.485  -0.568  -1.904  0.00  0.00    +0.381 N 
ATOM     18  C   UNL     1       1.867  -0.071  -1.730  0.00  0.00    -0.078 C 
ATOM     19  C   UNL     1       2.813  -1.189  -2.205  0.00  0.00    -0.016 C 
ATOM     20  C   UNL     1       1.884  -2.352  -2.626  0.00  0.00    -0.014 C 
ATOM     21  C   UNL     1       0.578  -2.049  -1.850  0.00  0.00    -0.074 C 
ATOM     22  H   UNL     1       0.119  -0.274  -2.798  0.00  0.00    -0.081 HD
BRANCH  17  24
ATOM     23  C   UNL     1      -0.456   1.452  -0.889  0.00  0.00    -0.014 C 
ATOM     24  C   UNL     1      -0.371  -0.074  -0.818  0.00  0.00    -0.075 C 
ATOM     25  C   UNL     1      -1.773  -0.669  -0.964  0.00  0.00    -0.014 C 
ENDBRANCH  17  24
ENDBRANCH  16  20
ENDBRANCH  14  16
ENDBRANCH   1  14
TORSDOF 6
