REMARK  Name = ZINC29817597
REMARK  9 active torsions:
REMARK  status: ('A' for Active; 'I' for Inactive)
REMARK    1  A    between atoms: C_1  and  O_2
REMARK    2  A    between atoms: O_2  and  C_3
REMARK    3  A    between atoms: C_6  and  N_14
REMARK    4  A    between atoms: C_8  and  N_9
REMARK    5  A    between atoms: N_9  and  S_10
REMARK    6  A    between atoms: S_10  and  C_13
REMARK    7  A    between atoms: C_15  and  C_17
REMARK    8  A    between atoms: N_19  and  C_28
REMARK    9  A    between atoms: C_21  and  C_22
REMARK                            x       y       z     vdW  Elec       q    Type
REMARK                         _______ _______ _______ _____ _____    ______ ____
ROOT
ATOM      1  N   UNL     1       1.987  -2.421  -4.577  0.00  0.00    -0.281 N 
ATOM      2  C   UNL     1       2.576  -1.687  -5.541  0.00  0.00    +0.252 C 
ATOM      3  O   UNL     1       2.493  -0.473  -5.518  0.00  0.00    -0.270 OA
ATOM      4  H   UNL     1       2.109  -3.383  -4.558  0.00  0.00    +0.155 HD
ENDROOT
BRANCH   1   8
ATOM      5  C   UNL     1      -0.356  -0.550  -1.674  0.00  0.00    +0.145 A 
ATOM      6  C   UNL     1       0.771   0.084  -2.171  0.00  0.00    +0.049 A 
ATOM      7  C   UNL     1       1.547  -0.536  -3.132  0.00  0.00    +0.027 A 
ATOM      8  C   UNL     1       1.199  -1.796  -3.603  0.00  0.00    +0.036 A 
ATOM      9  C   UNL     1       0.070  -2.434  -3.108  0.00  0.00    +0.053 A 
ATOM     10  C   UNL     1      -0.706  -1.815  -2.140  0.00  0.00    +0.117 A 
BRANCH   5  12
ATOM     11  C   UNL     1      -0.701   1.359  -0.296  0.00  0.00    +0.277 C 
ATOM     12  O   UNL     1      -1.119   0.062  -0.727  0.00  0.00    -0.493 OA
ENDBRANCH   5  12
BRANCH  10  13
ATOM     13  N   UNL     1      -1.841  -2.459  -1.635  0.00  0.00    -0.099 NA
BRANCH  13  14
ATOM     14  S   UNL     1      -2.256  -3.963  -2.189  0.00  0.00    +0.060 S 
ATOM     15  O   UNL     1      -2.555  -3.773  -3.565  0.00  0.00    -0.154 OA
ATOM     16  O   UNL     1      -1.182  -4.805  -1.791  0.00  0.00    -0.154 OA
ATOM     17  C   UNL     1      -3.761  -4.398  -1.276  0.00  0.00    +0.220 C 
ENDBRANCH  13  14
ENDBRANCH  10  13
ENDBRANCH   1   8
BRANCH   2  18
ATOM     18  C   UNL     1       3.320  -2.353  -6.623  0.00  0.00    +0.083 A 
ATOM     19  C   UNL     1       3.409  -3.711  -6.851  0.00  0.00    +0.128 A 
ATOM     20  N   UNL     1       4.181  -3.897  -7.936  0.00  0.00    -0.239 N 
ATOM     21  N   UNL     1       4.605  -2.659  -8.429  0.00  0.00    -0.166 NA
ATOM     22  C   UNL     1       4.108  -1.704  -7.676  0.00  0.00    +0.105 A 
BRANCH  22  23
ATOM     23  C   UNL     1       4.309  -0.246  -7.855  0.00  0.00    +0.003 A 
ATOM     24  C   UNL     1       4.597   0.561  -6.755  0.00  0.00    +0.010 A 
ATOM     25  C   UNL     1       4.784   1.917  -6.928  0.00  0.00    +0.001 A 
ATOM     26  C   UNL     1       4.686   2.477  -8.190  0.00  0.00    +0.000 A 
ATOM     27  C   UNL     1       4.401   1.681  -9.285  0.00  0.00    +0.001 A 
ATOM     28  C   UNL     1       4.218   0.322  -9.125  0.00  0.00    +0.010 A 
ENDBRANCH  22  23
BRANCH  20  29
ATOM     29  C   UNL     1       4.510  -5.141  -8.489  0.00  0.00    +0.065 A 
ATOM     30  C   UNL     1       4.024  -6.308  -7.914  0.00  0.00    +0.028 A 
ATOM     31  C   UNL     1       4.350  -7.534  -8.461  0.00  0.00    +0.002 A 
ATOM     32  C   UNL     1       5.160  -7.600  -9.579  0.00  0.00    +0.000 A 
ATOM     33  C   UNL     1       5.646  -6.440 -10.154  0.00  0.00    +0.002 A 
ATOM     34  C   UNL     1       5.318  -5.211  -9.616  0.00  0.00    +0.028 A 
ENDBRANCH  20  29
ENDBRANCH   2  18
TORSDOF 7
