REMARK  Name = ZINC08876181
REMARK  9 active torsions:
REMARK  status: ('A' for Active; 'I' for Inactive)
REMARK    1  A    between atoms: C_1  and  C_2
REMARK    2  A    between atoms: C_2  and  C_3
REMARK    3  A    between atoms: C_3  and  C_4
REMARK    4  A    between atoms: C_4  and  C_5
REMARK    5  A    between atoms: C_8  and  N_11
REMARK    6  A    between atoms: C_16  and  C_34
REMARK    7  A    between atoms: C_26  and  C_33
REMARK    8  A    between atoms: C_27  and  C_32
REMARK    9  A    between atoms: C_34  and  C_35
REMARK                            x       y       z     vdW  Elec       q    Type
REMARK                         _______ _______ _______ _____ _____    ______ ____
ROOT
ATOM      1  N   UNL     1       3.624  -0.652  -0.035  0.00  0.00    -0.210 N 
ATOM      2  C   UNL     1       3.710  -1.984   0.062  0.00  0.00    +0.228 C 
ATOM      3  O   UNL     1       2.770  -2.741   0.169  0.00  0.00    -0.275 OA
ATOM      4  C   UNL     1       5.164  -2.398   0.014  0.00  0.00    +0.074 C 
ATOM      5  C   UNL     1       5.578  -2.939   1.399  0.00  0.00    -0.049 C 
ATOM      6  C   UNL     1       6.721  -0.915   1.173  0.00  0.00    +0.050 C 
ATOM      7  C   UNL     1       5.917  -1.045  -0.126  0.00  0.00    +0.088 C 
ATOM      8  C   UNL     1       4.801  -0.025  -0.141  0.00  0.00    +0.229 C 
ATOM      9  O   UNL     1       4.949   1.174  -0.234  0.00  0.00    -0.275 OA
ATOM     10  C   UNL     1       8.050  -0.255   0.936  0.00  0.00    -0.027 A 
ATOM     11  C   UNL     1       9.133  -0.563   0.144  0.00  0.00    +0.005 A 
ATOM     12  C   UNL     1      10.245   0.262   0.139  0.00  0.00    +0.004 A 
ATOM     13  C   UNL     1      10.264   1.394   0.933  0.00  0.00    -0.046 A 
ATOM     14  C   UNL     1       9.182   1.706   1.729  0.00  0.00    -0.026 A 
ATOM     15  C   UNL     1       8.059   0.882   1.738  0.00  0.00    +0.039 A 
ATOM     16  N   UNL     1       6.859   0.983   2.446  0.00  0.00    -0.286 N 
ATOM     17  C   UNL     1       6.019  -0.033   2.169  0.00  0.00    +0.211 C 
ATOM     18  O   UNL     1       4.911  -0.204   2.633  0.00  0.00    -0.277 OA
ATOM     19  C   UNL     1       9.214   2.942   2.590  0.00  0.00    +0.046 C 
ATOM     20  C   UNL     1      11.475   2.292   0.929  0.00  0.00    +0.044 C 
ATOM     21  H   UNL     1       6.654   1.702   3.064  0.00  0.00    +0.155 HD
ATOM     22  N   UNL     1       6.852  -2.272   1.673  0.00  0.00    +0.394 N 
ATOM     23  H   UNL     1       7.618  -2.756   1.190  0.00  0.00    -0.083 HD
ATOM     24  H   UNL     1       7.037  -2.262   2.683  0.00  0.00    -0.083 HD
ENDROOT
BRANCH   1  28
ATOM     25  C   UNL     1      -0.017   1.377   0.008  0.00  0.00    -0.047 A 
ATOM     26  C   UNL     1       0.417   0.716   1.142  0.00  0.00    +0.005 A 
ATOM     27  C   UNL     1       1.623   0.043   1.131  0.00  0.00    +0.024 A 
ATOM     28  C   UNL     1       2.399   0.031  -0.020  0.00  0.00    +0.044 A 
ATOM     29  C   UNL     1       1.960   0.695  -1.157  0.00  0.00    +0.024 A 
ATOM     30  C   UNL     1       0.753   1.367  -1.140  0.00  0.00    +0.005 A 
BRANCH  25  31
ATOM     31  C   UNL     1      -1.331   2.116   0.025  0.00  0.00    +0.035 C 
BRANCH  31  32
ATOM     32  C   UNL     1      -2.452   1.172  -0.413  0.00  0.00    +0.004 C 
BRANCH  32  34
ATOM     33  C   UNL     1      -4.908   0.978  -0.834  0.00  0.00    +0.004 C 
ATOM     34  C   UNL     1      -3.786   1.922  -0.396  0.00  0.00    -0.003 C 
ENDBRANCH  32  34
ENDBRANCH  31  32
ENDBRANCH  25  31
ENDBRANCH   1  28
BRANCH   5  35
ATOM     35  C   UNL     1       5.742  -4.460   1.348  0.00  0.00    +0.080 C 
BRANCH  35  36
ATOM     36  C   UNL     1       6.025  -4.981   2.734  0.00  0.00    +0.209 C 
ATOM     37  O   UNL     1       6.088  -4.211   3.670  0.00  0.00    -0.276 OA
ATOM     38  N   UNL     1       6.208  -6.301   2.933  0.00  0.00    -0.329 N 
ATOM     39  H   UNL     1       6.157  -6.916   2.185  0.00  0.00    +0.145 HD
ATOM     40  H   UNL     1       6.390  -6.636   3.825  0.00  0.00    +0.145 HD
ENDBRANCH  35  36
ENDBRANCH   5  35
TORSDOF 6
