REMARK  Name = ZINC20393739
REMARK  12 active torsions:
REMARK  status: ('A' for Active; 'I' for Inactive)
REMARK    1  A    between atoms: C_1  and  C_2
REMARK    2  A    between atoms: C_2  and  N_3
REMARK    3  A    between atoms: N_3  and  C_4
REMARK    4  A    between atoms: N_3  and  C_6
REMARK    5  A    between atoms: C_4  and  C_5
REMARK    6  A    between atoms: C_6  and  C_7
REMARK    7  A    between atoms: C_7  and  C_8
REMARK    8  A    between atoms: C_8  and  N_9
REMARK    9  A    between atoms: C_28  and  C_30
REMARK   10  A    between atoms: C_28  and  C_31
REMARK   11  A    between atoms: C_33  and  S_35
REMARK   12  A    between atoms: S_35  and  C_36
REMARK                            x       y       z     vdW  Elec       q    Type
REMARK                         _______ _______ _______ _____ _____    ______ ____
ROOT
ATOM      1  N   UNL     1       3.047   6.399   0.216  0.00  0.00    -0.328 N 
ATOM      2  C   UNL     1       3.164   5.026   0.067  0.00  0.00    +0.138 A 
ATOM      3  C   UNL     1       2.036   4.219   0.005  0.00  0.00    +0.080 A 
ATOM      4  C   UNL     1       2.148   2.833  -0.145  0.00  0.00    +0.094 A 
ATOM      5  C   UNL     1       0.877   2.085  -0.196  0.00  0.00    +0.038 A 
ATOM      6  C   UNL     1       0.705   0.686  -0.338  0.00  0.00    -0.024 A 
ATOM      7  C   UNL     1      -0.550   0.165  -0.364  0.00  0.00    +0.022 A 
ATOM      8  C   UNL     1      -1.659   1.012  -0.258  0.00  0.00    +0.128 A 
ATOM      9  N   UNL     1      -1.496   2.319  -0.128  0.00  0.00    -0.224 NA
ATOM     10  C   UNL     1      -0.293   2.856  -0.093  0.00  0.00    +0.113 A 
ATOM     11  S   UNL     1       0.292   4.524   0.072  0.00  0.00    -0.064 S 
ATOM     12  N   UNL     1      -2.940   0.477  -0.291  0.00  0.00    -0.310 N 
ATOM     13  C   UNL     1      -3.694   0.988  -1.445  0.00  0.00    +0.134 C 
ATOM     14  C   UNL     1      -5.076   0.330  -1.476  0.00  0.00    +0.178 C 
ATOM     15  O   UNL     1      -5.746   0.580  -0.237  0.00  0.00    -0.377 OA
ATOM     16  C   UNL     1      -5.040   0.095   0.907  0.00  0.00    +0.178 C 
ATOM     17  C   UNL     1      -3.657   0.751   0.963  0.00  0.00    +0.134 C 
ATOM     18  C   UNL     1      -0.783  -1.318  -0.496  0.00  0.00    +0.199 C 
ATOM     19  O   UNL     1       0.402  -1.965  -0.959  0.00  0.00    -0.369 OA
ATOM     20  C   UNL     1       1.562  -1.638  -0.185  0.00  0.00    +0.068 C 
ATOM     21  C   UNL     1       1.931  -0.178  -0.462  0.00  0.00    +0.070 C 
ATOM     22  C   UNL     1       2.724  -2.548  -0.589  0.00  0.00    +0.041 C 
ATOM     23  C   UNL     1       1.258  -1.819   1.303  0.00  0.00    +0.041 C 
ATOM     24  N   UNL     1       3.405   2.341  -0.226  0.00  0.00    -0.221 NA
ATOM     25  C   UNL     1       4.455   3.133  -0.164  0.00  0.00    +0.190 A 
ATOM     26  N   UNL     1       4.362   4.449  -0.021  0.00  0.00    -0.206 NA
ATOM     27  H   UNL     1       2.052   6.862   0.287  0.00  0.00    +0.147 HD
ENDROOT
BRANCH  25  28
ATOM     28  S   UNL     1       6.059   2.412  -0.276  0.00  0.00    -0.089 S 
ATOM     29  C   UNL     1       7.082   3.898  -0.139  0.00  0.00    +0.093 C 
ENDBRANCH  25  28
BRANCH   1  30
ATOM     30  C   UNL     1       4.250   7.234   0.280  0.00  0.00    +0.101 C 
BRANCH  30  31
ATOM     31  C   UNL     1       3.844   8.700   0.445  0.00  0.00    +0.000 C 
BRANCH  31  32
ATOM     32  C   UNL     1       5.099   9.572   0.511  0.00  0.00    -0.077 C 
BRANCH  32  33
ATOM     33  N   UNL     1       4.711  10.988   0.547  0.00  0.00    +0.379 N 
ATOM     34  H   UNL     1       3.898  11.134  -0.180  0.00  0.00    -0.082 HD
BRANCH  33  36
ATOM     35  C   UNL     1       3.579  12.757   1.807  0.00  0.00    -0.017 C 
ATOM     36  C   UNL     1       4.202  11.361   1.873  0.00  0.00    -0.082 C 
ENDBRANCH  33  36
BRANCH  33  37
ATOM     37  C   UNL     1       5.831  11.852   0.151  0.00  0.00    -0.082 C 
ATOM     38  C   UNL     1       6.027  11.772  -1.364  0.00  0.00    -0.017 C 
ENDBRANCH  33  37
ENDBRANCH  32  33
ENDBRANCH  31  32
ENDBRANCH  30  31
ENDBRANCH   1  30
TORSDOF 7
