REMARK  Name = ZINC12780775
REMARK  11 active torsions:
REMARK  status: ('A' for Active; 'I' for Inactive)
REMARK    1  A    between atoms: C_1  and  C_2
REMARK    2  A    between atoms: C_5  and  O_33
REMARK    3  A    between atoms: C_6  and  N_8
REMARK    4  A    between atoms: C_9  and  C_11
REMARK    5  A    between atoms: C_11  and  C_13
REMARK    6  A    between atoms: C_11  and  N_59
REMARK    7  A    between atoms: C_19  and  C_21
REMARK    8  A    between atoms: C_19  and  C_22
REMARK    9  A    between atoms: C_19  and  N_59
REMARK   10  A    between atoms: C_25  and  N_28
REMARK   11  A    between atoms: O_33  and  C_34
REMARK                            x       y       z     vdW  Elec       q    Type
REMARK                         _______ _______ _______ _____ _____    ______ ____
ROOT
ATOM      1  C   UNL     1      -1.329   1.945   0.035  0.00  0.00    +0.048 C 
ENDROOT
BRANCH   1   2
ATOM      2  C   UNL     1      -1.407   2.797   1.276  0.00  0.00    -0.053 A 
ATOM      3  C   UNL     1      -1.752   2.226   2.486  0.00  0.00    +0.002 A 
ATOM      4  C   UNL     1      -1.818   3.007   3.625  0.00  0.00    +0.000 A 
ATOM      5  C   UNL     1      -1.550   4.361   3.551  0.00  0.00    +0.000 A 
ATOM      6  C   UNL     1      -1.210   4.933   2.339  0.00  0.00    +0.000 A 
ATOM      7  C   UNL     1      -1.139   4.151   1.202  0.00  0.00    +0.002 A 
ENDBRANCH   1   2
BRANCH   1   9
ATOM      8  N   UNL     1       1.143   1.898   0.001  0.00  0.00    -0.284 N 
ATOM      9  C   UNL     1      -0.015   1.209   0.013  0.00  0.00    +0.208 C 
ATOM     10  O   UNL     1       0.002  -0.004  -0.000  0.00  0.00    -0.277 OA
ATOM     11  H   UNL     1       1.131   2.866  -0.069  0.00  0.00    +0.155 HD
BRANCH   8  17
ATOM     12  C   UNL     1       3.686  -2.064   1.419  0.00  0.00    +0.044 C 
ATOM     13  C   UNL     1       3.627  -0.704   0.773  0.00  0.00    -0.048 A 
ATOM     14  C   UNL     1       4.779  -0.128   0.271  0.00  0.00    +0.007 A 
ATOM     15  C   UNL     1       4.731   1.120  -0.321  0.00  0.00    +0.048 A 
ATOM     16  C   UNL     1       3.526   1.797  -0.413  0.00  0.00    +0.141 A 
ATOM     17  C   UNL     1       2.365   1.218   0.092  0.00  0.00    +0.076 A 
ATOM     18  C   UNL     1       2.422  -0.033   0.690  0.00  0.00    +0.030 A 
BRANCH  16  19
ATOM     19  O   UNL     1       3.478   3.026  -0.995  0.00  0.00    -0.493 OA
ATOM     20  C   UNL     1       4.708   3.558  -1.491  0.00  0.00    +0.277 C 
ENDBRANCH  16  19
ENDBRANCH   8  17
ENDBRANCH   1   9
BRANCH   1  21
ATOM     21  N   UNL     1      -2.432   0.966   0.041  0.00  0.00    +0.394 N 
ATOM     22  H   UNL     1      -2.615   0.667   1.006  0.00  0.00    -0.083 HD
ATOM     23  H   UNL     1      -2.165   0.151  -0.524  0.00  0.00    -0.083 HD
BRANCH  21  24
ATOM     24  C   UNL     1      -3.655   1.568  -0.523  0.00  0.00    -0.043 C 
ATOM     25  C   UNL     1      -4.405   2.325   0.576  0.00  0.00    -0.009 C 
BRANCH  24  26
ATOM     26  C   UNL     1      -4.537   0.476  -1.072  0.00  0.00    -0.061 A 
ATOM     27  C   UNL     1      -4.662  -0.719  -0.388  0.00  0.00    +0.004 A 
ATOM     28  C   UNL     1      -5.473  -1.720  -0.886  0.00  0.00    +0.028 A 
ATOM     29  C   UNL     1      -6.156  -1.528  -2.080  0.00  0.00    +0.067 A 
ATOM     30  C   UNL     1      -6.024  -0.329  -2.767  0.00  0.00    +0.028 A 
ATOM     31  C   UNL     1      -5.215   0.670  -2.261  0.00  0.00    +0.004 A 
BRANCH  29  32
ATOM     32  N   UNL     1      -6.977  -2.543  -2.590  0.00  0.00    -0.220 N 
ATOM     33  C   UNL     1      -7.199  -3.755  -2.043  0.00  0.00    +0.225 A 
ATOM     34  N   UNL     1      -8.024  -4.406  -2.822  0.00  0.00    -0.222 NA
ATOM     35  C   UNL     1      -8.344  -3.652  -3.873  0.00  0.00    +0.245 A 
ATOM     36  N   UNL     1      -7.728  -2.503  -3.776  0.00  0.00    -0.154 NA
ENDBRANCH  29  32
ENDBRANCH  24  26
ENDBRANCH  21  24
ENDBRANCH   1  21
TORSDOF 8
