REMARK  Name = ZINC67082711
REMARK  5 active torsions:
REMARK  status: ('A' for Active; 'I' for Inactive)
REMARK    1  A    between atoms: C_2  and  C_10
REMARK    2  A    between atoms: C_10  and  N_11
REMARK    3  A    between atoms: N_14  and  N_15
REMARK    4  A    between atoms: C_16  and  C_18
REMARK    5  A    between atoms: C_18  and  C_19
REMARK                            x       y       z     vdW  Elec       q    Type
REMARK                         _______ _______ _______ _____ _____    ______ ____
ROOT
ATOM      1  N   UNL     1       2.030   3.611   1.377  0.00  0.00    -0.293 N 
ATOM      2  C   UNL     1       2.473   4.860   1.625  0.00  0.00    +0.316 C 
ATOM      3  O   UNL     1       2.639   5.639   0.706  0.00  0.00    -0.251 OA
ATOM      4  N   UNL     1       2.732   5.245   2.890  0.00  0.00    -0.218 N 
ATOM      5  H   UNL     1       1.898   2.989   2.110  0.00  0.00    +0.151 HD
ATOM      6  H   UNL     1       3.051   6.143   3.068  0.00  0.00    +0.174 HD
ENDROOT
BRANCH   4   7
ATOM      7  N   UNL     1       2.542   4.346   3.948  0.00  0.00    -0.233 N 
ATOM      8  C   UNL     1       2.801   4.731   5.214  0.00  0.00    +0.229 C 
ATOM      9  O   UNL     1       3.200   5.855   5.436  0.00  0.00    -0.274 OA
ATOM     10  H   UNL     1       2.223   3.448   3.770  0.00  0.00    +0.173 HD
BRANCH   8  11
ATOM     11  C   UNL     1       2.596   3.765   6.352  0.00  0.00    +0.101 C 
BRANCH  11  12
ATOM     12  C   UNL     1       2.960   4.448   7.672  0.00  0.00    -0.002 C 
ATOM     13  C   UNL     1       4.455   4.773   7.682  0.00  0.00    +0.004 C 
ATOM     14  C   UNL     1       4.820   5.456   9.002  0.00  0.00    +0.000 C 
ATOM     15  C   UNL     1       4.494   4.519  10.167  0.00  0.00    +0.000 C 
ATOM     16  C   UNL     1       2.999   4.194  10.157  0.00  0.00    +0.000 C 
ATOM     17  C   UNL     1       2.635   3.511   8.837  0.00  0.00    +0.004 C 
ENDBRANCH  11  12
ENDBRANCH   8  11
ENDBRANCH   4   7
BRANCH   1  18
ATOM     18  C   UNL     1       1.748   3.193   0.002  0.00  0.00    +0.160 C 
BRANCH  18  20
ATOM     19  C   UNL     1      -0.016   1.359   0.009  0.00  0.00    +0.110 A 
ATOM     20  C   UNL     1       1.270   1.764  -0.001  0.00  0.00    +0.051 A 
ATOM     21  N   UNL     1       2.050   0.671  -0.014  0.00  0.00    -0.346 N 
ATOM     22  C   UNL     1       1.300  -0.391  -0.011  0.00  0.00    +0.087 A 
ATOM     23  N   UNL     1       0.002  -0.004   0.002  0.00  0.00    -0.336 N 
ATOM     24  C   UNL     1      -1.143  -0.917   0.007  0.00  0.00    +0.123 C 
ATOM     25  C   UNL     1      -0.669  -2.307  -0.431  0.00  0.00    +0.022 C 
ATOM     26  C   UNL     1       0.560  -2.710   0.389  0.00  0.00    +0.009 C 
ATOM     27  C   UNL     1       1.750  -1.833  -0.021  0.00  0.00    +0.072 C 
ATOM     28  H   UNL     1       3.020   0.673  -0.023  0.00  0.00    +0.167 HD
ENDBRANCH  18  20
ENDBRANCH   1  18
TORSDOF 5
