REMARK  Name = ZINC60669227
REMARK  10 active torsions:
REMARK  status: ('A' for Active; 'I' for Inactive)
REMARK    1  A    between atoms: C_1  and  C_2
REMARK    2  A    between atoms: C_3  and  C_15
REMARK    3  A    between atoms: C_4  and  C_14
REMARK    4  A    between atoms: C_8  and  C_11
REMARK    5  A    between atoms: C_15  and  C_16
REMARK    6  A    between atoms: C_16  and  C_17
REMARK    7  A    between atoms: N_19  and  C_20
REMARK    8  A    between atoms: C_20  and  C_21
REMARK    9  A    between atoms: C_21  and  N_22
REMARK   10  A    between atoms: C_27  and  C_28
REMARK                            x       y       z     vdW  Elec       q    Type
REMARK                         _______ _______ _______ _____ _____    ______ ____
ROOT
ATOM      1  C   UNL     1      -0.018   1.503   0.010  0.00  0.00    +0.066 C 
ATOM      2  C   UNL     1       0.002  -0.004   0.002  0.00  0.00    +0.045 A 
ATOM      3  C   UNL     1      -1.204  -0.719   0.004  0.00  0.00    -0.006 A 
ATOM      4  C   UNL     1      -1.176  -2.075  -0.004  0.00  0.00    +0.028 A 
ATOM      5  N   UNL     1       0.031  -2.713  -0.014  0.00  0.00    -0.287 N 
ATOM      6  C   UNL     1       0.385  -4.029  -0.022  0.00  0.00    +0.206 A 
ATOM      7  N   UNL     1       1.682  -4.134  -0.029  0.00  0.00    -0.229 NA
ATOM      8  C   UNL     1       2.239  -2.905  -0.025  0.00  0.00    +0.169 A 
ATOM      9  C   UNL     1       1.190  -1.977  -0.015  0.00  0.00    +0.170 A 
ATOM     10  N   UNL     1       1.151  -0.643  -0.012  0.00  0.00    -0.232 NA
ATOM     11  C   UNL     1      -2.459  -2.865  -0.002  0.00  0.00    +0.064 C 
ENDROOT
BRANCH   8  12
ATOM     12  C   UNL     1       3.670  -2.600  -0.030  0.00  0.00    +0.264 C 
ATOM     13  O   UNL     1       4.045  -1.441  -0.025  0.00  0.00    -0.269 OA
ATOM     14  N   UNL     1       4.573  -3.600  -0.040  0.00  0.00    -0.324 N 
ATOM     15  H   UNL     1       4.274  -4.523  -0.044  0.00  0.00    +0.145 HD
ATOM     16  H   UNL     1       5.521  -3.398  -0.043  0.00  0.00    +0.145 HD
ENDBRANCH   8  12
BRANCH   3  17
ATOM     17  C   UNL     1      -2.521   0.014   0.015  0.00  0.00    +0.048 C 
BRANCH  17  18
ATOM     18  C   UNL     1      -2.898   0.363   1.456  0.00  0.00    +0.100 C 
BRANCH  18  19
ATOM     19  C   UNL     1      -4.215   1.095   1.467  0.00  0.00    +0.213 C 
ATOM     20  O   UNL     1      -4.795   1.316   0.425  0.00  0.00    -0.276 OA
ATOM     21  N   UNL     1      -4.748   1.505   2.635  0.00  0.00    -0.317 N 
ATOM     22  H   UNL     1      -4.285   1.328   3.469  0.00  0.00    +0.149 HD
BRANCH  21  23
ATOM     23  C   UNL     1      -6.029   2.217   2.646  0.00  0.00    +0.085 C 
BRANCH  23  24
ATOM     24  C   UNL     1      -6.406   2.566   4.088  0.00  0.00    -0.059 C 
BRANCH  24  25
ATOM     25  N   UNL     1      -7.690   3.280   4.098  0.00  0.00    +0.382 N 
ATOM     26  C   UNL     1      -8.749   2.386   3.616  0.00  0.00    -0.078 C 
ATOM     27  C   UNL     1     -10.074   3.148   3.549  0.00  0.00    -0.019 C 
ATOM     28  C   UNL     1     -10.433   3.661   4.947  0.00  0.00    -0.003 C 
ATOM     29  C   UNL     1      -9.288   4.533   5.470  0.00  0.00    -0.016 C 
ATOM     30  C   UNL     1      -7.992   3.719   5.466  0.00  0.00    -0.072 C 
ATOM     31  C   UNL     1      -6.845   4.585   5.988  0.00  0.00    -0.013 C 
ATOM     32  H   UNL     1      -7.631   4.085   3.493  0.00  0.00    -0.081 HD
ENDBRANCH  24  25
ENDBRANCH  23  24
ENDBRANCH  21  23
ENDBRANCH  18  19
ENDBRANCH  17  18
ENDBRANCH   3  17
TORSDOF 7
