REMARK  Name = ZINC63817159
REMARK  5 active torsions:
REMARK  status: ('A' for Active; 'I' for Inactive)
REMARK    1  A    between atoms: C_7  and  C_10
REMARK    2  A    between atoms: C_10  and  C_11
REMARK    3  A    between atoms: C_11  and  C_12
REMARK    4  A    between atoms: N_14  and  C_15
REMARK    5  A    between atoms: C_17  and  C_25
REMARK                            x       y       z     vdW  Elec       q    Type
REMARK                         _______ _______ _______ _____ _____    ______ ____
ROOT
ATOM      1  C   UNL     1      -0.484  -4.830  -1.460  0.00  0.00    +0.214 C 
ATOM      2  O   UNL     1      -0.925  -5.254  -0.412  0.00  0.00    -0.276 OA
ATOM      3  N   UNL     1      -0.837  -5.413  -2.623  0.00  0.00    -0.302 N 
ATOM      4  H   UNL     1      -0.485  -5.075  -3.461  0.00  0.00    +0.150 HD
ENDROOT
BRANCH   3   5
ATOM      5  C   UNL     1      -1.752  -6.557  -2.622  0.00  0.00    +0.151 C 
ATOM      6  C   UNL     1      -2.768  -6.474  -3.784  0.00  0.00    +0.132 C 
ATOM      7  C   UNL     1      -2.266  -7.203  -5.016  0.00  0.00    -0.046 C 
ATOM      8  C   UNL     1      -1.306  -8.095  -4.848  0.00  0.00    -0.013 C 
ATOM      9  S   UNL     1      -0.893  -8.110  -3.112  0.00  0.00    -0.106 S 
ATOM     10  C   UNL     1      -0.914  -8.764  -6.144  0.00  0.00    +0.042 C 
ATOM     11  C   UNL     1      -2.077  -8.451  -7.110  0.00  0.00    +0.009 C 
ATOM     12  C   UNL     1      -2.630  -7.147  -6.504  0.00  0.00    +0.033 C 
BRANCH   6  13
ATOM     13  C   UNL     1      -3.000  -5.026  -4.131  0.00  0.00    +0.220 C 
ATOM     14  O   UNL     1      -2.723  -4.616  -5.239  0.00  0.00    -0.275 OA
ATOM     15  N   UNL     1      -3.515  -4.186  -3.212  0.00  0.00    -0.329 N 
ATOM     16  H   UNL     1      -3.737  -4.514  -2.326  0.00  0.00    +0.145 HD
ATOM     17  H   UNL     1      -3.665  -3.254  -3.436  0.00  0.00    +0.145 HD
ENDBRANCH   6  13
ENDBRANCH   3   5
BRANCH   1  18
ATOM     18  C   UNL     1       0.457  -3.653  -1.462  0.00  0.00    +0.100 C 
BRANCH  18  19
ATOM     19  C   UNL     1       0.691  -3.186  -0.024  0.00  0.00    +0.042 C 
BRANCH  19  26
ATOM     20  C   UNL     1      -0.016   1.348   0.009  0.00  0.00    +0.001 A 
ATOM     21  C   UNL     1       1.166   2.101   0.002  0.00  0.00    +0.002 A 
ATOM     22  C   UNL     1       2.391   1.535  -0.013  0.00  0.00    +0.026 A 
ATOM     23  C   UNL     1       2.529   0.120  -0.022  0.00  0.00    +0.043 A 
ATOM     24  N   UNL     1       3.587  -0.654  -0.037  0.00  0.00    -0.380 N 
ATOM     25  C   UNL     1       3.143  -2.053  -0.041  0.00  0.00    +0.144 C 
ATOM     26  C   UNL     1       1.631  -2.008  -0.025  0.00  0.00    -0.041 C 
ATOM     27  C   UNL     1       1.295  -0.698  -0.014  0.00  0.00    -0.001 A 
ATOM     28  C   UNL     1       0.002  -0.004   0.002  0.00  0.00    +0.010 A 
ATOM     29  H   UNL     1       4.509  -0.353  -0.045  0.00  0.00    +0.160 HD
ENDBRANCH  19  26
ENDBRANCH  18  19
ENDBRANCH   1  18
TORSDOF 5
