REMARK  Name = ZINC36312924
REMARK  10 active torsions:
REMARK  status: ('A' for Active; 'I' for Inactive)
REMARK    1  A    between atoms: C_1  and  C_2
REMARK    2  A    between atoms: C_5  and  S_8
REMARK    3  A    between atoms: S_8  and  N_11
REMARK    4  A    between atoms: N_11  and  C_12
REMARK    5  A    between atoms: N_11  and  C_32
REMARK    6  A    between atoms: C_12  and  C_13
REMARK    7  A    between atoms: C_14  and  C_25
REMARK    8  A    between atoms: C_17  and  N_18
REMARK    9  A    between atoms: N_21  and  C_24
REMARK   10  A    between atoms: C_32  and  C_33
REMARK                            x       y       z     vdW  Elec       q    Type
REMARK                         _______ _______ _______ _____ _____    ______ ____
ROOT
ATOM      1  C   UNL     1       2.686  -6.390   1.681  0.00  0.00    +0.057 A 
ATOM      2  C   UNL     1       1.750  -6.972   2.561  0.00  0.00    +0.120 A 
ATOM      3  N   UNL     1       1.817  -8.275   2.419  0.00  0.00    -0.076 NA
ATOM      4  O   UNL     1       2.802  -8.559   1.442  0.00  0.00    -0.339 OA
ATOM      5  C   UNL     1       3.307  -7.391   1.009  0.00  0.00    +0.225 A 
ENDROOT
BRANCH   5   6
ATOM      6  N   UNL     1       4.291  -7.238   0.048  0.00  0.00    -0.303 N 
ATOM      7  C   UNL     1       5.657  -6.839   0.421  0.00  0.00    +0.089 C 
ATOM      8  C   UNL     1       6.643  -7.816  -0.228  0.00  0.00    -0.060 C 
ATOM      9  N   UNL     1       6.399  -7.865  -1.675  0.00  0.00    +0.380 N 
ATOM     10  C   UNL     1       5.065  -8.416  -1.940  0.00  0.00    -0.060 C 
ATOM     11  C   UNL     1       4.002  -7.475  -1.375  0.00  0.00    +0.089 C 
ATOM     12  C   UNL     1       7.414  -8.716  -2.312  0.00  0.00    -0.096 C 
ATOM     13  H   UNL     1       6.459  -6.933  -2.057  0.00  0.00    -0.082 HD
ENDBRANCH   5   6
BRANCH   2  14
ATOM     14  C   UNL     1       0.848  -6.240   3.485  0.00  0.00    +0.004 A 
ATOM     15  C   UNL     1       1.342  -5.191   4.259  0.00  0.00    +0.013 A 
ATOM     16  C   UNL     1       0.500  -4.513   5.116  0.00  0.00    +0.039 A 
ATOM     17  C   UNL     1      -0.835  -4.873   5.208  0.00  0.00    +0.123 A 
ATOM     18  C   UNL     1      -1.330  -5.915   4.441  0.00  0.00    +0.039 A 
ATOM     19  C   UNL     1      -0.496  -6.595   3.576  0.00  0.00    +0.013 A 
ATOM     20  F   UNL     1      -1.656  -4.207   6.049  0.00  0.00    -0.205 F 
ENDBRANCH   2  14
BRANCH   1  21
ATOM     21  C   UNL     1       2.946  -4.915   1.512  0.00  0.00    +0.152 C 
BRANCH  21  22
ATOM     22  N   UNL     1       2.035  -4.372   0.500  0.00  0.00    -0.170 NA
BRANCH  22  23
ATOM     23  S   UNL     1       0.707  -3.499   0.965  0.00  0.00    +0.061 S 
ATOM     24  O   UNL     1       0.400  -3.902   2.292  0.00  0.00    -0.153 OA
ATOM     25  O   UNL     1      -0.233  -3.593  -0.097  0.00  0.00    -0.153 OA
BRANCH  23  30
ATOM     26  C   UNL     1       2.387   2.288   1.268  0.00  0.00    +0.044 C 
ATOM     27  C   UNL     1       1.968   0.843   1.192  0.00  0.00    -0.050 A 
ATOM     28  C   UNL     1       1.472   0.328   0.009  0.00  0.00    +0.005 A 
ATOM     29  C   UNL     1       1.087  -0.998  -0.061  0.00  0.00    +0.029 A 
ATOM     30  C   UNL     1       1.199  -1.809   1.053  0.00  0.00    +0.106 A 
ATOM     31  C   UNL     1       1.695  -1.294   2.236  0.00  0.00    +0.029 A 
ATOM     32  C   UNL     1       2.084   0.030   2.304  0.00  0.00    +0.005 A 
ENDBRANCH  23  30
ENDBRANCH  22  23
BRANCH  22  33
ATOM     33  C   UNL     1       2.301  -4.600  -0.922  0.00  0.00    +0.141 C 
BRANCH  33  34
ATOM     34  C   UNL     1       3.491  -3.747  -1.363  0.00  0.00    +0.134 C 
ATOM     35  C   UNL     1       3.767  -3.947  -2.874  0.00  0.00    +0.035 C 
ATOM     36  C   UNL     1       4.484  -2.615  -3.223  0.00  0.00    +0.031 C 
ATOM     37  C   UNL     1       3.774  -1.607  -2.293  0.00  0.00    +0.160 C 
ATOM     38  O   UNL     1       3.185  -2.351  -1.218  0.00  0.00    -0.375 OA
ENDBRANCH  33  34
ENDBRANCH  22  33
ENDBRANCH  21  22
ENDBRANCH   1  21
TORSDOF 8
