REMARK  Name = ZINC64197346
REMARK  6 active torsions:
REMARK  status: ('A' for Active; 'I' for Inactive)
REMARK    1  A    between atoms: C_1  and  C_2
REMARK    2  A    between atoms: C_5  and  C_34
REMARK    3  A    between atoms: C_6  and  N_8
REMARK    4  A    between atoms: C_9  and  O_33
REMARK    5  A    between atoms: C_12  and  O_32
REMARK    6  A    between atoms: C_13  and  C_17
REMARK                            x       y       z     vdW  Elec       q    Type
REMARK                         _______ _______ _______ _____ _____    ______ ____
ROOT
ATOM      1  N   UNL     1       0.052  -2.797   2.393  0.00  0.00    -0.225 N 
ATOM      2  C   UNL     1       1.337  -3.129   2.992  0.00  0.00    +0.338 C 
ATOM      3  N   UNL     1       1.219  -3.421   4.411  0.00  0.00    -0.204 NA
ATOM      4  C   UNL     1       0.130  -3.757   4.987  0.00  0.00    +0.200 C 
ATOM      5  C   UNL     1      -1.173  -3.886   4.254  0.00  0.00    +0.179 C 
ATOM      6  C   UNL     1      -1.116  -3.139   2.953  0.00  0.00    +0.237 C 
ATOM      7  O   UNL     1      -2.150  -2.842   2.394  0.00  0.00    -0.274 OA
ENDROOT
BRANCH   5   8
ATOM      8  C   UNL     1      -1.454  -5.365   3.979  0.00  0.00    +0.101 C 
ATOM      9  C   UNL     1      -1.645  -6.109   5.302  0.00  0.00    +0.124 C 
ATOM     10  C   UNL     1      -1.748  -7.588   4.948  0.00  0.00    -0.036 C 
ATOM     11  C   UNL     1      -2.876  -8.026   5.489  0.00  0.00    -0.001 A 
ATOM     12  C   UNL     1      -3.472  -9.370   5.564  0.00  0.00    +0.010 A 
ATOM     13  C   UNL     1      -4.673  -9.459   6.195  0.00  0.00    +0.001 A 
ATOM     14  C   UNL     1      -5.333  -8.359   6.752  0.00  0.00    +0.002 A 
ATOM     15  C   UNL     1      -4.856  -7.089   6.734  0.00  0.00    +0.026 A 
ATOM     16  C   UNL     1      -3.597  -6.869   6.104  0.00  0.00    +0.043 A 
ATOM     17  N   UNL     1      -2.898  -5.758   5.969  0.00  0.00    -0.376 N 
ATOM     18  C   UNL     1      -0.733  -8.261   4.056  0.00  0.00    +0.048 C 
ATOM     19  C   UNL     1      -0.557  -7.341   2.835  0.00  0.00    +0.085 C 
ATOM     20  N   UNL     1      -0.311  -5.963   3.271  0.00  0.00    -0.310 NA
ATOM     21  H   UNL     1      -0.021  -5.384   2.497  0.00  0.00    +0.122 HD
ATOM     22  H   UNL     1      -3.161  -4.869   6.252  0.00  0.00    +0.160 HD
ENDBRANCH   5   8
BRANCH   1  28
ATOM     23  C   UNL     1      -0.018   1.503   0.010  0.00  0.00    +0.044 C 
ATOM     24  C   UNL     1       0.002  -0.004   0.002  0.00  0.00    -0.049 A 
ATOM     25  C   UNL     1       0.006  -0.688  -1.200  0.00  0.00    +0.004 A 
ATOM     26  C   UNL     1       0.025  -2.071  -1.212  0.00  0.00    +0.005 A 
ATOM     27  C   UNL     1       0.041  -2.773  -0.022  0.00  0.00    -0.029 A 
ATOM     28  C   UNL     1       0.037  -2.089   1.186  0.00  0.00    +0.044 A 
ATOM     29  C   UNL     1       0.023  -0.700   1.194  0.00  0.00    +0.027 A 
ATOM     30  C   UNL     1       0.061  -4.280  -0.036  0.00  0.00    +0.045 C 
ENDBRANCH   1  28
BRANCH   4  31
ATOM     31  O   UNL     1       0.153  -4.007   6.313  0.00  0.00    -0.495 OA
ATOM     32  H   UNL     1       1.025  -3.904   6.718  0.00  0.00    +0.293 HD
ENDBRANCH   4  31
BRANCH   2  33
ATOM     33  O   UNL     1       1.878  -4.272   2.328  0.00  0.00    -0.356 OA
ATOM     34  H   UNL     1       2.736  -4.557   2.671  0.00  0.00    +0.214 HD
ENDBRANCH   2  33
TORSDOF 4
