REMARK  Name = ZINC37243757
REMARK  8 active torsions:
REMARK  status: ('A' for Active; 'I' for Inactive)
REMARK    1  A    between atoms: C_1  and  C_2
REMARK    2  A    between atoms: C_2  and  O_3
REMARK    3  A    between atoms: O_3  and  C_4
REMARK    4  A    between atoms: C_9  and  N_12
REMARK    5  A    between atoms: C_13  and  C_15
REMARK    6  A    between atoms: N_17  and  C_18
REMARK    7  A    between atoms: C_18  and  C_19
REMARK    8  A    between atoms: C_19  and  N_20
REMARK                            x       y       z     vdW  Elec       q    Type
REMARK                         _______ _______ _______ _____ _____    ______ ____
ROOT
ATOM      1  N   UNL     1       1.161  -3.643  -6.387  0.00  0.00    -0.305 N 
ATOM      2  C   UNL     1       1.687  -4.696  -7.042  0.00  0.00    +0.299 C 
ATOM      3  O   UNL     1       2.581  -5.341  -6.535  0.00  0.00    -0.265 OA
ATOM      4  H   UNL     1       0.446  -3.127  -6.792  0.00  0.00    +0.149 HD
ENDROOT
BRANCH   1  10
ATOM      5  C   UNL     1       0.776  -1.798  -1.335  0.00  0.00    +0.403 C 
ATOM      6  O   UNL     1       0.312  -2.549  -0.500  0.00  0.00    -0.226 OA
ATOM      7  N   UNL     1       1.395  -2.298  -2.422  0.00  0.00    -0.267 N 
ATOM      8  C   UNL     1       1.966  -1.403  -3.437  0.00  0.00    +0.113 C 
ATOM      9  C   UNL     1       1.404  -1.790  -4.809  0.00  0.00    +0.041 C 
ATOM     10  C   UNL     1       1.667  -3.276  -5.062  0.00  0.00    +0.076 C 
ATOM     11  C   UNL     1       0.956  -4.111  -3.995  0.00  0.00    +0.041 C 
ATOM     12  C   UNL     1       1.517  -3.750  -2.611  0.00  0.00    +0.113 C 
BRANCH   5  13
ATOM     13  O   UNL     1       0.671  -0.465  -1.174  0.00  0.00    -0.451 OA
BRANCH  13  15
ATOM     14  C   UNL     1      -0.019   1.526   0.010  0.00  0.00    +0.048 C 
ATOM     15  C   UNL     1       0.002  -0.004   0.002  0.00  0.00    +0.230 C 
ENDBRANCH  13  15
ENDBRANCH   5  13
ENDBRANCH   1  10
BRANCH   2  16
ATOM     16  C   UNL     1       1.170  -5.070  -8.394  0.00  0.00    +0.299 C 
ATOM     17  O   UNL     1       0.276  -4.425  -8.901  0.00  0.00    -0.265 OA
ATOM     18  N   UNL     1       1.697  -6.123  -9.049  0.00  0.00    -0.309 N 
ATOM     19  H   UNL     1       2.412  -6.638  -8.643  0.00  0.00    +0.149 HD
BRANCH  18  20
ATOM     20  C   UNL     1       1.190  -6.489 -10.374  0.00  0.00    +0.085 C 
BRANCH  20  21
ATOM     21  C   UNL     1       1.953  -7.710 -10.892  0.00  0.00    -0.067 C 
BRANCH  21  22
ATOM     22  N   UNL     1       1.445  -8.078 -12.220  0.00  0.00    +0.379 N 
ATOM     23  H   UNL     1       1.948  -8.883 -12.562  0.00  0.00    -0.090 HD
ATOM     24  H   UNL     1       0.462  -8.298 -12.156  0.00  0.00    -0.090 HD
ATOM     25  H   UNL     1       1.575  -7.305 -12.856  0.00  0.00    -0.090 HD
ENDBRANCH  21  22
ENDBRANCH  20  21
ENDBRANCH  18  20
ENDBRANCH   2  16
TORSDOF 7
