REMARK  Name = ZINC16524957
REMARK  8 active torsions:
REMARK  status: ('A' for Active; 'I' for Inactive)
REMARK    1  A    between atoms: C_9  and  C_12
REMARK    2  A    between atoms: C_12  and  N_13
REMARK    3  A    between atoms: N_16  and  C_17
REMARK    4  A    between atoms: C_17  and  C_18
REMARK    5  A    between atoms: C_23  and  C_26
REMARK    6  A    between atoms: C_26  and  N_27
REMARK    7  A    between atoms: N_30  and  C_31
REMARK    8  A    between atoms: C_31  and  C_32
REMARK                            x       y       z     vdW  Elec       q    Type
REMARK                         _______ _______ _______ _____ _____    ______ ____
ROOT
ATOM      1  C   UNL     1      -0.729   1.579   1.267  0.00  0.00    +0.006 C 
ATOM      2  C   UNL     1      -0.013   1.086   0.008  0.00  0.00    +0.005 C 
ATOM      3  C   UNL     1      -0.753   1.593  -1.232  0.00  0.00    +0.001 C 
ATOM      4  C   UNL     1      -0.773   3.123  -1.223  0.00  0.00    +0.005 C 
ATOM      5  C   UNL     1      -1.490   3.616   0.036  0.00  0.00    +0.006 C 
ATOM      6  C   UNL     1      -0.750   3.109   1.275  0.00  0.00    +0.010 C 
ENDROOT
BRANCH   1   7
ATOM      7  C   UNL     1       0.011   1.072   2.506  0.00  0.00    +0.109 C 
BRANCH   7  11
ATOM      8  N   UNL     1       0.436  -2.405   3.624  0.00  0.00    -0.296 N 
ATOM      9  C   UNL     1       0.512  -1.060   3.574  0.00  0.00    +0.300 C 
ATOM     10  O   UNL     1       1.108  -0.452   4.442  0.00  0.00    -0.253 OA
ATOM     11  N   UNL     1      -0.072  -0.389   2.561  0.00  0.00    -0.299 N 
ATOM     12  H   UNL     1      -0.039  -2.890   2.931  0.00  0.00    +0.150 HD
ATOM     13  H   UNL     1      -0.547  -0.874   1.868  0.00  0.00    +0.150 HD
BRANCH   8  14
ATOM     14  C   UNL     1       1.071  -3.134   4.725  0.00  0.00    +0.153 C 
BRANCH  14  23
ATOM     15  C   UNL     1       1.944  -9.168   2.885  0.00  0.00    +0.004 A 
ATOM     16  C   UNL     1       2.093  -8.321   1.803  0.00  0.00    +0.004 A 
ATOM     17  C   UNL     1       1.942  -6.957   1.966  0.00  0.00    +0.049 A 
ATOM     18  C   UNL     1       1.642  -6.434   3.215  0.00  0.00    +0.163 A 
ATOM     19  C   UNL     1       1.491  -7.287   4.302  0.00  0.00    +0.162 A 
ATOM     20  C   UNL     1       1.644  -8.655   4.133  0.00  0.00    +0.049 A 
ATOM     21  O   UNL     1       1.193  -6.796   5.536  0.00  0.00    -0.485 OA
ATOM     22  C   UNL     1       1.417  -5.397   5.743  0.00  0.00    +0.275 C 
ATOM     23  C   UNL     1       0.836  -4.635   4.544  0.00  0.00    +0.228 C 
ATOM     24  O   UNL     1       1.501  -5.088   3.360  0.00  0.00    -0.480 OA
ENDBRANCH  14  23
ENDBRANCH   8  14
ENDBRANCH   7  11
ENDBRANCH   1   7
BRANCH   5  25
ATOM     25  C   UNL     1      -2.925   3.086   0.047  0.00  0.00    +0.109 C 
BRANCH  25  26
ATOM     26  N   UNL     1      -3.668   3.667  -1.075  0.00  0.00    -0.299 N 
ATOM     27  C   UNL     1      -4.962   3.342  -1.266  0.00  0.00    +0.300 C 
ATOM     28  O   UNL     1      -5.513   2.567  -0.508  0.00  0.00    -0.253 OA
ATOM     29  N   UNL     1      -5.646   3.875  -2.297  0.00  0.00    -0.296 N 
ATOM     30  H   UNL     1      -3.229   4.285  -1.680  0.00  0.00    +0.150 HD
ATOM     31  H   UNL     1      -5.206   4.494  -2.902  0.00  0.00    +0.150 HD
BRANCH  29  32
ATOM     32  C   UNL     1      -7.052   3.522  -2.505  0.00  0.00    +0.153 C 
BRANCH  32  33
ATOM     33  C   UNL     1      -7.587   4.260  -3.734  0.00  0.00    +0.228 C 
ATOM     34  C   UNL     1      -9.084   3.968  -3.902  0.00  0.00    +0.275 C 
ATOM     35  O   UNL     1      -9.549   4.661  -5.066  0.00  0.00    -0.485 OA
ATOM     36  C   UNL     1      -8.781   4.559  -6.185  0.00  0.00    +0.162 A 
ATOM     37  C   UNL     1      -9.327   4.887  -7.417  0.00  0.00    +0.049 A 
ATOM     38  C   UNL     1      -8.559   4.791  -8.562  0.00  0.00    +0.004 A 
ATOM     39  C   UNL     1      -7.245   4.368  -8.483  0.00  0.00    +0.004 A 
ATOM     40  C   UNL     1      -6.695   4.039  -7.258  0.00  0.00    +0.049 A 
ATOM     41  C   UNL     1      -7.461   4.132  -6.105  0.00  0.00    +0.163 A 
ATOM     42  O   UNL     1      -6.907   3.800  -4.907  0.00  0.00    -0.480 OA
ENDBRANCH  32  33
ENDBRANCH  29  32
ENDBRANCH  25  26
ENDBRANCH   5  25
TORSDOF 8
