REMARK  Name = ZINC39697760
REMARK  6 active torsions:
REMARK  status: ('A' for Active; 'I' for Inactive)
REMARK    1  A    between atoms: C_3  and  N_27
REMARK    2  A    between atoms: C_6  and  C_7
REMARK    3  A    between atoms: C_18  and  C_20
REMARK    4  A    between atoms: C_23  and  N_26
REMARK    5  A    between atoms: C_28  and  C_30
REMARK    6  A    between atoms: C_33  and  N_36
REMARK                            x       y       z     vdW  Elec       q    Type
REMARK                         _______ _______ _______ _____ _____    ______ ____
ROOT
ATOM      1  C   UNL     1      -1.884  -1.360   0.115  0.00  0.00    +0.218 C 
ATOM      2  N   UNL     1      -1.668  -2.647  -0.550  0.00  0.00    -0.360 N 
ATOM      3  C   UNL     1      -2.428  -2.713  -1.605  0.00  0.00    +0.060 C 
ATOM      4  C   UNL     1      -2.602  -3.774  -2.618  0.00  0.00    +0.029 C 
ATOM      5  C   UNL     1      -3.469  -3.586  -3.628  0.00  0.00    +0.025 C 
ATOM      6  C   UNL     1      -4.237  -2.340  -3.725  0.00  0.00    +0.036 C 
ATOM      7  C   UNL     1      -4.083  -1.318  -2.767  0.00  0.00    +0.050 C 
ATOM      8  C   UNL     1      -3.217  -1.467  -1.730  0.00  0.00    +0.075 C 
ATOM      9  N   UNL     1      -2.886  -0.637  -0.678  0.00  0.00    -0.220 NA
ATOM     10  N   UNL     1      -5.092  -2.173  -4.732  0.00  0.00    -0.281 N 
ATOM     11  C   UNL     1      -5.327  -3.179  -5.586  0.00  0.00    +0.248 C 
ATOM     12  O   UNL     1      -5.709  -4.257  -5.166  0.00  0.00    -0.270 OA
ATOM     13  H   UNL     1      -5.545  -1.323  -4.848  0.00  0.00    +0.155 HD
ATOM     14  H   UNL     1      -1.057  -3.340  -0.253  0.00  0.00    +0.162 HD
ENDROOT
BRANCH   1  20
ATOM     15  C   UNL     1      -0.627   0.804   0.123  0.00  0.00    +0.009 A 
ATOM     16  C   UNL     1       0.551   1.524   0.160  0.00  0.00    +0.024 A 
ATOM     17  C   UNL     1       1.768   0.857   0.228  0.00  0.00    +0.034 A 
ATOM     18  C   UNL     1       1.796  -0.531   0.259  0.00  0.00    +0.024 A 
ATOM     19  C   UNL     1       0.614  -1.244   0.223  0.00  0.00    +0.009 A 
ATOM     20  C   UNL     1      -0.596  -0.578   0.155  0.00  0.00    -0.006 A 
BRANCH  17  21
ATOM     21  N   UNL     1       2.963   1.583   0.264  0.00  0.00    -0.282 N 
ATOM     22  C   UNL     1       4.008   1.125   0.983  0.00  0.00    +0.248 C 
ATOM     23  O   UNL     1       3.882   0.133   1.673  0.00  0.00    -0.270 OA
ATOM     24  H   UNL     1       3.041   2.416  -0.227  0.00  0.00    +0.155 HD
BRANCH  22  25
ATOM     25  C   UNL     1       5.303   1.829   0.931  0.00  0.00    +0.037 A 
ATOM     26  C   UNL     1       5.447   2.974   0.142  0.00  0.00    +0.015 A 
ATOM     27  C   UNL     1       6.657   3.628   0.096  0.00  0.00    +0.023 A 
ATOM     28  C   UNL     1       7.737   3.151   0.834  0.00  0.00    +0.025 A 
ATOM     29  C   UNL     1       7.596   2.011   1.621  0.00  0.00    +0.023 A 
ATOM     30  C   UNL     1       6.388   1.356   1.676  0.00  0.00    +0.015 A 
BRANCH  28  31
ATOM     31  N   UNL     1       8.958   3.814   0.785  0.00  0.00    -0.358 N 
ATOM     32  H   UNL     1       9.057   4.608   0.237  0.00  0.00    +0.142 HD
ATOM     33  H   UNL     1       9.711   3.482   1.299  0.00  0.00    +0.142 HD
ENDBRANCH  28  31
ENDBRANCH  22  25
ENDBRANCH  17  21
ENDBRANCH   1  20
BRANCH  11  34
ATOM     34  C   UNL     1      -5.123  -2.980  -7.036  0.00  0.00    +0.037 A 
ATOM     35  C   UNL     1      -4.680  -1.745  -7.518  0.00  0.00    +0.015 A 
ATOM     36  C   UNL     1      -4.491  -1.563  -8.869  0.00  0.00    +0.023 A 
ATOM     37  C   UNL     1      -4.741  -2.608  -9.755  0.00  0.00    +0.025 A 
ATOM     38  C   UNL     1      -5.182  -3.839  -9.278  0.00  0.00    +0.023 A 
ATOM     39  C   UNL     1      -5.368  -4.028  -7.928  0.00  0.00    +0.015 A 
BRANCH  37  40
ATOM     40  N   UNL     1      -4.549  -2.421 -11.120  0.00  0.00    -0.358 N 
ATOM     41  H   UNL     1      -4.242  -1.563 -11.454  0.00  0.00    +0.142 HD
ATOM     42  H   UNL     1      -4.722  -3.148 -11.738  0.00  0.00    +0.142 HD
ENDBRANCH  37  40
ENDBRANCH  11  34
TORSDOF 6
