REMARK  Name = ZINC44761458
REMARK  5 active torsions:
REMARK  status: ('A' for Active; 'I' for Inactive)
REMARK    1  A    between atoms: C_1  and  C_2
REMARK    2  A    between atoms: C_7  and  C_10
REMARK    3  A    between atoms: C_11  and  C_13
REMARK    4  A    between atoms: C_13  and  C_20
REMARK    5  A    between atoms: C_20  and  N_21
REMARK                            x       y       z     vdW  Elec       q    Type
REMARK                         _______ _______ _______ _____ _____    ______ ____
ROOT
ATOM      1  C   UNL     1      -2.017  -4.260  -0.317  0.00  0.00    +0.032 C 
ATOM      2  C   UNL     1      -0.571  -4.673  -0.390  0.00  0.00    +0.014 C 
ATOM      3  C   UNL     1       0.259  -3.755  -1.307  0.00  0.00    +0.001 C 
ATOM      4  C   UNL     1      -0.482  -3.381  -2.606  0.00  0.00    +0.000 C 
ATOM      5  C   UNL     1      -1.216  -4.549  -3.207  0.00  0.00    +0.000 C 
ATOM      6  C   UNL     1      -2.674  -4.521  -2.706  0.00  0.00    +0.001 C 
ATOM      7  C   UNL     1      -2.810  -5.068  -1.364  0.00  0.00    +0.014 C 
ENDROOT
BRANCH   1  16
ATOM      8  C   UNL     1      -4.813   1.251  -0.529  0.00  0.00    +0.039 C 
ATOM      9  C   UNL     1      -4.498  -0.185  -0.106  0.00  0.00    +0.133 C 
ATOM     10  C   UNL     1      -3.497  -0.801  -1.091  0.00  0.00    +0.139 C 
ATOM     11  N   UNL     1      -3.355  -2.231  -0.774  0.00  0.00    -0.296 N 
ATOM     12  C   UNL     1      -4.580  -3.034  -0.636  0.00  0.00    +0.139 C 
ATOM     13  C   UNL     1      -5.527  -2.309   0.326  0.00  0.00    +0.133 C 
ATOM     14  O   UNL     1      -5.700  -0.959  -0.109  0.00  0.00    -0.371 OA
ATOM     15  C   UNL     1      -6.883  -3.019   0.341  0.00  0.00    +0.039 C 
ATOM     16  C   UNL     1      -2.138  -2.788  -0.615  0.00  0.00    +0.220 C 
ATOM     17  O   UNL     1      -1.141  -2.104  -0.711  0.00  0.00    -0.275 OA
ENDBRANCH   1  16
BRANCH   1  18
ATOM     18  C   UNL     1      -2.568  -4.549   1.081  0.00  0.00    -0.070 C 
BRANCH  18  19
ATOM     19  N   UNL     1      -1.879  -3.702   2.064  0.00  0.00    +0.379 N 
ATOM     20  H   UNL     1      -1.938  -2.737   1.776  0.00  0.00    -0.090 HD
ATOM     21  H   UNL     1      -2.315  -3.812   2.967  0.00  0.00    -0.090 HD
ATOM     22  H   UNL     1      -0.909  -3.976   2.123  0.00  0.00    -0.090 HD
ENDBRANCH  18  19
ENDBRANCH   1  18
TORSDOF 3
