REMARK  Name = ZINC67163813
REMARK  11 active torsions:
REMARK  status: ('A' for Active; 'I' for Inactive)
REMARK    1  A    between atoms: C_1  and  N_2
REMARK    2  A    between atoms: N_2  and  C_3
REMARK    3  A    between atoms: N_2  and  C_4
REMARK    4  A    between atoms: C_4  and  C_6
REMARK    5  A    between atoms: C_4  and  C_26
REMARK    6  A    between atoms: C_6  and  N_7
REMARK    7  A    between atoms: C_8  and  C_10
REMARK    8  A    between atoms: C_10  and  C_11
REMARK    9  A    between atoms: C_11  and  C_12
REMARK   10  A    between atoms: C_12  and  C_13
REMARK   11  A    between atoms: C_13  and  C_14
REMARK                            x       y       z     vdW  Elec       q    Type
REMARK                         _______ _______ _______ _____ _____    ______ ____
ROOT
ATOM      1  N   UNL     1      -1.654   1.208  -1.514  0.00  0.00    -0.317 N 
ATOM      2  C   UNL     1      -2.182   1.821  -2.592  0.00  0.00    +0.213 C 
ATOM      3  O   UNL     1      -2.915   1.209  -3.339  0.00  0.00    -0.276 OA
ATOM      4  H   UNL     1      -1.067   1.698  -0.916  0.00  0.00    +0.149 HD
ENDROOT
BRANCH   1   5
ATOM      5  C   UNL     1      -1.965  -0.198  -1.246  0.00  0.00    +0.089 C 
BRANCH   5   6
ATOM      6  C   UNL     1      -1.132  -0.688  -0.060  0.00  0.00    -0.049 C 
BRANCH   6   7
ATOM      7  C   UNL     1       0.339  -0.774  -0.472  0.00  0.00    -0.023 C 
ATOM      8  C   UNL     1       0.817   0.599  -0.949  0.00  0.00    +0.002 C 
ATOM      9  C   UNL     1       2.288   0.512  -1.361  0.00  0.00    +0.000 C 
ATOM     10  C   UNL     1       2.441  -0.503  -2.495  0.00  0.00    +0.000 C 
ATOM     11  C   UNL     1       1.964  -1.876  -2.018  0.00  0.00    +0.000 C 
ATOM     12  C   UNL     1       0.493  -1.790  -1.606  0.00  0.00    +0.002 C 
ENDBRANCH   6   7
BRANCH   6  14
ATOM     13  C   UNL     1      -2.693   0.395   1.404  0.00  0.00    -0.096 C 
ATOM     14  N   UNL     1      -1.272   0.253   1.059  0.00  0.00    +0.379 N 
ATOM     15  C   UNL     1      -0.535  -0.257   2.223  0.00  0.00    -0.096 C 
ATOM     16  H   UNL     1      -0.899   1.152   0.792  0.00  0.00    -0.082 HD
ENDBRANCH   6  14
ENDBRANCH   5   6
ENDBRANCH   1   5
BRANCH   2  17
ATOM     17  C   UNL     1      -1.861   3.268  -2.868  0.00  0.00    +0.096 C 
BRANCH  17  18
ATOM     18  C   UNL     1      -2.582   3.716  -4.141  0.00  0.00    +0.009 C 
BRANCH  18  19
ATOM     19  C   UNL     1      -2.257   5.184  -4.421  0.00  0.00    +0.002 C 
BRANCH  19  20
ATOM     20  C   UNL     1      -2.978   5.633  -5.694  0.00  0.00    +0.016 C 
BRANCH  20  21
ATOM     21  C   UNL     1      -2.652   7.101  -5.974  0.00  0.00    +0.069 C 
ATOM     22  C   UNL     1      -3.371   7.593  -7.205  0.00  0.00    +0.108 C 
ATOM     23  C   UNL     1      -2.550   8.767  -7.824  0.00  0.00    +0.105 C 
ATOM     24  C   UNL     1      -1.175   8.180  -8.134  0.00  0.00    +0.093 C 
ATOM     25  S   UNL     1      -0.888   7.307  -6.502  0.00  0.00    -0.154 S 
ATOM     26  N   UNL     1      -3.460   9.157  -8.877  0.00  0.00    -0.294 N 
ATOM     27  C   UNL     1      -4.712   8.916  -8.385  0.00  0.00    +0.300 C 
ATOM     28  O   UNL     1      -5.729   9.351  -8.890  0.00  0.00    -0.253 OA
ATOM     29  N   UNL     1      -4.690   8.151  -7.260  0.00  0.00    -0.294 N 
ATOM     30  H   UNL     1      -3.230   9.515  -9.749  0.00  0.00    +0.151 HD
ATOM     31  H   UNL     1      -5.417   8.009  -6.634  0.00  0.00    +0.151 HD
ENDBRANCH  20  21
ENDBRANCH  19  20
ENDBRANCH  18  19
ENDBRANCH  17  18
ENDBRANCH   2  17
TORSDOF 9
