REMARK  Name = ZINC42360179
REMARK  7 active torsions:
REMARK  status: ('A' for Active; 'I' for Inactive)
REMARK    1  A    between atoms: C_1  and  N_2
REMARK    2  A    between atoms: N_2  and  C_3
REMARK    3  A    between atoms: N_2  and  C_10
REMARK    4  A    between atoms: C_3  and  C_4
REMARK    5  A    between atoms: C_10  and  C_11
REMARK    6  A    between atoms: N_13  and  C_14
REMARK    7  A    between atoms: C_18  and  N_20
REMARK                            x       y       z     vdW  Elec       q    Type
REMARK                         _______ _______ _______ _____ _____    ______ ____
ROOT
ATOM      1  C   UNL     1      -0.024   0.063  -2.446  0.00  0.00    +0.201 C 
ATOM      2  O   UNL     1      -0.976   0.808  -2.347  0.00  0.00    -0.278 OA
ATOM      3  N   UNL     1       0.336  -0.414  -3.654  0.00  0.00    -0.287 N 
ATOM      4  H   UNL     1       1.141  -0.947  -3.744  0.00  0.00    +0.155 HD
ENDROOT
BRANCH   3   5
ATOM      5  C   UNL     1      -0.453  -0.141  -4.778  0.00  0.00    +0.035 A 
ATOM      6  C   UNL     1       0.143   0.014  -6.024  0.00  0.00    +0.026 A 
ATOM      7  C   UNL     1      -0.634   0.284  -7.134  0.00  0.00    +0.042 A 
ATOM      8  C   UNL     1      -2.006   0.402  -7.009  0.00  0.00    +0.144 A 
ATOM      9  C   UNL     1      -2.608   0.249  -5.764  0.00  0.00    +0.062 A 
ATOM     10  C   UNL     1      -1.830  -0.029  -4.649  0.00  0.00    +0.049 A 
ATOM     11  F   UNL     1      -2.763   0.667  -8.096  0.00  0.00    -0.204 F 
BRANCH   9  12
ATOM     12  N   UNL     1      -3.995   0.369  -5.637  0.00  0.00    -0.356 N 
ATOM     13  H   UNL     1      -4.539   0.559  -6.417  0.00  0.00    +0.142 HD
ATOM     14  H   UNL     1      -4.414   0.262  -4.769  0.00  0.00    +0.142 HD
ENDBRANCH   9  12
ENDBRANCH   3   5
BRANCH   1  15
ATOM     15  C   UNL     1       0.757  -0.328  -1.218  0.00  0.00    +0.019 C 
BRANCH  15  17
ATOM     16  C   UNL     1       0.325   1.775  -0.149  0.00  0.00    -0.095 C 
ATOM     17  N   UNL     1       0.169   0.319  -0.037  0.00  0.00    +0.386 N 
ATOM     18  H   UNL     1      -0.811   0.089   0.019  0.00  0.00    -0.081 HD
BRANCH  17  19
ATOM     19  C   UNL     1       0.854  -0.156   1.173  0.00  0.00    -0.042 C 
BRANCH  19  20
ATOM     20  C   UNL     1       0.173   0.413   2.391  0.00  0.00    -0.056 A 
ATOM     21  C   UNL     1       0.575   1.626   2.917  0.00  0.00    +0.024 A 
ATOM     22  C   UNL     1      -0.060   2.109   4.015  0.00  0.00    +0.055 A 
ATOM     23  S   UNL     1      -1.266   0.832   4.336  0.00  0.00    -0.090 S 
ATOM     24  C   UNL     1      -0.847  -0.256   2.983  0.00  0.00    +0.048 A 
ATOM     25 BR   UNL     1       0.252   3.717   4.960  0.00  0.00    -0.043 Br
ENDBRANCH  19  20
ENDBRANCH  17  19
ENDBRANCH  15  17
ENDBRANCH   1  15
TORSDOF 6
