REMARK  Name = ZINC41684313
REMARK  9 active torsions:
REMARK  status: ('A' for Active; 'I' for Inactive)
REMARK    1  A    between atoms: C_1  and  C_2
REMARK    2  A    between atoms: C_2  and  C_3
REMARK    3  A    between atoms: C_3  and  C_4
REMARK    4  A    between atoms: C_4  and  C_6
REMARK    5  A    between atoms: C_4  and  C_10
REMARK    6  A    between atoms: N_7  and  O_8
REMARK    7  A    between atoms: C_14  and  C_21
REMARK    8  A    between atoms: C_17  and  C_19
REMARK    9  A    between atoms: C_17  and  C_20
REMARK                            x       y       z     vdW  Elec       q    Type
REMARK                         _______ _______ _______ _____ _____    ______ ____
ROOT
ATOM      1  C   UNL     1      -1.410  -2.223   0.198  0.00  0.00    +0.141 C 
ENDROOT
BRANCH   1   2
ATOM      2  C   UNL     1      -0.905  -2.776   1.506  0.00  0.00    +0.226 C 
ATOM      3  O   UNL     1      -1.657  -3.385   2.237  0.00  0.00    -0.275 OA
ATOM      4  N   UNL     1       0.382  -2.595   1.862  0.00  0.00    -0.296 N 
ATOM      5  C   UNL     1       1.283  -1.764   1.048  0.00  0.00    +0.139 C 
ATOM      6  C   UNL     1       1.975  -0.754   1.971  0.00  0.00    +0.133 C 
ATOM      7  O   UNL     1       2.572  -1.452   3.068  0.00  0.00    -0.368 OA
ATOM      8  C   UNL     1       1.637  -2.141   3.901  0.00  0.00    +0.080 C 
ATOM      9  C   UNL     1       0.925  -3.217   3.080  0.00  0.00    +0.142 C 
ATOM     10  C   UNL     1       2.378  -2.794   5.069  0.00  0.00    +0.043 C 
ATOM     11  C   UNL     1       0.604  -1.149   4.440  0.00  0.00    +0.043 C 
ATOM     12  C   UNL     1       3.058  -0.007   1.190  0.00  0.00    +0.039 C 
ENDBRANCH   1   2
BRANCH   1  13
ATOM     13  C   UNL     1      -1.124  -3.207  -0.907  0.00  0.00    +0.144 C 
ATOM     14  N   UNL     1      -2.030  -4.053  -1.270  0.00  0.00    -0.076 NA
ATOM     15  N   UNL     1       0.104  -3.203  -1.532  0.00  0.00    -0.343 N 
ATOM     16  H   UNL     1       0.784  -2.567  -1.260  0.00  0.00    +0.144 HD
ATOM     17  H   UNL     1       0.288  -3.836  -2.243  0.00  0.00    +0.144 HD
BRANCH  14  18
ATOM     18  O   UNL     1      -1.761  -4.978  -2.308  0.00  0.00    -0.408 OA
ATOM     19  H   UNL     1      -2.498  -5.570  -2.509  0.00  0.00    +0.328 HD
ENDBRANCH  14  18
ENDBRANCH   1  13
BRANCH   1  20
ATOM     20  C   UNL     1      -2.919  -1.988   0.292  0.00  0.00    +0.020 C 
BRANCH  20  22
ATOM     21  C   UNL     1      -4.711  -0.732   1.498  0.00  0.00    +0.004 C 
ATOM     22  C   UNL     1      -3.200  -0.883   1.313  0.00  0.00    -0.002 C 
ENDBRANCH  20  22
ENDBRANCH   1  20
TORSDOF 5
