REMARK  Name = ZINC19533515
REMARK  16 active torsions:
REMARK  status: ('A' for Active; 'I' for Inactive)
REMARK    1  A    between atoms: C_1  and  C_2
REMARK    2  A    between atoms: C_2  and  C_3
REMARK    3  A    between atoms: C_3  and  C_4
REMARK    4  A    between atoms: C_4  and  N_5
REMARK    5  A    between atoms: N_5  and  C_6
REMARK    6  A    between atoms: C_7  and  N_18
REMARK    7  A    between atoms: N_8  and  C_15
REMARK    8  A    between atoms: C_15  and  C_16
REMARK    9  A    between atoms: C_16  and  C_17
REMARK   10  A    between atoms: C_19  and  C_21
REMARK   11  A    between atoms: C_21  and  N_22
REMARK   12  A    between atoms: N_22  and  C_23
REMARK   13  A    between atoms: N_22  and  C_24
REMARK   14  A    between atoms: C_24  and  C_25
REMARK   15  A    between atoms: C_25  and  O_26
REMARK   16  A    between atoms: O_26  and  C_27
REMARK                            x       y       z     vdW  Elec       q    Type
REMARK                         _______ _______ _______ _____ _____    ______ ____
ROOT
ATOM      1  N   UNL     1       0.065  -2.848  -2.324  0.00  0.00    -0.266 N 
ATOM      2  C   UNL     1      -0.095  -2.193  -3.493  0.00  0.00    +0.203 C 
ATOM      3  O   UNL     1      -0.155  -0.982  -3.507  0.00  0.00    -0.277 OA
ENDROOT
BRANCH   1   4
ATOM      4  C   UNL     1       0.057  -2.132  -1.108  0.00  0.00    +0.140 A 
ATOM      5  C   UNL     1       1.195  -2.054  -0.332  0.00  0.00    +0.127 A 
ATOM      6  N   UNL     1       1.154  -1.354   0.851  0.00  0.00    -0.280 N 
ATOM      7  C   UNL     1       0.021  -0.743   1.242  0.00  0.00    +0.331 A 
ATOM      8  O   UNL     1       0.006  -0.125   2.289  0.00  0.00    -0.246 OA
ATOM      9  N   UNL     1      -1.096  -0.803   0.496  0.00  0.00    -0.273 N 
ATOM     10  H   UNL     1      -2.012  -0.296   0.834  0.00  0.00    +0.173 HD
ATOM     11  C   UNL     1      -1.111  -1.481  -0.669  0.00  0.00    +0.277 A 
ATOM     12  O   UNL     1      -2.130  -1.530  -1.338  0.00  0.00    -0.266 OA
BRANCH   5  13
ATOM     13  N   UNL     1       2.354  -2.673  -0.734  0.00  0.00    -0.343 N 
ATOM     14  H   UNL     1       3.258  -2.607  -0.110  0.00  0.00    +0.144 HD
ATOM     15  H   UNL     1       2.379  -3.235  -1.679  0.00  0.00    +0.144 HD
ENDBRANCH   5  13
BRANCH   6  16
ATOM     16  C   UNL     1       2.353  -1.268   1.688  0.00  0.00    +0.128 C 
BRANCH  16  17
ATOM     17  C   UNL     1       2.368  -2.433   2.680  0.00  0.00    +0.018 C 
ATOM     18  C   UNL     1       3.620  -2.343   3.554  0.00  0.00    +0.005 C 
ENDBRANCH  16  17
ENDBRANCH   6  16
ENDBRANCH   1   4
BRANCH   1  19
ATOM     19  C   UNL     1       0.248  -4.301  -2.317  0.00  0.00    +0.114 C 
BRANCH  19  20
ATOM     20  C   UNL     1      -1.120  -4.987  -2.352  0.00  0.00    +0.019 C 
BRANCH  20  22
ATOM     21  C   UNL     1      -2.297  -7.191  -2.380  0.00  0.00    +0.004 C 
ATOM     22  C   UNL     1      -0.929  -6.505  -2.345  0.00  0.00    -0.002 C 
ENDBRANCH  20  22
ENDBRANCH  19  20
ENDBRANCH   1  19
BRANCH   2  23
ATOM     23  C   UNL     1      -0.198  -2.967  -4.782  0.00  0.00    +0.019 C 
BRANCH  23  24
ATOM     24  N   UNL     1      -0.366  -2.032  -5.903  0.00  0.00    +0.386 N 
ATOM     25  C   UNL     1      -1.653  -1.329  -5.813  0.00  0.00    -0.095 C 
ATOM     26  H   UNL     1       0.435  -1.281  -5.839  0.00  0.00    -0.081 HD
BRANCH  24  27
ATOM     27  C   UNL     1      -0.233  -2.725  -7.191  0.00  0.00    -0.037 C 
BRANCH  27  28
ATOM     28  C   UNL     1      -0.164  -1.695  -8.320  0.00  0.00    +0.210 C 
BRANCH  28  29
ATOM     29  O   UNL     1       1.028  -0.918  -8.184  0.00  0.00    -0.494 OA
BRANCH  29  30
ATOM     30  C   UNL     1       1.243   0.050  -9.113  0.00  0.00    +0.120 A 
ATOM     31  C   UNL     1       0.329   0.244 -10.139  0.00  0.00    +0.047 A 
ATOM     32  C   UNL     1       0.547   1.231 -11.080  0.00  0.00    +0.023 A 
ATOM     33  C   UNL     1       1.682   2.020 -11.006  0.00  0.00    +0.041 A 
ATOM     34  C   UNL     1       2.598   1.824  -9.987  0.00  0.00    +0.023 A 
ATOM     35  C   UNL     1       2.380   0.841  -9.041  0.00  0.00    +0.047 A 
ATOM     36 CL   UNL     1       1.957   3.256 -12.194  0.00  0.00    -0.084 Cl
ENDBRANCH  29  30
ENDBRANCH  28  29
ENDBRANCH  27  28
ENDBRANCH  24  27
ENDBRANCH  23  24
ENDBRANCH   2  23
TORSDOF 13
