REMARK  Name = ZINC31194482
REMARK  12 active torsions:
REMARK  status: ('A' for Active; 'I' for Inactive)
REMARK    1  A    between atoms: C_1  and  C_2
REMARK    2  A    between atoms: C_2  and  N_3
REMARK    3  A    between atoms: N_3  and  C_4
REMARK    4  A    between atoms: N_3  and  C_6
REMARK    5  A    between atoms: C_4  and  C_5
REMARK    6  A    between atoms: C_6  and  C_8
REMARK    7  A    between atoms: C_6  and  C_25
REMARK    8  A    between atoms: C_8  and  N_9
REMARK    9  A    between atoms: N_12  and  C_13
REMARK   10  A    between atoms: C_13  and  C_14
REMARK   11  A    between atoms: N_16  and  C_17
REMARK   12  A    between atoms: C_22  and  C_23
REMARK                            x       y       z     vdW  Elec       q    Type
REMARK                         _______ _______ _______ _____ _____    ______ ____
ROOT
ATOM      1  N   UNL     1       0.574  -1.548   1.488  0.00  0.00    -0.301 N 
ATOM      2  C   UNL     1       1.245  -2.115   2.510  0.00  0.00    +0.300 C 
ATOM      3  O   UNL     1       0.673  -2.881   3.261  0.00  0.00    -0.253 OA
ATOM      4  N   UNL     1       2.550  -1.834   2.698  0.00  0.00    -0.291 N 
ATOM      5  H   UNL     1       1.030  -0.937   0.888  0.00  0.00    +0.150 HD
ATOM      6  H   UNL     1       3.006  -1.223   2.099  0.00  0.00    +0.151 HD
ENDROOT
BRANCH   1   7
ATOM      7  C   UNL     1      -0.844  -1.853   1.283  0.00  0.00    +0.095 C 
BRANCH   7   8
ATOM      8  C   UNL     1      -1.385  -1.010   0.127  0.00  0.00    -0.020 C 
BRANCH   8   9
ATOM      9  C   UNL     1      -2.772  -1.480  -0.231  0.00  0.00    -0.052 A 
ATOM     10  C   UNL     1      -2.972  -2.320  -1.310  0.00  0.00    +0.009 A 
ATOM     11  C   UNL     1      -4.232  -2.723  -1.605  0.00  0.00    +0.045 A 
ATOM     12  S   UNL     1      -5.187  -1.908  -0.335  0.00  0.00    -0.105 S 
ATOM     13  C   UNL     1      -3.841  -1.089   0.505  0.00  0.00    +0.047 A 
ENDBRANCH   8   9
BRANCH   8  14
ATOM     14  N   UNL     1      -1.435   0.401   0.531  0.00  0.00    +0.385 N 
ATOM     15  H   UNL     1      -1.917   0.481   1.414  0.00  0.00    -0.081 HD
BRANCH  14  17
ATOM     16  C   UNL     1       0.627   0.897  -0.693  0.00  0.00    -0.017 C 
ATOM     17  C   UNL     1      -0.068   0.919   0.670  0.00  0.00    -0.081 C 
ENDBRANCH  14  17
BRANCH  14  18
ATOM     18  C   UNL     1      -2.151   1.178  -0.490  0.00  0.00    -0.081 C 
ATOM     19  C   UNL     1      -2.332   2.617  -0.002  0.00  0.00    -0.017 C 
ENDBRANCH  14  18
ENDBRANCH   8  14
ENDBRANCH   7   8
ENDBRANCH   1   7
BRANCH   4  20
ATOM     20  C   UNL     1       3.279  -2.451   3.809  0.00  0.00    +0.202 C 
BRANCH  20  21
ATOM     21  C   UNL     1       4.708  -1.975   3.797  0.00  0.00    +0.234 C 
ATOM     22  O   UNL     1       5.082  -1.197   2.945  0.00  0.00    -0.274 OA
ATOM     23  N   UNL     1       5.573  -2.414   4.734  0.00  0.00    -0.284 N 
ATOM     24  H   UNL     1       5.293  -3.086   5.375  0.00  0.00    +0.155 HD
BRANCH  23  25
ATOM     25  C   UNL     1       6.873  -1.900   4.782  0.00  0.00    +0.036 A 
ATOM     26  C   UNL     1       7.472  -1.414   3.627  0.00  0.00    +0.024 A 
ATOM     27  C   UNL     1       8.756  -0.907   3.677  0.00  0.00    +0.017 A 
ATOM     28  C   UNL     1       9.445  -0.883   4.876  0.00  0.00    +0.018 A 
ATOM     29  C   UNL     1       8.851  -1.366   6.028  0.00  0.00    +0.020 A 
ATOM     30  C   UNL     1       7.566  -1.869   5.985  0.00  0.00    -0.028 A 
ATOM     31  C   UNL     1       6.917  -2.390   7.242  0.00  0.00    +0.046 C 
ATOM     32 BR   UNL     1      11.203  -0.189   4.941  0.00  0.00    -0.050 Br
ENDBRANCH  23  25
ENDBRANCH  20  21
ENDBRANCH   4  20
TORSDOF 9
