REMARK  Name = ZINC36820324
REMARK  2 active torsions:
REMARK  status: ('A' for Active; 'I' for Inactive)
REMARK    1  A    between atoms: N_12  and  C_13
REMARK    2  A    between atoms: C_13  and  C_14
REMARK                            x       y       z     vdW  Elec       q    Type
REMARK                         _______ _______ _______ _____ _____    ______ ____
ROOT
ATOM      1  C   UNL     1      -0.017   1.379   0.010  0.00  0.00    +0.000 A 
ATOM      2  C   UNL     1       1.168   2.092   0.002  0.00  0.00    +0.002 A 
ATOM      3  C   UNL     1       2.378   1.423  -0.019  0.00  0.00    +0.024 A 
ATOM      4  C   UNL     1       2.397   0.036  -0.029  0.00  0.00    +0.040 A 
ATOM      5  C   UNL     1       1.208  -0.677  -0.011  0.00  0.00    -0.026 A 
ATOM      6  C   UNL     1       0.002  -0.004   0.002  0.00  0.00    +0.005 A 
ATOM      7  C   UNL     1       1.239  -2.182   0.014  0.00  0.00    +0.037 C 
ATOM      8  C   UNL     1       1.569  -2.728  -1.377  0.00  0.00    +0.014 C 
ATOM      9  C   UNL     1       2.700  -1.905  -1.994  0.00  0.00    +0.097 C 
ATOM     10  C   UNL     1       3.773  -1.637  -0.977  0.00  0.00    +0.220 C 
ATOM     11  O   UNL     1       4.785  -2.306  -0.974  0.00  0.00    -0.275 OA
ATOM     12  N   UNL     1       3.615  -0.657  -0.068  0.00  0.00    -0.265 N 
ENDROOT
BRANCH  12  13
ATOM     13  C   UNL     1       4.695  -0.321   0.863  0.00  0.00    +0.173 C 
BRANCH  13  14
ATOM     14  C   UNL     1       4.556  -1.151   2.113  0.00  0.00    +0.108 A 
ATOM     15  C   UNL     1       3.828  -0.741   3.185  0.00  0.00    +0.123 A 
ATOM     16  S   UNL     1       4.022  -2.025   4.250  0.00  0.00    +0.049 S 
ATOM     17  N   UNL     1       4.967  -2.979   3.347  0.00  0.00    -0.109 NA
ATOM     18  N   UNL     1       5.127  -2.330   2.247  0.00  0.00    -0.143 NA
ATOM     19 CL   UNL     1       2.929   0.729   3.398  0.00  0.00    -0.072 Cl
ENDBRANCH  13  14
ENDBRANCH  12  13
TORSDOF 2
