REMARK  Name = ZINC40743065
REMARK  10 active torsions:
REMARK  status: ('A' for Active; 'I' for Inactive)
REMARK    1  A    between atoms: C_1  and  C_2
REMARK    2  A    between atoms: C_2  and  C_3
REMARK    3  A    between atoms: C_2  and  C_4
REMARK    4  A    between atoms: C_2  and  N_6
REMARK    5  A    between atoms: C_4  and  O_5
REMARK    6  A    between atoms: N_6  and  C_7
REMARK    7  A    between atoms: C_7  and  C_8
REMARK    8  A    between atoms: C_13  and  O_14
REMARK    9  A    between atoms: O_14  and  C_15
REMARK   10  A    between atoms: C_15  and  C_16
REMARK                            x       y       z     vdW  Elec       q    Type
REMARK                         _______ _______ _______ _____ _____    ______ ____
ROOT
ATOM      1  C   UNL     1       2.773  -0.455  -2.457  0.00  0.00    -0.021 A 
ATOM      2  C   UNL     1       3.623  -1.542  -2.387  0.00  0.00    +0.025 A 
ATOM      3  C   UNL     1       4.271  -1.989  -3.525  0.00  0.00    +0.041 A 
ATOM      4  C   UNL     1       4.069  -1.348  -4.735  0.00  0.00    +0.023 A 
ATOM      5  C   UNL     1       3.220  -0.261  -4.809  0.00  0.00    +0.047 A 
ATOM      6  C   UNL     1       2.565   0.185  -3.670  0.00  0.00    +0.122 A 
ATOM      7 CL   UNL     1       5.340  -3.354  -3.435  0.00  0.00    -0.084 Cl
ENDROOT
BRANCH   1   8
ATOM      8  C   UNL     1       2.068   0.031  -1.217  0.00  0.00    -0.042 C 
BRANCH   8   9
ATOM      9  N   UNL     1       0.690  -0.478  -1.207  0.00  0.00    +0.387 N 
ATOM     10  H   UNL     1       0.703  -1.487  -1.212  0.00  0.00    -0.085 HD
ATOM     11  H   UNL     1       0.202  -0.144  -2.024  0.00  0.00    -0.085 HD
BRANCH   9  13
ATOM     12  C   UNL     1      -0.019   1.526   0.010  0.00  0.00    -0.008 C 
ATOM     13  C   UNL     1       0.002  -0.004   0.002  0.00  0.00    -0.050 C 
ATOM     14  C   UNL     1       0.742  -0.511   1.242  0.00  0.00    -0.008 C 
BRANCH  13  15
ATOM     15  C   UNL     1      -1.433  -0.534   0.013  0.00  0.00    +0.143 C 
BRANCH  15  16
ATOM     16  O   UNL     1      -2.102  -0.073   1.189  0.00  0.00    -0.396 OA
ATOM     17  H   UNL     1      -3.019  -0.371   1.262  0.00  0.00    +0.209 HD
ENDBRANCH  15  16
ENDBRANCH  13  15
ENDBRANCH   9  13
ENDBRANCH   8   9
ENDBRANCH   1   8
BRANCH   6  18
ATOM     18  O   UNL     1       1.724   1.250  -3.741  0.00  0.00    -0.487 OA
BRANCH  18  19
ATOM     19  C   UNL     1       1.558   1.860  -5.023  0.00  0.00    +0.267 C 
BRANCH  19  20
ATOM     20  C   UNL     1       0.597   3.016  -4.908  0.00  0.00    +0.026 A 
ATOM     21  C   UNL     1      -0.759   2.808  -5.082  0.00  0.00    +0.049 A 
ATOM     22  C   UNL     1      -1.641   3.869  -4.976  0.00  0.00    +0.020 A 
ATOM     23  C   UNL     1      -1.166   5.137  -4.698  0.00  0.00    +0.003 A 
ATOM     24  C   UNL     1       0.189   5.345  -4.524  0.00  0.00    +0.020 A 
ATOM     25  C   UNL     1       1.071   4.284  -4.623  0.00  0.00    +0.049 A 
ATOM     26 CL   UNL     1       2.772   4.544  -4.397  0.00  0.00    -0.083 Cl
ATOM     27 CL   UNL     1      -1.356   1.216  -5.433  0.00  0.00    -0.083 Cl
ENDBRANCH  19  20
ENDBRANCH  18  19
ENDBRANCH   6  18
TORSDOF 8
