REMARK  Name = ZINC63498456
REMARK  7 active torsions:
REMARK  status: ('A' for Active; 'I' for Inactive)
REMARK    1  A    between atoms: C_3  and  C_6
REMARK    2  A    between atoms: C_6  and  N_7
REMARK    3  A    between atoms: N_11  and  C_14
REMARK    4  A    between atoms: C_14  and  C_15
REMARK    5  A    between atoms: C_15  and  C_16
REMARK    6  A    between atoms: N_18  and  C_19
REMARK    7  A    between atoms: C_22  and  C_25
REMARK                            x       y       z     vdW  Elec       q    Type
REMARK                         _______ _______ _______ _____ _____    ______ ____
ROOT
ATOM      1  C   UNL     1       6.848   5.333   4.791  0.00  0.00    +0.077 C 
ENDROOT
BRANCH   1   2
ATOM      2  C   UNL     1       8.001   5.707   5.686  0.00  0.00    +0.215 C 
ATOM      3  O   UNL     1       8.884   4.905   5.905  0.00  0.00    -0.276 OA
ATOM      4  N   UNL     1       8.052   6.933   6.244  0.00  0.00    -0.286 N 
ATOM      5  H   UNL     1       7.382   7.597   6.017  0.00  0.00    +0.155 HD
BRANCH   4   6
ATOM      6  C   UNL     1       9.066   7.247   7.147  0.00  0.00    +0.033 A 
ATOM      7  C   UNL     1      10.342   6.722   6.968  0.00  0.00    +0.024 A 
ATOM      8  C   UNL     1      11.346   7.029   7.858  0.00  0.00    +0.015 A 
ATOM      9  C   UNL     1      11.083   7.871   8.942  0.00  0.00    +0.037 A 
ATOM     10  C   UNL     1       9.801   8.398   9.119  0.00  0.00    +0.015 A 
ATOM     11  C   UNL     1       8.802   8.090   8.223  0.00  0.00    +0.024 A 
BRANCH   9  12
ATOM     12  C   UNL     1      12.157   8.203   9.899  0.00  0.00    +0.242 C 
ATOM     13  O   UNL     1      13.272   7.744   9.744  0.00  0.00    -0.270 OA
ATOM     14  N   UNL     1      11.902   9.015  10.944  0.00  0.00    -0.325 N 
ATOM     15  H   UNL     1      11.012   9.381  11.067  0.00  0.00    +0.145 HD
ATOM     16  H   UNL     1      12.607   9.233  11.572  0.00  0.00    +0.145 HD
ENDBRANCH   9  12
ENDBRANCH   4   6
ENDBRANCH   1   2
BRANCH   1  17
ATOM     17  C   UNL     1       7.032   3.898   4.294  0.00  0.00    -0.070 C 
BRANCH  17  22
ATOM     18  N   UNL     1       4.247   2.011   1.340  0.00  0.00    -0.299 NA
ATOM     19  C   UNL     1       3.443   3.030   2.057  0.00  0.00    +0.083 C 
ATOM     20  C   UNL     1       3.525   2.748   3.536  0.00  0.00    -0.003 C 
ATOM     21  C   UNL     1       4.663   3.520   4.223  0.00  0.00    -0.078 C 
ATOM     22  N   UNL     1       5.908   3.534   3.422  0.00  0.00    +0.381 N 
ATOM     23  C   UNL     1       6.182   2.251   2.816  0.00  0.00    -0.063 C 
ATOM     24  C   UNL     1       5.623   2.259   1.381  0.00  0.00    +0.066 C 
ATOM     25  H   UNL     1       5.822   4.228   2.695  0.00  0.00    -0.082 HD
BRANCH  18  26
ATOM     26  C   UNL     1       3.782   1.852  -0.044  0.00  0.00    +0.126 C 
BRANCH  26  29
ATOM     27  C   UNL     1       0.003   1.374  -0.035  0.00  0.00    +0.008 A 
ATOM     28  C   UNL     1       1.205   2.056  -0.036  0.00  0.00    +0.012 A 
ATOM     29  C   UNL     1       2.361   1.349  -0.042  0.00  0.00    +0.004 A 
ATOM     30  S   UNL     1       1.765  -0.334  -0.046  0.00  0.00    -0.100 S 
ATOM     31  C   UNL     1       0.015   0.019  -0.040  0.00  0.00    +0.045 A 
ENDBRANCH  26  29
ENDBRANCH  18  26
ENDBRANCH  17  22
ENDBRANCH   1  17
TORSDOF 7
