REMARK  Name = ZINC59165355
REMARK  5 active torsions:
REMARK  status: ('A' for Active; 'I' for Inactive)
REMARK    1  A    between atoms: C_4  and  C_20
REMARK    2  A    between atoms: C_5  and  C_7
REMARK    3  A    between atoms: N_8  and  N_9
REMARK    4  A    between atoms: N_9  and  S_10
REMARK    5  A    between atoms: S_10  and  C_13
REMARK                            x       y       z     vdW  Elec       q    Type
REMARK                         _______ _______ _______ _____ _____    ______ ____
ROOT
ATOM      1  N   UNL     1       1.881  -4.284   0.177  0.00  0.00    -0.137 N 
ATOM      2  H   UNL     1       1.004  -4.695   0.119  0.00  0.00    +0.197 HD
ENDROOT
BRANCH   1   3
ATOM      3  S   UNL     1       3.232  -5.232   0.308  0.00  0.00    +0.086 S 
ATOM      4  O   UNL     1       2.777  -6.571   0.453  0.00  0.00    -0.149 OA
ATOM      5  O   UNL     1       4.110  -4.835  -0.736  0.00  0.00    -0.149 OA
BRANCH   3   6
ATOM      6  C   UNL     1       4.025  -4.804   1.822  0.00  0.00    +0.110 A 
ATOM      7  C   UNL     1       4.972  -3.797   1.845  0.00  0.00    +0.031 A 
ATOM      8  C   UNL     1       5.594  -3.460   3.033  0.00  0.00    +0.040 A 
ATOM      9  C   UNL     1       5.268  -4.130   4.199  0.00  0.00    +0.124 A 
ATOM     10  C   UNL     1       4.319  -5.138   4.175  0.00  0.00    +0.040 A 
ATOM     11  C   UNL     1       3.695  -5.470   2.988  0.00  0.00    +0.031 A 
ATOM     12  F   UNL     1       5.875  -3.801   5.360  0.00  0.00    -0.205 F 
ENDBRANCH   3   6
ENDBRANCH   1   3
BRANCH   1  14
ATOM     13  C   UNL     1       0.943  -2.145   0.048  0.00  0.00    +0.140 C 
ATOM     14  N   UNL     1       2.004  -2.889   0.151  0.00  0.00    -0.174 NA
BRANCH  13  19
ATOM     15  C   UNL     1       2.450   1.288  -0.044  0.00  0.00    +0.001 A 
ATOM     16  C   UNL     1       1.319   2.089  -0.030  0.00  0.00    +0.001 A 
ATOM     17  C   UNL     1       0.062   1.526   0.010  0.00  0.00    +0.016 A 
ATOM     18  C   UNL     1      -0.079   0.136   0.036  0.00  0.00    +0.072 A 
ATOM     19  C   UNL     1       1.073  -0.680   0.021  0.00  0.00    +0.009 A 
ATOM     20  C   UNL     1       2.336  -0.086  -0.019  0.00  0.00    +0.010 A 
BRANCH  18  21
ATOM     21  C   UNL     1      -1.418  -0.472   0.079  0.00  0.00    +0.387 C 
ATOM     22  O   UNL     1      -2.407   0.235   0.209  0.00  0.00    -0.241 OA
ATOM     23  O   UNL     1      -1.542  -1.686  -0.016  0.00  0.00    -0.241 OA
ENDBRANCH  18  21
ENDBRANCH  13  19
ENDBRANCH   1  14
TORSDOF 5
