REMARK  Name = ZINC46427603
REMARK  11 active torsions:
REMARK  status: ('A' for Active; 'I' for Inactive)
REMARK    1  A    between atoms: C_1  and  C_2
REMARK    2  A    between atoms: C_5  and  C_31
REMARK    3  A    between atoms: N_8  and  C_10
REMARK    4  A    between atoms: C_10  and  C_11
REMARK    5  A    between atoms: C_11  and  C_12
REMARK    6  A    between atoms: C_12  and  N_13
REMARK    7  A    between atoms: N_16  and  N_17
REMARK    8  A    between atoms: C_18  and  C_20
REMARK    9  A    between atoms: C_20  and  C_22
REMARK   10  A    between atoms: C_20  and  O_23
REMARK   11  A    between atoms: O_23  and  C_24
REMARK                            x       y       z     vdW  Elec       q    Type
REMARK                         _______ _______ _______ _____ _____    ______ ____
ROOT
ATOM      1  N   UNL     1       4.166   0.703   5.129  0.00  0.00    -0.298 N 
ATOM      2  C   UNL     1       4.977   0.629   6.203  0.00  0.00    +0.316 C 
ATOM      3  O   UNL     1       4.614   0.036   7.200  0.00  0.00    -0.251 OA
ATOM      4  N   UNL     1       6.191   1.213   6.172  0.00  0.00    -0.218 N 
ATOM      5  H   UNL     1       4.456   1.177   4.334  0.00  0.00    +0.150 HD
ATOM      6  H   UNL     1       6.775   1.160   6.944  0.00  0.00    +0.174 HD
ENDROOT
BRANCH   4   7
ATOM      7  N   UNL     1       6.610   1.897   5.023  0.00  0.00    -0.230 N 
ATOM      8  C   UNL     1       7.825   2.482   4.992  0.00  0.00    +0.270 C 
ATOM      9  O   UNL     1       8.555   2.415   5.958  0.00  0.00    -0.270 OA
ATOM     10  H   UNL     1       6.027   1.951   4.250  0.00  0.00    +0.173 HD
BRANCH   8  11
ATOM     11  C   UNL     1       8.275   3.217   3.756  0.00  0.00    +0.257 C 
ATOM     12  C   UNL     1       7.380   4.438   3.534  0.00  0.00    +0.062 C 
BRANCH  11  13
ATOM     13  O   UNL     1       9.629   3.644   3.923  0.00  0.00    -0.477 OA
BRANCH  13  14
ATOM     14  C   UNL     1      10.357   3.843   2.792  0.00  0.00    +0.157 A 
ATOM     15  C   UNL     1       9.751   3.742   1.549  0.00  0.00    +0.048 A 
ATOM     16  C   UNL     1      10.493   3.945   0.401  0.00  0.00    +0.004 A 
ATOM     17  C   UNL     1      11.839   4.249   0.490  0.00  0.00    +0.003 A 
ATOM     18  C   UNL     1      12.447   4.350   1.727  0.00  0.00    +0.042 A 
ATOM     19  C   UNL     1      11.708   4.154   2.880  0.00  0.00    +0.165 A 
ATOM     20  F   UNL     1      12.300   4.259   4.090  0.00  0.00    -0.202 F 
ENDBRANCH  13  14
ENDBRANCH  11  13
ENDBRANCH   8  11
ENDBRANCH   4   7
BRANCH   1  21
ATOM     21  C   UNL     1       2.846   0.068   5.163  0.00  0.00    +0.104 C 
BRANCH  21  22
ATOM     22  C   UNL     1       2.135   0.300   3.829  0.00  0.00    +0.000 C 
BRANCH  22  23
ATOM     23  C   UNL     1       0.756  -0.363   3.864  0.00  0.00    -0.077 C 
BRANCH  23  29
ATOM     24  C   UNL     1       0.158   0.984  -0.090  0.00  0.00    +0.005 C 
ATOM     25  C   UNL     1       0.150  -0.525   0.164  0.00  0.00    -0.031 C 
ATOM     26  C   UNL     1      -1.295  -1.032   0.189  0.00  0.00    +0.003 C 
ATOM     27  C   UNL     1      -2.036  -0.373   1.356  0.00  0.00    -0.031 C 
ATOM     28  C   UNL     1      -1.293  -0.673   2.660  0.00  0.00    -0.076 C 
ATOM     29  N   UNL     1       0.073  -0.141   2.583  0.00  0.00    +0.380 N 
ATOM     30  C   UNL     1       0.813  -0.820   1.511  0.00  0.00    -0.076 C 
ATOM     31  C   UNL     1      -3.459  -0.930   1.438  0.00  0.00    +0.005 C 
ATOM     32  H   UNL     1       0.037   0.848   2.390  0.00  0.00    -0.082 HD
ENDBRANCH  23  29
ENDBRANCH  22  23
ENDBRANCH  21  22
ENDBRANCH   1  21
TORSDOF 8
