REMARK  Name = ZINC21686564
REMARK  7 active torsions:
REMARK  status: ('A' for Active; 'I' for Inactive)
REMARK    1  A    between atoms: C_1  and  C_2
REMARK    2  A    between atoms: C_4  and  C_34
REMARK    3  A    between atoms: C_12  and  N_17
REMARK    4  A    between atoms: C_14  and  C_16
REMARK    5  A    between atoms: C_18  and  C_20
REMARK    6  A    between atoms: N_23  and  S_26
REMARK    7  A    between atoms: S_26  and  C_29
REMARK                            x       y       z     vdW  Elec       q    Type
REMARK                         _______ _______ _______ _____ _____    ______ ____
ROOT
ATOM      1  N   UNL     1      -1.071   6.127   2.360  0.00  0.00    -0.270 N 
ATOM      2  C   UNL     1      -0.049   5.258   2.229  0.00  0.00    +0.221 C 
ATOM      3  O   UNL     1       0.868   5.276   3.022  0.00  0.00    -0.275 OA
ATOM      4  H   UNL     1      -1.903   6.110   1.641  0.00  0.00    +0.156 HD
ENDROOT
BRANCH   1  16
ATOM      5  C   UNL     1      -8.483   9.060  -0.542  0.00  0.00    +0.044 C 
ATOM      6  C   UNL     1      -7.345   9.084   0.446  0.00  0.00    -0.049 A 
ATOM      7  C   UNL     1      -7.343   9.996   1.492  0.00  0.00    +0.009 A 
ATOM      8  C   UNL     1      -6.322  10.040   2.403  0.00  0.00    -0.024 A 
ATOM      9  C   UNL     1      -5.228   9.147   2.306  0.00  0.00    +0.083 A 
ATOM     10  C   UNL     1      -5.264   8.232   1.229  0.00  0.00    +0.042 A 
ATOM     11  C   UNL     1      -6.292   8.197   0.320  0.00  0.00    +0.020 A 
ATOM     12  S   UNL     1      -3.752   7.326   1.454  0.00  0.00    -0.048 S 
ATOM     13  C   UNL     1      -3.193   8.182   2.920  0.00  0.00    +0.196 A 
ATOM     14  N   UNL     1      -4.150   9.058   3.114  0.00  0.00    -0.221 NA
ATOM     15  N   UNL     1      -2.036   7.977   3.662  0.00  0.00    -0.194 N 
ATOM     16  C   UNL     1      -1.074   7.045   3.408  0.00  0.00    +0.131 A 
ATOM     17  C   UNL     1      -0.119   7.174   4.369  0.00  0.00    +0.068 A 
ATOM     18  C   UNL     1      -0.505   8.213   5.221  0.00  0.00    +0.062 A 
ATOM     19  N   UNL     1      -1.649   8.691   4.803  0.00  0.00    -0.168 NA
ATOM     20  C   UNL     1       0.264   8.697   6.424  0.00  0.00    +0.067 C 
ATOM     21  C   UNL     1      -6.363  11.048   3.522  0.00  0.00    +0.046 C 
ENDBRANCH   1  16
BRANCH   2  22
ATOM     22  C   UNL     1      -0.046   4.264   1.096  0.00  0.00    +0.078 C 
ATOM     23  C   UNL     1       1.217   3.403   1.176  0.00  0.00    +0.030 C 
ATOM     24  C   UNL     1       1.234   2.417   0.003  0.00  0.00    +0.110 C 
ATOM     25  N   UNL     1      -0.020   1.652   0.011  0.00  0.00    -0.176 NA
ATOM     26  C   UNL     1      -1.295   2.383   0.021  0.00  0.00    +0.110 C 
ATOM     27  C   UNL     1      -1.283   3.369   1.199  0.00  0.00    +0.030 C 
BRANCH  25  28
ATOM     28  S   UNL     1       0.002  -0.004   0.002  0.00  0.00    +0.067 S 
ATOM     29  O   UNL     1      -1.243  -0.424  -0.539  0.00  0.00    -0.152 OA
ATOM     30  O   UNL     1       1.248  -0.390  -0.563  0.00  0.00    -0.152 OA
BRANCH  28  31
ATOM     31  C   UNL     1       0.025  -0.534   1.682  0.00  0.00    +0.143 A 
ATOM     32  C   UNL     1      -1.016  -0.800   2.508  0.00  0.00    +0.036 A 
ATOM     33  C   UNL     1      -0.758  -1.211   3.802  0.00  0.00    +0.010 A 
ATOM     34  C   UNL     1       0.529  -1.326   4.211  0.00  0.00    +0.047 A 
ATOM     35  S   UNL     1       1.427  -0.853   2.741  0.00  0.00    -0.077 S 
ENDBRANCH  28  31
ENDBRANCH  25  28
ENDBRANCH   2  22
TORSDOF 4
