REMARK  Name = ZINC34909544
REMARK  12 active torsions:
REMARK  status: ('A' for Active; 'I' for Inactive)
REMARK    1  A    between atoms: C_1  and  C_2
REMARK    2  A    between atoms: C_3  and  C_26
REMARK    3  A    between atoms: C_4  and  C_16
REMARK    4  A    between atoms: C_6  and  C_10
REMARK    5  A    between atoms: C_7  and  C_9
REMARK    6  A    between atoms: C_10  and  O_12
REMARK    7  A    between atoms: O_12  and  C_13
REMARK    8  A    between atoms: C_13  and  C_14
REMARK    9  A    between atoms: C_14  and  N_15
REMARK   10  A    between atoms: C_21  and  C_22
REMARK   11  A    between atoms: C_26  and  O_28
REMARK   12  A    between atoms: O_28  and  C_29
REMARK                            x       y       z     vdW  Elec       q    Type
REMARK                         _______ _______ _______ _____ _____    ______ ____
ROOT
ATOM      1  C   UNL     1       0.688   0.752  -0.028  0.00  0.00    +0.061 C 
ATOM      2  C   UNL     1       0.215  -0.675  -0.124  0.00  0.00    +0.016 C 
ATOM      3  C   UNL     1      -1.103  -0.938  -0.146  0.00  0.00    +0.065 C 
ATOM      4  C   UNL     1      -1.620  -2.346  -0.232  0.00  0.00    +0.096 C 
ATOM      5  C   UNL     1      -0.534  -3.285  -0.674  0.00  0.00    +0.065 C 
ATOM      6  C   UNL     1       0.761  -2.929  -0.631  0.00  0.00    +0.016 C 
ATOM      7  N   UNL     1       1.133  -1.688  -0.194  0.00  0.00    -0.321 N 
ATOM      8  C   UNL     1       1.818  -3.907  -1.075  0.00  0.00    +0.061 C 
ATOM      9  H   UNL     1       2.051  -1.526   0.072  0.00  0.00    +0.152 HD
ENDROOT
BRANCH   4  10
ATOM     10  C   UNL     1      -2.124  -2.773   1.123  0.00  0.00    -0.023 A 
ATOM     11  C   UNL     1      -1.309  -2.650   2.233  0.00  0.00    +0.005 A 
ATOM     12  C   UNL     1      -1.771  -3.042   3.476  0.00  0.00    +0.000 A 
ATOM     13  C   UNL     1      -3.048  -3.557   3.608  0.00  0.00    +0.001 A 
ATOM     14  C   UNL     1      -3.862  -3.679   2.498  0.00  0.00    +0.012 A 
ATOM     15  C   UNL     1      -3.401  -3.283   1.256  0.00  0.00    +0.059 A 
BRANCH  15  16
ATOM     16  C   UNL     1      -4.291  -3.411   0.046  0.00  0.00    +0.418 C 
ATOM     17  F   UNL     1      -5.477  -4.059   0.407  0.00  0.00    -0.166 F 
ATOM     18  F   UNL     1      -4.588  -2.138  -0.451  0.00  0.00    -0.166 F 
ATOM     19  F   UNL     1      -3.634  -4.155  -0.939  0.00  0.00    -0.166 F 
ENDBRANCH  15  16
ENDBRANCH   4  10
BRANCH   5  20
ATOM     20  C   UNL     1      -0.882  -4.572  -1.144  0.00  0.00    +0.337 C 
ATOM     21  O   UNL     1      -1.279  -4.716  -2.286  0.00  0.00    -0.245 OA
BRANCH  20  22
ATOM     22  O   UNL     1      -0.774  -5.642  -0.328  0.00  0.00    -0.463 OA
BRANCH  22  23
ATOM     23  C   UNL     1      -1.198  -6.902  -0.850  0.00  0.00    +0.213 C 
BRANCH  23  24
ATOM     24  C   UNL     1      -1.106  -7.966   0.246  0.00  0.00    -0.045 C 
BRANCH  24  25
ATOM     25  N   UNL     1      -2.044  -7.637   1.327  0.00  0.00    +0.380 N 
ATOM     26  H   UNL     1      -1.853  -6.707   1.668  0.00  0.00    -0.090 HD
ATOM     27  H   UNL     1      -2.989  -7.679   0.977  0.00  0.00    -0.090 HD
ATOM     28  H   UNL     1      -1.935  -8.300   2.080  0.00  0.00    -0.090 HD
ENDBRANCH  24  25
ENDBRANCH  23  24
ENDBRANCH  22  23
ENDBRANCH  20  22
ENDBRANCH   5  20
BRANCH   3  29
ATOM     29  C   UNL     1      -2.023   0.134  -0.086  0.00  0.00    +0.337 C 
ATOM     30  O   UNL     1      -1.619   1.280  -0.016  0.00  0.00    -0.245 OA
BRANCH  29  31
ATOM     31  O   UNL     1      -3.350  -0.113  -0.107  0.00  0.00    -0.465 OA
ATOM     32  C   UNL     1      -4.221   1.018  -0.043  0.00  0.00    +0.280 C 
ENDBRANCH  29  31
ENDBRANCH   3  29
TORSDOF 9
