REMARK  Name = ZINC40476398
REMARK  15 active torsions:
REMARK  status: ('A' for Active; 'I' for Inactive)
REMARK    1  A    between atoms: C_1  and  C_2
REMARK    2  A    between atoms: C_2  and  C_3
REMARK    3  A    between atoms: C_3  and  C_4
REMARK    4  A    between atoms: C_4  and  C_5
REMARK    5  A    between atoms: C_5  and  S_6
REMARK    6  A    between atoms: S_6  and  C_7
REMARK    7  A    between atoms: C_18  and  C_20
REMARK    8  A    between atoms: C_22  and  O_30
REMARK    9  A    between atoms: C_23  and  O_28
REMARK   10  A    between atoms: C_24  and  O_26
REMARK   11  A    between atoms: O_26  and  C_27
REMARK   12  A    between atoms: O_28  and  C_29
REMARK   13  A    between atoms: O_30  and  C_31
REMARK   14  A    between atoms: C_35  and  C_37
REMARK   15  A    between atoms: C_35  and  C_38
REMARK                            x       y       z     vdW  Elec       q    Type
REMARK                         _______ _______ _______ _____ _____    ______ ____
ROOT
ATOM      1  C   UNL     1      -4.527  -4.856   0.019  0.00  0.00    +0.171 A 
ATOM      2  N   UNL     1      -4.869  -6.175   0.021  0.00  0.00    -0.302 N 
ATOM      3  H   UNL     1      -4.177  -6.855   0.017  0.00  0.00    +0.171 HD
ATOM      4  C   UNL     1      -6.169  -6.538   0.029  0.00  0.00    +0.258 A 
ATOM      5  O   UNL     1      -6.486  -7.717   0.028  0.00  0.00    -0.267 OA
ATOM      6  C   UNL     1      -7.147  -5.537   0.038  0.00  0.00    +0.069 A 
ATOM      7  C   UNL     1      -6.747  -4.212   0.039  0.00  0.00    +0.135 A 
ATOM      8  N   UNL     1      -5.444  -3.910   0.033  0.00  0.00    -0.208 NA
ATOM      9  N   UNL     1      -7.697  -3.210   0.056  0.00  0.00    -0.302 N 
ATOM     10  C   UNL     1      -8.979  -3.471   0.456  0.00  0.00    +0.017 C 
ATOM     11  C   UNL     1      -9.456  -4.734   0.475  0.00  0.00    +0.024 C 
ATOM     12  C   UNL     1      -8.603  -5.899   0.043  0.00  0.00    +0.093 C 
ATOM     13  C   UNL     1     -10.769  -5.005   0.901  0.00  0.00    +0.162 C 
ATOM     14  O   UNL     1     -11.171  -6.152   0.898  0.00  0.00    -0.292 OA
ATOM     15  C   UNL     1     -11.685  -3.904   1.359  0.00  0.00    +0.086 C 
ATOM     16  C   UNL     1     -10.843  -2.763   1.939  0.00  0.00    -0.023 C 
ATOM     17  C   UNL     1      -9.846  -2.307   0.871  0.00  0.00    +0.058 C 
ATOM     18  C   UNL     1     -11.754  -1.595   2.324  0.00  0.00    +0.011 C 
ATOM     19  C   UNL     1     -10.085  -3.258   3.172  0.00  0.00    +0.011 C 
ATOM     20  H   UNL     1      -7.453  -2.312  -0.218  0.00  0.00    +0.153 HD
ENDROOT
BRANCH  12  21
ATOM     21  C   UNL     1      -9.011  -6.320  -1.345  0.00  0.00    -0.028 A 
ATOM     22  C   UNL     1      -8.878  -5.438  -2.401  0.00  0.00    +0.054 A 
ATOM     23  C   UNL     1      -9.252  -5.822  -3.680  0.00  0.00    +0.165 A 
ATOM     24  C   UNL     1      -9.761  -7.096  -3.899  0.00  0.00    +0.204 A 
ATOM     25  C   UNL     1      -9.893  -7.981  -2.835  0.00  0.00    +0.165 A 
ATOM     26  C   UNL     1      -9.511  -7.591  -1.560  0.00  0.00    +0.054 A 
BRANCH  25  27
ATOM     27  O   UNL     1     -10.390  -9.229  -3.045  0.00  0.00    -0.491 OA
ATOM     28  C   UNL     1     -10.498 -10.085  -1.905  0.00  0.00    +0.277 C 
ENDBRANCH  25  27
BRANCH  24  29
ATOM     29  O   UNL     1     -10.131  -7.477  -5.152  0.00  0.00    -0.488 OA
ATOM     30  C   UNL     1      -9.129  -8.092  -5.965  0.00  0.00    +0.277 C 
ENDBRANCH  24  29
BRANCH  23  31
ATOM     31  O   UNL     1      -9.122  -4.953  -4.717  0.00  0.00    -0.491 OA
ATOM     32  C   UNL     1      -8.592  -3.660  -4.418  0.00  0.00    +0.277 C 
ENDBRANCH  23  31
ENDBRANCH  12  21
BRANCH   1  33
ATOM     33  S   UNL     1      -2.823  -4.407   0.005  0.00  0.00    -0.088 S 
BRANCH  33  34
ATOM     34  C   UNL     1      -2.848  -2.593   0.015  0.00  0.00    +0.077 C 
BRANCH  34  35
ATOM     35  C   UNL     1      -1.413  -2.063   0.004  0.00  0.00    +0.011 C 
BRANCH  35  36
ATOM     36  C   UNL     1      -1.433  -0.534   0.013  0.00  0.00    +0.001 C 
BRANCH  36  38
ATOM     37  C   UNL     1      -0.019   1.526   0.010  0.00  0.00    +0.004 C 
ATOM     38  C   UNL     1       0.002  -0.004   0.002  0.00  0.00    -0.003 C 
ENDBRANCH  36  38
ENDBRANCH  35  36
ENDBRANCH  34  35
ENDBRANCH  33  34
ENDBRANCH   1  33
TORSDOF 9
