REMARK  Name = ZINC67130496
REMARK  8 active torsions:
REMARK  status: ('A' for Active; 'I' for Inactive)
REMARK    1  A    between atoms: C_1  and  C_2
REMARK    2  A    between atoms: C_2  and  C_4
REMARK    3  A    between atoms: C_2  and  N_12
REMARK    4  A    between atoms: C_13  and  C_15
REMARK    5  A    between atoms: C_15  and  C_16
REMARK    6  A    between atoms: C_16  and  C_17
REMARK    7  A    between atoms: C_17  and  C_18
REMARK    8  A    between atoms: C_18  and  C_19
REMARK                            x       y       z     vdW  Elec       q    Type
REMARK                         _______ _______ _______ _____ _____    ______ ____
ROOT
ATOM      1  C   UNL     1      -3.442  -1.177   1.191  0.00  0.00    +0.096 C 
ENDROOT
BRANCH   1   3
ATOM      2  N   UNL     1      -1.372  -0.511   0.012  0.00  0.00    -0.309 N 
ATOM      3  C   UNL     1      -2.029  -0.655   1.181  0.00  0.00    +0.213 C 
ATOM      4  O   UNL     1      -1.481  -0.365   2.224  0.00  0.00    -0.276 OA
ATOM      5  H   UNL     1      -1.810  -0.743  -0.822  0.00  0.00    +0.149 HD
BRANCH   2   7
ATOM      6  C   UNL     1      -0.019   1.526   0.010  0.00  0.00    +0.033 C 
ATOM      7  C   UNL     1       0.002  -0.004   0.002  0.00  0.00    +0.103 C 
BRANCH   7   8
ATOM      8  C   UNL     1       0.707  -0.490  -1.238  0.00  0.00    +0.008 A 
ATOM      9  C   UNL     1      -0.023  -0.817  -2.365  0.00  0.00    +0.011 A 
ATOM     10  C   UNL     1       0.623  -1.262  -3.503  0.00  0.00    +0.039 A 
ATOM     11  C   UNL     1       2.002  -1.382  -3.515  0.00  0.00    +0.126 A 
ATOM     12  C   UNL     1       2.735  -1.055  -2.387  0.00  0.00    +0.077 A 
ATOM     13  C   UNL     1       2.087  -0.603  -1.250  0.00  0.00    +0.131 A 
ATOM     14  F   UNL     1       2.801  -0.278  -0.150  0.00  0.00    -0.205 F 
ATOM     15  F   UNL     1       2.633  -1.818  -4.627  0.00  0.00    -0.205 F 
ENDBRANCH   7   8
ENDBRANCH   2   7
ENDBRANCH   1   3
BRANCH   1  16
ATOM     16  C   UNL     1      -3.951  -1.243   2.633  0.00  0.00    +0.009 C 
BRANCH  16  17
ATOM     17  C   UNL     1      -5.386  -1.773   2.644  0.00  0.00    +0.002 C 
BRANCH  17  18
ATOM     18  C   UNL     1      -5.894  -1.839   4.085  0.00  0.00    +0.016 C 
BRANCH  18  19
ATOM     19  C   UNL     1      -7.330  -2.369   4.096  0.00  0.00    +0.069 C 
ATOM     20  C   UNL     1      -7.881  -2.419   5.498  0.00  0.00    +0.108 C 
ATOM     21  C   UNL     1      -8.981  -3.524   5.560  0.00  0.00    +0.105 C 
ATOM     22  C   UNL     1      -8.279  -4.817   5.152  0.00  0.00    +0.093 C 
ATOM     23  S   UNL     1      -7.385  -4.165   3.642  0.00  0.00    -0.154 S 
ATOM     24  N   UNL     1      -9.448  -3.313   6.912  0.00  0.00    -0.294 N 
ATOM     25  C   UNL     1      -9.314  -1.971   7.138  0.00  0.00    +0.300 C 
ATOM     26  O   UNL     1      -9.833  -1.390   8.072  0.00  0.00    -0.253 OA
ATOM     27  N   UNL     1      -8.549  -1.359   6.194  0.00  0.00    -0.294 N 
ATOM     28  H   UNL     1      -9.785  -3.981   7.528  0.00  0.00    +0.151 HD
ATOM     29  H   UNL     1      -8.470  -0.406   6.033  0.00  0.00    +0.151 HD
ENDBRANCH  18  19
ENDBRANCH  17  18
ENDBRANCH  16  17
ENDBRANCH   1  16
TORSDOF 7
