REMARK  Name = ZINC63676502
REMARK  6 active torsions:
REMARK  status: ('A' for Active; 'I' for Inactive)
REMARK    1  A    between atoms: C_1  and  C_2
REMARK    2  A    between atoms: C_4  and  C_13
REMARK    3  A    between atoms: C_13  and  C_14
REMARK    4  A    between atoms: C_14  and  N_15
REMARK    5  A    between atoms: N_18  and  S_19
REMARK    6  A    between atoms: S_19  and  C_22
REMARK                            x       y       z     vdW  Elec       q    Type
REMARK                         _______ _______ _______ _____ _____    ______ ____
ROOT
ATOM      1  N   UNL     1       0.998  -0.730  -4.977  0.00  0.00    -0.355 N 
ATOM      2  C   UNL     1       1.766  -1.260  -5.987  0.00  0.00    +0.215 C 
ATOM      3  N   UNL     1       2.878  -2.010  -5.683  0.00  0.00    -0.369 N 
ATOM      4  N   UNL     1       1.440  -1.053  -7.231  0.00  0.00    -0.093 NA
ATOM      5  H   UNL     1       0.213  -0.201  -5.192  0.00  0.00    +0.163 HD
ATOM      6  H   UNL     1       3.120  -2.164  -4.756  0.00  0.00    +0.159 HD
ATOM      7  H   UNL     1       3.420  -2.384  -6.395  0.00  0.00    +0.159 HD
ENDROOT
BRANCH   4   8
ATOM      8  S   UNL     1       2.365  -1.692  -8.447  0.00  0.00    +0.102 S 
ATOM      9  O   UNL     1       3.627  -1.041  -8.382  0.00  0.00    -0.146 OA
ATOM     10  O   UNL     1       2.231  -3.103  -8.360  0.00  0.00    -0.146 OA
BRANCH   8  11
ATOM     11  C   UNL     1       1.627  -1.208  -9.972  0.00  0.00    +0.113 A 
ATOM     12  C   UNL     1       0.663  -2.008 -10.557  0.00  0.00    +0.032 A 
ATOM     13  C   UNL     1       0.083  -1.629 -11.753  0.00  0.00    +0.040 A 
ATOM     14  C   UNL     1       0.469  -0.449 -12.366  0.00  0.00    +0.124 A 
ATOM     15  C   UNL     1       1.435   0.351 -11.780  0.00  0.00    +0.040 A 
ATOM     16  C   UNL     1       2.009  -0.027 -10.581  0.00  0.00    +0.032 A 
ATOM     17  F   UNL     1      -0.097  -0.079 -13.536  0.00  0.00    -0.205 F 
ENDBRANCH   8  11
ENDBRANCH   4   8
BRANCH   1  18
ATOM     18  C   UNL     1       1.364  -0.963  -3.578  0.00  0.00    +0.120 C 
BRANCH  18  19
ATOM     19  C   UNL     1       0.352  -0.269  -2.664  0.00  0.00    +0.054 C 
BRANCH  19  22
ATOM     20  C   UNL     1      -0.019   1.526   0.010  0.00  0.00    +0.035 C 
ATOM     21  C   UNL     1       0.002  -0.004   0.002  0.00  0.00    +0.103 C 
ATOM     22  C   UNL     1       0.729  -0.509  -1.224  0.00  0.00    -0.037 C 
ATOM     23  C   UNL     1       1.785  -1.220  -0.768  0.00  0.00    +0.002 A 
ATOM     24  C   UNL     1       2.858  -1.954  -1.449  0.00  0.00    +0.048 A 
ATOM     25  C   UNL     1       3.798  -2.583  -0.705  0.00  0.00    +0.124 A 
ATOM     26  C   UNL     1       3.771  -2.550   0.698  0.00  0.00    +0.040 A 
ATOM     27  C   UNL     1       2.817  -1.897   1.393  0.00  0.00    +0.029 A 
ATOM     28  C   UNL     1       1.780  -1.201   0.712  0.00  0.00    +0.043 A 
ATOM     29  N   UNL     1       0.758  -0.506   1.155  0.00  0.00    -0.378 N 
ATOM     30  F   UNL     1       4.787  -3.260  -1.329  0.00  0.00    -0.205 F 
ATOM     31  H   UNL     1       0.540  -0.349   2.087  0.00  0.00    +0.160 HD
ENDBRANCH  19  22
ENDBRANCH  18  19
ENDBRANCH   1  18
TORSDOF 5
