REMARK  Name = ZINC05349177
REMARK  6 active torsions:
REMARK  status: ('A' for Active; 'I' for Inactive)
REMARK    1  A    between atoms: C_1  and  C_2
REMARK    2  A    between atoms: C_2  and  C_3
REMARK    3  A    between atoms: C_2  and  C_4
REMARK    4  A    between atoms: C_2  and  N_5
REMARK    5  A    between atoms: C_10  and  C_27
REMARK    6  A    between atoms: C_27  and  C_28
REMARK                            x       y       z     vdW  Elec       q    Type
REMARK                         _______ _______ _______ _____ _____    ______ ____
ROOT
ATOM      1  N   UNL     1       5.098  -0.431   1.277  0.00  0.00    -0.236 N 
ATOM      2  C   UNL     1       4.341  -1.419   0.785  0.00  0.00    +0.224 C 
ATOM      3  O   UNL     1       4.742  -2.518   0.469  0.00  0.00    -0.275 OA
ATOM      4  C   UNL     1       2.907  -0.950   0.685  0.00  0.00    +0.073 C 
ATOM      5  C   UNL     1       2.514  -0.824  -0.802  0.00  0.00    -0.049 C 
ATOM      6  C   UNL     1       2.617   1.372  -0.014  0.00  0.00    +0.050 C 
ATOM      7  C   UNL     1       2.970   0.513   1.206  0.00  0.00    +0.088 C 
ATOM      8  C   UNL     1       4.431   0.696   1.551  0.00  0.00    +0.225 C 
ATOM      9  O   UNL     1       4.922   1.708   2.004  0.00  0.00    -0.275 OA
ATOM     10  C   UNL     1       1.171   1.780   0.000  0.00  0.00    -0.026 A 
ATOM     11  C   UNL     1      -0.013   1.076   0.008  0.00  0.00    +0.004 A 
ATOM     12  C   UNL     1      -1.220   1.751   0.017  0.00  0.00    +0.002 A 
ATOM     13  C   UNL     1      -1.236   3.134   0.030  0.00  0.00    +0.022 A 
ATOM     14  C   UNL     1      -0.052   3.844   0.022  0.00  0.00    +0.062 A 
ATOM     15  C   UNL     1       1.169   3.171   0.006  0.00  0.00    +0.054 A 
ATOM     16  N   UNL     1       2.479   3.657  -0.006  0.00  0.00    -0.285 N 
ATOM     17  C   UNL     1       3.388   2.663  -0.019  0.00  0.00    +0.211 C 
ATOM     18  O   UNL     1       4.595   2.786  -0.033  0.00  0.00    -0.277 OA
ATOM     19 CL   UNL     1      -0.085   5.580   0.031  0.00  0.00    -0.082 Cl
ATOM     20  H   UNL     1       2.707   4.600  -0.004  0.00  0.00    +0.155 HD
ATOM     21  N   UNL     1       2.919   0.536  -1.162  0.00  0.00    +0.394 N 
ATOM     22  H   UNL     1       2.393   0.858  -1.984  0.00  0.00    -0.083 HD
ATOM     23  H   UNL     1       3.925   0.565  -1.367  0.00  0.00    -0.083 HD
ENDROOT
BRANCH   1  25
ATOM     24  C   UNL     1       6.983  -1.977   1.085  0.00  0.00    +0.031 C 
ATOM     25  C   UNL     1       6.539  -0.573   1.498  0.00  0.00    +0.036 C 
ATOM     26  C   UNL     1       7.288   0.466   0.661  0.00  0.00    +0.031 C 
ATOM     27  C   UNL     1       6.852  -0.354   2.980  0.00  0.00    +0.031 C 
ENDBRANCH   1  25
BRANCH   5  28
ATOM     28  C   UNL     1       3.257  -1.868  -1.639  0.00  0.00    +0.080 C 
BRANCH  28  29
ATOM     29  C   UNL     1       2.769  -1.810  -3.063  0.00  0.00    +0.209 C 
ATOM     30  O   UNL     1       1.911  -1.012  -3.378  0.00  0.00    -0.276 OA
ATOM     31  N   UNL     1       3.285  -2.644  -3.987  0.00  0.00    -0.329 N 
ATOM     32  H   UNL     1       3.971  -3.282  -3.735  0.00  0.00    +0.145 HD
ATOM     33  H   UNL     1       2.971  -2.607  -4.904  0.00  0.00    +0.145 HD
ENDBRANCH  28  29
ENDBRANCH   5  28
TORSDOF 3
