REMARK  Name = ZINC14201823
REMARK  8 active torsions:
REMARK  status: ('A' for Active; 'I' for Inactive)
REMARK    1  A    between atoms: C_3  and  O_25
REMARK    2  A    between atoms: C_6  and  C_7
REMARK    3  A    between atoms: C_12  and  C_13
REMARK    4  A    between atoms: C_12  and  N_49
REMARK    5  A    between atoms: C_13  and  C_15
REMARK    6  A    between atoms: C_13  and  O_24
REMARK    7  A    between atoms: C_15  and  O_16
REMARK    8  A    between atoms: O_16  and  C_17
REMARK                            x       y       z     vdW  Elec       q    Type
REMARK                         _______ _______ _______ _____ _____    ______ ____
ROOT
ATOM      1  C   UNL     1      -0.061   0.705  -0.300  0.00  0.00    +0.016 C 
ATOM      2  C   UNL     1      -0.630   1.356   0.963  0.00  0.00    -0.011 C 
ATOM      3  C   UNL     1      -2.115   1.002   1.087  0.00  0.00    -0.078 C 
ATOM      4  C   UNL     1      -2.337   0.832  -1.320  0.00  0.00    -0.078 C 
ATOM      5  C   UNL     1      -0.860   1.182  -1.517  0.00  0.00    -0.011 C 
ATOM      6  N   UNL     1      -2.832   1.509  -0.102  0.00  0.00    +0.381 N 
ATOM      7  H   UNL     1      -2.661   2.518  -0.189  0.00  0.00    -0.082 HD
ENDROOT
BRANCH   1  13
ATOM      8  C   UNL     1       1.727   2.431  -0.593  0.00  0.00    +0.007 A 
ATOM      9  C   UNL     1       3.052   2.794  -0.736  0.00  0.00    +0.045 A 
ATOM     10  C   UNL     1       4.039   1.819  -0.759  0.00  0.00    +0.117 A 
ATOM     11  C   UNL     1       3.692   0.482  -0.633  0.00  0.00    +0.045 A 
ATOM     12  C   UNL     1       2.366   0.124  -0.484  0.00  0.00    +0.007 A 
ATOM     13  C   UNL     1       1.385   1.098  -0.462  0.00  0.00    -0.044 A 
BRANCH  10  14
ATOM     14  O   UNL     1       5.343   2.174  -0.905  0.00  0.00    -0.507 OA
ATOM     15  H   UNL     1       5.638   2.215  -1.825  0.00  0.00    +0.292 HD
ENDBRANCH  10  14
ENDBRANCH   1  13
BRANCH   6  16
ATOM     16  C   UNL     1      -4.284   1.280   0.048  0.00  0.00    -0.044 C 
BRANCH  16  17
ATOM     17  C   UNL     1      -5.027   2.201  -0.923  0.00  0.00    +0.135 C 
BRANCH  17  18
ATOM     18  O   UNL     1      -4.753   3.563  -0.590  0.00  0.00    -0.390 OA
ATOM     19  H   UNL     1      -5.025   3.812   0.304  0.00  0.00    +0.210 HD
ENDBRANCH  17  18
BRANCH  17  20
ATOM     20  C   UNL     1      -6.531   1.943  -0.820  0.00  0.00    +0.258 C 
BRANCH  20  21
ATOM     21  O   UNL     1      -7.216   2.717  -1.806  0.00  0.00    -0.489 OA
BRANCH  21  22
ATOM     22  C   UNL     1      -8.570   2.603  -1.850  0.00  0.00    +0.121 A 
ATOM     23  C   UNL     1      -9.224   1.759  -0.966  0.00  0.00    +0.048 A 
ATOM     24  C   UNL     1     -10.601   1.648  -1.007  0.00  0.00    +0.042 A 
ATOM     25  C   UNL     1     -11.326   2.371  -1.939  0.00  0.00    +0.124 A 
ATOM     26  C   UNL     1     -10.674   3.210  -2.827  0.00  0.00    +0.042 A 
ATOM     27  C   UNL     1      -9.298   3.327  -2.783  0.00  0.00    +0.048 A 
ATOM     28  F   UNL     1     -12.672   2.258  -1.982  0.00  0.00    -0.205 F 
ENDBRANCH  21  22
ENDBRANCH  20  21
ENDBRANCH  17  20
ENDBRANCH  16  17
ENDBRANCH   6  16
TORSDOF 8
