REMARK  Name = ZINC41603495
REMARK  3 active torsions:
REMARK  status: ('A' for Active; 'I' for Inactive)
REMARK    1  A    between atoms: C_3  and  N_8
REMARK    2  A    between atoms: N_11  and  C_12
REMARK    3  A    between atoms: C_13  and  C_21
REMARK                            x       y       z     vdW  Elec       q    Type
REMARK                         _______ _______ _______ _____ _____    ______ ____
ROOT
ATOM      1  N   UNL     1       3.584   2.125  -0.021  0.00  0.00    -0.269 N 
ATOM      2  C   UNL     1       4.758   1.470   0.066  0.00  0.00    +0.309 C 
ATOM      3  O   UNL     1       4.778   0.255   0.060  0.00  0.00    -0.252 OA
ATOM      4  N   UNL     1       5.911   2.163   0.160  0.00  0.00    -0.262 N 
ATOM      5  H   UNL     1       3.572   3.092  -0.094  0.00  0.00    +0.156 HD
ATOM      6  H   UNL     1       5.895   3.132   0.165  0.00  0.00    +0.157 HD
ENDROOT
BRANCH   4   7
ATOM      7  C   UNL     1       7.120   1.488   0.249  0.00  0.00    +0.091 A 
ATOM      8  C   UNL     1       8.392   2.030   0.357  0.00  0.00    +0.084 A 
ATOM      9  C   UNL     1       9.502   1.101   0.437  0.00  0.00    -0.022 A 
ATOM     10  C   UNL     1       9.140  -0.202   0.393  0.00  0.00    -0.021 A 
ATOM     11  S   UNL     1       7.378  -0.172   0.260  0.00  0.00    -0.079 S 
ATOM     12  C   UNL     1      10.065  -1.377   0.450  0.00  0.00    -0.039 C 
ATOM     13  N   UNL     1      11.434  -0.903   0.178  0.00  0.00    +0.382 N 
ATOM     14  C   UNL     1      11.738   0.246   1.040  0.00  0.00    -0.077 C 
ATOM     15  C   UNL     1      10.970   1.484   0.564  0.00  0.00    +0.018 C 
ATOM     16  H   UNL     1      12.090  -1.646   0.364  0.00  0.00    -0.085 HD
ATOM     17  H   UNL     1      11.507  -0.626  -0.790  0.00  0.00    -0.085 HD
BRANCH   8  18
ATOM     18  C   UNL     1       8.601   3.446   0.388  0.00  0.00    +0.102 C 
ATOM     19  N   UNL     1       8.766   4.570   0.413  0.00  0.00    -0.191 NA
ENDBRANCH   8  18
ENDBRANCH   4   7
BRANCH   1  22
ATOM     20  C   UNL     1       1.086  -0.460   0.753  0.00  0.00    +0.003 A 
ATOM     21  C   UNL     1       2.275   0.244   0.739  0.00  0.00    +0.023 A 
ATOM     22  C   UNL     1       2.381   1.410  -0.006  0.00  0.00    +0.036 A 
ATOM     23  C   UNL     1       1.292   1.866  -0.737  0.00  0.00    +0.043 A 
ATOM     24  C   UNL     1       0.105   1.158  -0.720  0.00  0.00    +0.043 A 
ATOM     25  C   UNL     1       0.003  -0.005   0.025  0.00  0.00    +0.020 A 
ATOM     26 CL   UNL     1      -1.258   1.726  -1.633  0.00  0.00    -0.083 Cl
ENDBRANCH   1  22
TORSDOF 3
