REMARK  Name = ZINC66179633
REMARK  4 active torsions:
REMARK  status: ('A' for Active; 'I' for Inactive)
REMARK    1  A    between atoms: C_1  and  C_2
REMARK    2  A    between atoms: C_2  and  C_4
REMARK    3  A    between atoms: C_2  and  N_15
REMARK    4  A    between atoms: C_21  and  N_24
REMARK                            x       y       z     vdW  Elec       q    Type
REMARK                         _______ _______ _______ _____ _____    ______ ____
ROOT
ATOM      1  N   UNL     1      -1.372  -0.511   0.012  0.00  0.00    -0.293 N 
ATOM      2  C   UNL     1      -2.029  -0.655   1.181  0.00  0.00    +0.303 C 
ATOM      3  O   UNL     1      -1.480  -0.364   2.226  0.00  0.00    -0.253 OA
ATOM      4  N   UNL     1      -3.293  -1.122   1.190  0.00  0.00    -0.287 N 
ATOM      5  C   UNL     1      -4.070  -1.516   0.006  0.00  0.00    +0.108 C 
ATOM      6  C   UNL     1      -5.445  -2.009   0.503  0.00  0.00    +0.005 C 
ATOM      7  C   UNL     1      -5.162  -2.398   1.978  0.00  0.00    -0.049 C 
ATOM      8  C   UNL     1      -4.124  -1.328   2.391  0.00  0.00    +0.094 C 
ATOM      9  H   UNL     1      -1.810  -0.743  -0.822  0.00  0.00    +0.151 HD
ENDROOT
BRANCH   7  10
ATOM     10  N   UNL     1      -6.380  -2.296   2.793  0.00  0.00    +0.383 N 
ATOM     11  C   UNL     1      -7.397  -3.268   2.317  0.00  0.00    -0.078 C 
ATOM     12  C   UNL     1      -8.323  -3.443   3.547  0.00  0.00    -0.020 C 
ATOM     13  C   UNL     1      -7.333  -3.401   4.734  0.00  0.00    -0.020 C 
ATOM     14  C   UNL     1      -6.090  -2.670   4.194  0.00  0.00    -0.078 C 
ATOM     15  H   UNL     1      -6.748  -1.357   2.753  0.00  0.00    -0.081 HD
ENDBRANCH   7  10
BRANCH   1  17
ATOM     16  C   UNL     1      -0.019   1.526   0.010  0.00  0.00    +0.033 C 
ATOM     17  C   UNL     1       0.002  -0.004   0.002  0.00  0.00    +0.102 C 
BRANCH  17  18
ATOM     18  C   UNL     1       0.707  -0.490  -1.238  0.00  0.00    -0.025 A 
ATOM     19  C   UNL     1       0.035  -0.521  -2.446  0.00  0.00    +0.009 A 
ATOM     20  C   UNL     1       0.676  -0.964  -3.589  0.00  0.00    +0.048 A 
ATOM     21  C   UNL     1       1.994  -1.379  -3.523  0.00  0.00    +0.142 A 
ATOM     22  C   UNL     1       2.672  -1.350  -2.305  0.00  0.00    +0.076 A 
ATOM     23  C   UNL     1       2.027  -0.899  -1.165  0.00  0.00    +0.032 A 
ATOM     24  N   UNL     1       4.006  -1.776  -2.252  0.00  0.00    -0.280 N 
ATOM     25  C   UNL     1       4.699  -1.903  -3.404  0.00  0.00    +0.255 C 
ATOM     26  O   UNL     1       5.846  -2.299  -3.385  0.00  0.00    -0.272 OA
ATOM     27  C   UNL     1       4.043  -1.549  -4.714  0.00  0.00    +0.325 C 
ATOM     28  O   UNL     1       2.640  -1.818  -4.637  0.00  0.00    -0.481 OA
ATOM     29  H   UNL     1       4.426  -1.976  -1.400  0.00  0.00    +0.155 HD
ENDBRANCH  17  18
ENDBRANCH   1  17
TORSDOF 3
