REMARK  Name = ZINC12433686
REMARK  10 active torsions:
REMARK  status: ('A' for Active; 'I' for Inactive)
REMARK    1  A    between atoms: C_10  and  C_11
REMARK    2  A    between atoms: C_10  and  N_61
REMARK    3  A    between atoms: C_11  and  C_13
REMARK    4  A    between atoms: C_11  and  O_32
REMARK    5  A    between atoms: C_13  and  O_14
REMARK    6  A    between atoms: O_14  and  C_15
REMARK    7  A    between atoms: C_20  and  C_21
REMARK    8  A    between atoms: C_21  and  N_63
REMARK    9  A    between atoms: C_22  and  C_23
REMARK   10  A    between atoms: C_22  and  N_63
REMARK                            x       y       z     vdW  Elec       q    Type
REMARK                         _______ _______ _______ _____ _____    ______ ____
ROOT
ATOM      1  C   UNL     1      -0.234   1.069   7.271  0.00  0.00    +0.122 A 
ATOM      2  C   UNL     1       0.566  -0.062   7.324  0.00  0.00    +0.046 A 
ATOM      3  C   UNL     1       1.000  -0.543   8.544  0.00  0.00    +0.004 A 
ATOM      4  C   UNL     1       0.629   0.096   9.712  0.00  0.00    +0.000 A 
ATOM      5  C   UNL     1      -0.174   1.221   9.662  0.00  0.00    +0.005 A 
ATOM      6  C   UNL     1      -0.606   1.709   8.444  0.00  0.00    -0.023 A 
ENDROOT
BRANCH   1   7
ATOM      7  O   UNL     1      -0.658   1.548   6.071  0.00  0.00    -0.489 OA
BRANCH   7   8
ATOM      8  C   UNL     1      -0.236   0.838   4.905  0.00  0.00    +0.258 C 
BRANCH   8   9
ATOM      9  C   UNL     1      -0.808   1.520   3.659  0.00  0.00    +0.135 C 
BRANCH   9  10
ATOM     10  O   UNL     1      -2.233   1.415   3.671  0.00  0.00    -0.390 OA
ATOM     11  H   UNL     1      -2.561   0.505   3.674  0.00  0.00    +0.210 HD
ENDBRANCH   9  10
BRANCH   9  12
ATOM     12  C   UNL     1      -0.257   0.837   2.406  0.00  0.00    -0.043 C 
BRANCH  12  22
ATOM     13  C   UNL     1      -1.567   5.149  -2.179  0.00  0.00    +0.000 A 
ATOM     14  C   UNL     1      -1.460   5.806  -0.967  0.00  0.00    +0.000 A 
ATOM     15  C   UNL     1      -1.122   5.100   0.170  0.00  0.00    +0.002 A 
ATOM     16  C   UNL     1      -0.888   3.734   0.104  0.00  0.00    -0.061 A 
ATOM     17  C   UNL     1      -0.999   3.079  -1.104  0.00  0.00    -0.048 A 
ATOM     18  C   UNL     1      -1.337   3.790  -2.246  0.00  0.00    +0.004 A 
ATOM     19  C   UNL     1      -0.760   1.596  -1.224  0.00  0.00    +0.017 C 
ATOM     20  C   UNL     1      -0.013   1.086   0.008  0.00  0.00    -0.074 C 
ATOM     21  C   UNL     1      -0.517   3.009   1.371  0.00  0.00    -0.043 C 
ATOM     22  N   UNL     1      -0.733   1.561   1.207  0.00  0.00    +0.384 N 
ATOM     23  H   UNL     1      -1.738   1.384   1.088  0.00  0.00    -0.081 HD
ENDBRANCH  12  22
ENDBRANCH   9  12
ENDBRANCH   8   9
ENDBRANCH   7   8
ENDBRANCH   1   7
BRANCH   6  24
ATOM     24  C   UNL     1      -1.481   2.935   8.390  0.00  0.00    -0.043 C 
BRANCH  24  25
ATOM     25  N   UNL     1      -2.885   2.519   8.211  0.00  0.00    +0.385 N 
ATOM     26  H   UNL     1      -3.166   1.925   8.999  0.00  0.00    -0.085 HD
ATOM     27  H   UNL     1      -2.972   1.990   7.335  0.00  0.00    -0.085 HD
BRANCH  25  28
ATOM     28  C   UNL     1      -3.765   3.701   8.154  0.00  0.00    -0.026 C 
BRANCH  28  29
ATOM     29  C   UNL     1      -5.191   3.247   7.971  0.00  0.00    +0.026 A 
ATOM     30  C   UNL     1      -6.103   3.053   8.948  0.00  0.00    +0.132 A 
ATOM     31  N   UNL     1      -7.247   2.652   8.390  0.00  0.00    -0.236 NA
ATOM     32  C   UNL     1      -7.090   2.583   7.075  0.00  0.00    +0.138 A 
ATOM     33  N   UNL     1      -5.804   2.958   6.782  0.00  0.00    -0.305 N 
ATOM     34  C   UNL     1      -5.370   2.985   5.489  0.00  0.00    +0.093 A 
ATOM     35  C   UNL     1      -6.198   2.646   4.478  0.00  0.00    +0.018 A 
ATOM     36  C   UNL     1      -7.522   2.260   4.747  0.00  0.00    +0.005 A 
ATOM     37  C   UNL     1      -7.965   2.221   6.032  0.00  0.00    +0.047 A 
ENDBRANCH  28  29
ENDBRANCH  25  28
ENDBRANCH  24  25
ENDBRANCH   6  24
TORSDOF 10
