REMARK  Name = ZINC21362907
REMARK  9 active torsions:
REMARK  status: ('A' for Active; 'I' for Inactive)
REMARK    1  A    between atoms: C_1  and  C_2
REMARK    2  A    between atoms: C_5  and  N_8
REMARK    3  A    between atoms: N_8  and  C_9
REMARK    4  A    between atoms: C_9  and  N_11
REMARK    5  A    between atoms: N_11  and  C_12
REMARK    6  A    between atoms: C_12  and  C_13
REMARK    7  A    between atoms: C_13  and  C_15
REMARK    8  A    between atoms: C_13  and  N_20
REMARK    9  A    between atoms: N_23  and  C_26
REMARK                            x       y       z     vdW  Elec       q    Type
REMARK                         _______ _______ _______ _____ _____    ______ ____
ROOT
ATOM      1  C   UNL     1       2.796   1.182  -0.448  0.00  0.00    +0.127 C 
ENDROOT
BRANCH   1   2
ATOM      2  N   UNL     1       2.565   0.711   0.920  0.00  0.00    -0.324 N 
ATOM      3  H   UNL     1       3.181   1.097   1.746  0.00  0.00    +0.148 HD
BRANCH   2   4
ATOM      4  C   UNL     1       1.598  -0.195   1.167  0.00  0.00    +0.135 C 
ATOM      5  S   UNL     1       0.639  -0.795  -0.117  0.00  0.00    -0.019 S 
BRANCH   4   6
ATOM      6  N   UNL     1       1.383  -0.623   2.427  0.00  0.00    -0.297 N 
ATOM      7  H   UNL     1       2.043  -0.291   3.242  0.00  0.00    +0.154 HD
BRANCH   6  12
ATOM      8  C   UNL     1      -2.928  -4.143   3.526  0.00  0.00    +0.044 C 
ATOM      9  C   UNL     1      -1.783  -3.208   3.234  0.00  0.00    -0.050 A 
ATOM     10  C   UNL     1      -0.956  -3.447   2.152  0.00  0.00    +0.005 A 
ATOM     11  C   UNL     1       0.095  -2.592   1.882  0.00  0.00    +0.023 A 
ATOM     12  C   UNL     1       0.319  -1.491   2.698  0.00  0.00    +0.033 A 
ATOM     13  C   UNL     1      -0.510  -1.257   3.787  0.00  0.00    +0.023 A 
ATOM     14  C   UNL     1      -1.562  -2.113   4.049  0.00  0.00    +0.005 A 
ENDBRANCH   6  12
ENDBRANCH   4   6
ENDBRANCH   2   4
ENDBRANCH   1   2
BRANCH   1  15
ATOM     15  C   UNL     1       4.020   2.099  -0.472  0.00  0.00    +0.110 C 
BRANCH  15  16
ATOM     16  N   UNL     1       3.807   3.225   0.446  0.00  0.00    -0.297 NA
ATOM     17  C   UNL     1       2.621   4.003   0.060  0.00  0.00    +0.066 C 
ATOM     18  C   UNL     1       2.388   5.116   1.084  0.00  0.00    -0.064 C 
ATOM     19  N   UNL     1       3.579   5.974   1.150  0.00  0.00    +0.379 N 
ATOM     20  C   UNL     1       4.764   5.197   1.537  0.00  0.00    -0.064 C 
ATOM     21  C   UNL     1       4.997   4.084   0.513  0.00  0.00    +0.066 C 
ATOM     22  C   UNL     1       3.365   7.101   2.069  0.00  0.00    -0.096 C 
ATOM     23  H   UNL     1       3.756   6.388   0.147  0.00  0.00    -0.082 HD
ENDBRANCH  15  16
BRANCH  15  24
ATOM     24  C   UNL     1       5.238   1.323  -0.041  0.00  0.00    +0.008 A 
ATOM     25  C   UNL     1       6.207   0.762  -0.805  0.00  0.00    +0.013 A 
ATOM     26  C   UNL     1       7.245   0.092  -0.185  0.00  0.00    +0.008 A 
ATOM     27  C   UNL     1       7.257   0.006   1.168  0.00  0.00    +0.045 A 
ATOM     28  S   UNL     1       5.774   0.897   1.608  0.00  0.00    -0.100 S 
ENDBRANCH  15  24
ENDBRANCH   1  15
TORSDOF 7
