REMARK  Name = ZINC63642946
REMARK  8 active torsions:
REMARK  status: ('A' for Active; 'I' for Inactive)
REMARK    1  A    between atoms: C_1  and  C_2
REMARK    2  A    between atoms: C_2  and  O_3
REMARK    3  A    between atoms: O_3  and  C_4
REMARK    4  A    between atoms: C_4  and  C_6
REMARK    5  A    between atoms: C_18  and  N_20
REMARK    6  A    between atoms: C_21  and  C_23
REMARK    7  A    between atoms: C_23  and  S_24
REMARK    8  A    between atoms: S_24  and  C_25
REMARK                            x       y       z     vdW  Elec       q    Type
REMARK                         _______ _______ _______ _____ _____    ______ ____
ROOT
ATOM      1  N   UNL     1       3.092  -0.859  -1.485  0.00  0.00    -0.302 N 
ATOM      2  C   UNL     1       3.549   0.398  -1.651  0.00  0.00    +0.224 C 
ATOM      3  O   UNL     1       3.637   0.869  -2.765  0.00  0.00    -0.275 OA
ATOM      4  H   UNL     1       2.952  -1.210  -0.591  0.00  0.00    +0.150 HD
ENDROOT
BRANCH   1  14
ATOM      5  C   UNL     1       1.424  -2.355  -2.520  0.00  0.00    +0.132 C 
ATOM      6  C   UNL     1       1.461  -3.869  -2.427  0.00  0.00    +0.018 C 
ATOM      7  C   UNL     1       1.327  -4.337  -0.994  0.00  0.00    +0.005 C 
ATOM      8  C   UNL     1       0.604  -5.657  -0.894  0.00  0.00    +0.000 C 
ATOM      9  C   UNL     1       1.486  -6.866  -0.952  0.00  0.00    +0.000 C 
ATOM     10  C   UNL     1       2.176  -6.832  -2.353  0.00  0.00    +0.001 C 
ATOM     11  C   UNL     1       3.224  -5.711  -2.275  0.00  0.00    +0.014 C 
ATOM     12  C   UNL     1       2.771  -4.470  -3.007  0.00  0.00    +0.052 C 
ATOM     13  S   UNL     1       3.968  -3.110  -2.695  0.00  0.00    -0.134 S 
ATOM     14  C   UNL     1       2.805  -1.695  -2.653  0.00  0.00    +0.145 C 
BRANCH   5  15
ATOM     15  C   UNL     1       0.754  -1.816  -1.282  0.00  0.00    +0.313 C 
ATOM     16  O   UNL     1       1.323  -1.867  -0.217  0.00  0.00    -0.250 OA
BRANCH  15  17
ATOM     17  O   UNL     1      -0.473  -1.280  -1.363  0.00  0.00    -0.465 OA
BRANCH  17  19
ATOM     18  C   UNL     1      -2.438  -0.219  -0.439  0.00  0.00    +0.048 C 
ATOM     19  C   UNL     1      -1.048  -0.788  -0.150  0.00  0.00    +0.229 C 
ENDBRANCH  17  19
ENDBRANCH  15  17
ENDBRANCH   5  15
ENDBRANCH   1  14
BRANCH   2  20
ATOM     20  C   UNL     1       3.950   1.219  -0.452  0.00  0.00    +0.169 C 
BRANCH  20  21
ATOM     21  S   UNL     1       4.518   2.852  -1.000  0.00  0.00    -0.118 S 
BRANCH  21  22
ATOM     22  C   UNL     1       4.769   3.685   0.413  0.00  0.00    +0.014 C 
ATOM     23  C   UNL     1       4.681   3.187   1.709  0.00  0.00    +0.009 A 
ATOM     24  C   UNL     1       4.372   1.907   2.219  0.00  0.00    +0.011 A 
ATOM     25  C   UNL     1       4.359   1.701   3.561  0.00  0.00    +0.001 A 
ATOM     26  C   UNL     1       4.645   2.729   4.460  0.00  0.00    +0.002 A 
ATOM     27  C   UNL     1       4.950   3.982   4.040  0.00  0.00    +0.026 A 
ATOM     28  C   UNL     1       4.984   4.273   2.653  0.00  0.00    +0.044 A 
ATOM     29  N   UNL     1       5.248   5.391   2.002  0.00  0.00    -0.379 N 
ATOM     30  C   UNL     1       5.149   5.142   0.560  0.00  0.00    +0.155 C 
ATOM     31  H   UNL     1       5.475   6.240   2.411  0.00  0.00    +0.160 HD
ENDBRANCH  21  22
ENDBRANCH  20  21
ENDBRANCH   2  20
TORSDOF 7
