REMARK  Name = ZINC37984861
REMARK  8 active torsions:
REMARK  status: ('A' for Active; 'I' for Inactive)
REMARK    1  A    between atoms: C_3  and  O_9
REMARK    2  A    between atoms: O_9  and  C_10
REMARK    3  A    between atoms: C_10  and  C_11
REMARK    4  A    between atoms: C_11  and  C_13
REMARK    5  A    between atoms: C_11  and  O_22
REMARK    6  A    between atoms: C_13  and  N_14
REMARK    7  A    between atoms: N_14  and  C_15
REMARK    8  A    between atoms: C_15  and  C_16
REMARK                            x       y       z     vdW  Elec       q    Type
REMARK                         _______ _______ _______ _____ _____    ______ ____
ROOT
ATOM      1  C   UNL     1       4.860   4.136  -0.024  0.00  0.00    +0.135 C 
ENDROOT
BRANCH   1   2
ATOM      2  O   UNL     1       5.535   3.795   1.189  0.00  0.00    -0.390 OA
ATOM      3  H   UNL     1       5.093   4.114   1.988  0.00  0.00    +0.210 HD
ENDBRANCH   1   2
BRANCH   1   4
ATOM      4  C   UNL     1       3.454   3.533  -0.013  0.00  0.00    +0.258 C 
BRANCH   4   5
ATOM      5  O   UNL     1       3.548   2.107  -0.021  0.00  0.00    -0.488 OA
BRANCH   5   8
ATOM      6  C   UNL     1      -0.017   1.379   0.010  0.00  0.00    +0.023 A 
ATOM      7  C   UNL     1       1.170   2.088   0.002  0.00  0.00    +0.048 A 
ATOM      8  C   UNL     1       2.380   1.411  -0.013  0.00  0.00    +0.139 A 
ATOM      9  C   UNL     1       2.398   0.023  -0.021  0.00  0.00    +0.084 A 
ATOM     10  C   UNL     1       1.209  -0.682  -0.013  0.00  0.00    +0.043 A 
ATOM     11  C   UNL     1       0.002  -0.004   0.002  0.00  0.00    +0.043 A 
ATOM     12 CL   UNL     1      -1.490  -0.891   0.012  0.00  0.00    -0.083 Cl
ATOM     13 CL   UNL     1       3.911  -0.827  -0.040  0.00  0.00    -0.080 Cl
ENDBRANCH   5   8
ENDBRANCH   4   5
ENDBRANCH   1   4
BRANCH   1  14
ATOM     14  C   UNL     1       4.761   5.659  -0.141  0.00  0.00    -0.047 C 
BRANCH  14  15
ATOM     15  N   UNL     1       6.108   6.229  -0.271  0.00  0.00    +0.384 N 
ATOM     16  H   UNL     1       6.655   5.989   0.542  0.00  0.00    -0.085 HD
ATOM     17  H   UNL     1       6.553   5.856  -1.097  0.00  0.00    -0.085 HD
BRANCH  15  18
ATOM     18  C   UNL     1       6.013   7.691  -0.384  0.00  0.00    -0.039 C 
BRANCH  18  19
ATOM     19  C   UNL     1       7.395   8.275  -0.518  0.00  0.00    -0.026 A 
ATOM     20  C   UNL     1       8.110   8.527  -1.641  0.00  0.00    +0.010 A 
ATOM     21  C   UNL     1       9.374   9.073  -1.524  0.00  0.00    +0.023 A 
ATOM     22  C   UNL     1       9.862   9.342  -0.286  0.00  0.00    +0.055 A 
ATOM     23  S   UNL     1       8.512   8.824   0.762  0.00  0.00    -0.088 S 
ATOM     24 BR   UNL     1      11.533  10.080   0.201  0.00  0.00    -0.043 Br
ENDBRANCH  18  19
ENDBRANCH  15  18
ENDBRANCH  14  15
ENDBRANCH   1  14
TORSDOF 8
