REMARK  Name = ZINC49526898
REMARK  8 active torsions:
REMARK  status: ('A' for Active; 'I' for Inactive)
REMARK    1  A    between atoms: C_1  and  C_2
REMARK    2  A    between atoms: C_7  and  C_8
REMARK    3  A    between atoms: C_8  and  C_10
REMARK    4  A    between atoms: C_8  and  N_11
REMARK    5  A    between atoms: C_13  and  C_20
REMARK    6  A    between atoms: C_14  and  C_19
REMARK    7  A    between atoms: C_16  and  C_18
REMARK    8  A    between atoms: C_20  and  N_22
REMARK                            x       y       z     vdW  Elec       q    Type
REMARK                         _______ _______ _______ _____ _____    ______ ____
ROOT
ATOM      1  N   UNL     1       1.190  -0.818   3.308  0.00  0.00    -0.323 N 
ATOM      2  C   UNL     1       1.488  -0.217   4.518  0.00  0.00    +0.107 A 
ATOM      3  C   UNL     1       1.876  -1.008   5.614  0.00  0.00    +0.044 A 
ATOM      4  C   UNL     1       2.172  -0.378   6.828  0.00  0.00    -0.036 A 
ATOM      5  C   UNL     1       2.070   1.000   6.895  0.00  0.00    +0.025 A 
ATOM      6  C   UNL     1       1.682   1.710   5.774  0.00  0.00    +0.015 A 
ATOM      7  N   UNL     1       1.411   1.099   4.637  0.00  0.00    -0.347 N 
ATOM      8  C   UNL     1       1.571   3.211   5.850  0.00  0.00    +0.063 C 
ATOM      9  C   UNL     1       2.592  -1.181   8.032  0.00  0.00    +0.044 C 
ATOM     10  H   UNL     1       1.172  -1.785   3.237  0.00  0.00    +0.148 HD
ATOM     11  H   UNL     1       1.146   1.627   3.868  0.00  0.00    +0.167 HD
ENDROOT
BRANCH   1  12
ATOM     12  C   UNL     1       0.902   0.008   2.132  0.00  0.00    +0.099 C 
ATOM     13  C   UNL     1      -0.576   0.401   2.134  0.00  0.00    +0.033 C 
BRANCH  12  20
ATOM     14  C   UNL     1       1.553   1.398  -0.316  0.00  0.00    +0.044 C 
ATOM     15  C   UNL     1       1.524  -0.108  -0.290  0.00  0.00    -0.046 A 
ATOM     16  C   UNL     1       1.815  -0.825  -1.436  0.00  0.00    +0.004 A 
ATOM     17  C   UNL     1       1.788  -2.207  -1.412  0.00  0.00    +0.000 A 
ATOM     18  C   UNL     1       1.472  -2.872  -0.242  0.00  0.00    +0.000 A 
ATOM     19  C   UNL     1       1.182  -2.155   0.904  0.00  0.00    +0.006 A 
ATOM     20  C   UNL     1       1.213  -0.773   0.881  0.00  0.00    -0.025 A 
ENDBRANCH  12  20
ENDBRANCH   1  12
BRANCH   3  21
ATOM     21  C   UNL     1       1.968  -2.473   5.487  0.00  0.00    +0.080 C 
ATOM     22  S   UNL     1       3.438  -3.198   4.992  0.00  0.00    -0.035 S 
BRANCH  21  23
ATOM     23  N   UNL     1       0.895  -3.241   5.760  0.00  0.00    -0.352 N 
ATOM     24  H   UNL     1       0.090  -2.839   6.121  0.00  0.00    +0.143 HD
ATOM     25  H   UNL     1       0.929  -4.197   5.597  0.00  0.00    +0.143 HD
ENDBRANCH  21  23
ENDBRANCH   3  21
TORSDOF 4
