REMARK  Name = ZINC67481933
REMARK  8 active torsions:
REMARK  status: ('A' for Active; 'I' for Inactive)
REMARK    1  A    between atoms: C_1  and  C_2
REMARK    2  A    between atoms: C_4  and  C_8
REMARK    3  A    between atoms: C_5  and  C_7
REMARK    4  A    between atoms: N_10  and  N_11
REMARK    5  A    between atoms: N_14  and  C_15
REMARK    6  A    between atoms: C_15  and  C_16
REMARK    7  A    between atoms: N_21  and  C_22
REMARK    8  A    between atoms: C_22  and  C_23
REMARK                            x       y       z     vdW  Elec       q    Type
REMARK                         _______ _______ _______ _____ _____    ______ ____
ROOT
ATOM      1  N   UNL     1      -3.039  -4.308   0.135  0.00  0.00    -0.218 N 
ATOM      2  C   UNL     1      -4.385  -4.370   0.100  0.00  0.00    +0.316 C 
ATOM      3  O   UNL     1      -4.943  -5.450   0.094  0.00  0.00    -0.251 OA
ATOM      4  N   UNL     1      -5.112  -3.236   0.073  0.00  0.00    -0.300 N 
ATOM      5  H   UNL     1      -2.516  -5.124   0.155  0.00  0.00    +0.174 HD
ATOM      6  H   UNL     1      -4.666  -2.374   0.078  0.00  0.00    +0.150 HD
ENDROOT
BRANCH   1   9
ATOM      7  C   UNL     1      -1.050  -3.000   0.176  0.00  0.00    +0.263 C 
ATOM      8  O   UNL     1      -0.394  -4.024   0.201  0.00  0.00    -0.269 OA
ATOM      9  N   UNL     1      -2.396  -3.063   0.142  0.00  0.00    -0.229 N 
ATOM     10  H   UNL     1      -2.919  -2.247   0.122  0.00  0.00    +0.173 HD
BRANCH   7  14
ATOM     11  C   UNL     1      -0.156   2.022   0.162  0.00  0.00    +0.086 C 
ATOM     12  C   UNL     1       0.001   0.524   0.177  0.00  0.00    +0.103 A 
ATOM     13  C   UNL     1      -1.005  -0.364   0.158  0.00  0.00    +0.057 A 
ATOM     14  C   UNL     1      -0.373  -1.691   0.184  0.00  0.00    +0.079 A 
ATOM     15  C   UNL     1       0.971  -1.458   0.216  0.00  0.00    +0.114 A 
ATOM     16  O   UNL     1       1.170  -0.136   0.206  0.00  0.00    -0.464 OA
ATOM     17  C   UNL     1       2.048  -2.511   0.252  0.00  0.00    +0.087 C 
ENDBRANCH   7  14
ENDBRANCH   1   9
BRANCH   4  18
ATOM     18  C   UNL     1      -6.575  -3.304   0.035  0.00  0.00    +0.090 C 
BRANCH  18  19
ATOM     19  C   UNL     1      -7.151  -1.887   0.009  0.00  0.00    -0.051 C 
ATOM     20  C   UNL     1      -8.687  -1.942   0.140  0.00  0.00    -0.016 C 
ATOM     21  C   UNL     1      -8.919  -1.690   1.653  0.00  0.00    -0.020 C 
ATOM     22  C   UNL     1      -7.792  -0.677   1.978  0.00  0.00    -0.078 C 
ATOM     23  N   UNL     1      -6.639  -1.116   1.158  0.00  0.00    +0.383 N 
ATOM     24  H   UNL     1      -6.029  -1.698   1.712  0.00  0.00    -0.081 HD
BRANCH  23  25
ATOM     25  C   UNL     1      -5.897   0.056   0.675  0.00  0.00    -0.075 C 
BRANCH  25  26
ATOM     26  C   UNL     1      -5.263   0.783   1.863  0.00  0.00    -0.028 C 
ATOM     27  C   UNL     1      -4.605   2.076   1.377  0.00  0.00    +0.002 C 
ATOM     28  C   UNL     1      -3.970   2.803   2.564  0.00  0.00    +0.000 C 
ATOM     29  C   UNL     1      -2.913   1.903   3.208  0.00  0.00    +0.000 C 
ATOM     30  C   UNL     1      -3.571   0.610   3.693  0.00  0.00    +0.000 C 
ATOM     31  C   UNL     1      -4.205  -0.117   2.506  0.00  0.00    +0.002 C 
ENDBRANCH  25  26
ENDBRANCH  23  25
ENDBRANCH  18  19
ENDBRANCH   4  18
TORSDOF 6
