REMARK  Name = ZINC16861146
REMARK  16 active torsions:
REMARK  status: ('A' for Active; 'I' for Inactive)
REMARK    1  A    between atoms: C_1  and  C_2
REMARK    2  A    between atoms: C_2  and  C_3
REMARK    3  A    between atoms: C_3  and  C_4
REMARK    4  A    between atoms: C_4  and  N_5
REMARK    5  A    between atoms: C_9  and  C_11
REMARK    6  A    between atoms: C_11  and  S_12
REMARK    7  A    between atoms: S_12  and  C_13
REMARK    8  A    between atoms: N_23  and  C_24
REMARK    9  A    between atoms: C_24  and  C_25
REMARK   10  A    between atoms: C_25  and  N_67
REMARK   11  A    between atoms: C_26  and  C_27
REMARK   12  A    between atoms: C_26  and  C_28
REMARK   13  A    between atoms: C_26  and  N_67
REMARK   14  A    between atoms: C_29  and  C_30
REMARK   15  A    between atoms: C_29  and  C_31
REMARK   16  A    between atoms: C_29  and  N_67
REMARK                            x       y       z     vdW  Elec       q    Type
REMARK                         _______ _______ _______ _____ _____    ______ ____
ROOT
ATOM      1  C   UNL     1      -0.650  -2.250  -0.873  0.00  0.00    +0.173 A 
ATOM      2  N   UNL     1      -0.436  -0.987  -1.145  0.00  0.00    -0.223 NA
ATOM      3  C   UNL     1       0.770  -0.546  -1.554  0.00  0.00    +0.079 A 
ATOM      4  C   UNL     1       0.998   0.803  -1.844  0.00  0.00    +0.028 A 
ATOM      5  C   UNL     1       2.237   1.206  -2.255  0.00  0.00    +0.002 A 
ATOM      6  C   UNL     1       3.277   0.295  -2.389  0.00  0.00    +0.001 A 
ATOM      7  C   UNL     1       3.086  -1.031  -2.112  0.00  0.00    +0.015 A 
ATOM      8  C   UNL     1       1.831  -1.470  -1.691  0.00  0.00    +0.065 A 
ATOM      9  C   UNL     1       1.567  -2.881  -1.380  0.00  0.00    +0.262 A 
ATOM     10  O   UNL     1       2.440  -3.724  -1.479  0.00  0.00    -0.267 OA
ATOM     11  N   UNL     1       0.317  -3.209  -0.978  0.00  0.00    -0.289 N 
ENDROOT
BRANCH   1  12
ATOM     12  S   UNL     1      -2.260  -2.735  -0.345  0.00  0.00    -0.078 S 
BRANCH  12  13
ATOM     13  C   UNL     1      -3.100  -1.133  -0.384  0.00  0.00    +0.173 C 
BRANCH  13  18
ATOM     14  N   UNL     1      -7.464   0.670   0.518  0.00  0.00    -0.299 N 
ATOM     15  C   UNL     1      -6.641  -0.397   0.471  0.00  0.00    +0.306 C 
ATOM     16  O   UNL     1      -7.056  -1.498   0.772  0.00  0.00    -0.252 OA
ATOM     17  N   UNL     1      -5.358  -0.241   0.090  0.00  0.00    -0.240 N 
ATOM     18  C   UNL     1      -4.535  -1.307   0.042  0.00  0.00    +0.231 C 
ATOM     19  O   UNL     1      -4.948  -2.406   0.342  0.00  0.00    -0.274 OA
ATOM     20  H   UNL     1      -7.133   1.549   0.278  0.00  0.00    +0.150 HD
ATOM     21  H   UNL     1      -5.026   0.639  -0.151  0.00  0.00    +0.159 HD
BRANCH  14  22
ATOM     22  C   UNL     1      -8.859   0.500   0.933  0.00  0.00    +0.106 C 
BRANCH  22  23
ATOM     23  C   UNL     1      -9.569   1.855   0.900  0.00  0.00    +0.018 C 
BRANCH  23  25
ATOM     24  C   UNL     1     -11.736   3.033   1.300  0.00  0.00    +0.004 C 
ATOM     25  C   UNL     1     -11.026   1.678   1.333  0.00  0.00    -0.002 C 
ENDBRANCH  23  25
ENDBRANCH  22  23
ENDBRANCH  14  22
ENDBRANCH  13  18
ENDBRANCH  12  13
ENDBRANCH   1  12
BRANCH  11  26
ATOM     26  C   UNL     1      -0.001  -4.602  -0.655  0.00  0.00    +0.109 C 
BRANCH  26  27
ATOM     27  C   UNL     1       0.268  -4.855   0.830  0.00  0.00    -0.056 C 
BRANCH  27  28
ATOM     28  N   UNL     1      -0.037  -6.269   1.136  0.00  0.00    +0.384 N 
ATOM     29  H   UNL     1       0.459  -6.869   0.467  0.00  0.00    -0.081 HD
BRANCH  28  30
ATOM     30  C   UNL     1       0.414  -6.598   2.504  0.00  0.00    -0.074 C 
ATOM     31  C   UNL     1       1.881  -7.027   2.443  0.00  0.00    -0.014 C 
ATOM     32  C   UNL     1       0.276  -5.380   3.420  0.00  0.00    -0.014 C 
ENDBRANCH  28  30
BRANCH  28  33
ATOM     33  C   UNL     1      -1.490  -6.510   1.011  0.00  0.00    -0.074 C 
ATOM     34  C   UNL     1      -1.748  -8.017   1.080  0.00  0.00    -0.014 C 
ATOM     35  C   UNL     1      -2.249  -5.811   2.142  0.00  0.00    -0.014 C 
ENDBRANCH  28  33
ENDBRANCH  27  28
ENDBRANCH  26  27
ENDBRANCH  11  26
TORSDOF 11
