REMARK  Name = ZINC39972244
REMARK  8 active torsions:
REMARK  status: ('A' for Active; 'I' for Inactive)
REMARK    1  A    between atoms: C_1  and  C_2
REMARK    2  A    between atoms: C_9  and  N_14
REMARK    3  A    between atoms: C_10  and  C_11
REMARK    4  A    between atoms: C_15  and  C_17
REMARK    5  A    between atoms: C_17  and  N_18
REMARK    6  A    between atoms: N_21  and  C_24
REMARK    7  A    between atoms: C_24  and  C_25
REMARK    8  A    between atoms: C_24  and  C_26
REMARK                            x       y       z     vdW  Elec       q    Type
REMARK                         _______ _______ _______ _____ _____    ______ ____
ROOT
ATOM      1  C   UNL     1      -0.019   1.526   0.010  0.00  0.00    +0.008 C 
ATOM      2  C   UNL     1       0.002  -0.004   0.002  0.00  0.00    -0.009 C 
ATOM      3  C   UNL     1       0.724  -0.500  -1.254  0.00  0.00    +0.008 C 
ATOM      4  C   UNL     1       0.537  -2.012  -1.399  0.00  0.00    +0.037 C 
ATOM      5  C   UNL     1       0.935  -2.680  -0.091  0.00  0.00    -0.023 A 
ATOM      6  C   UNL     1       1.019  -1.977   1.059  0.00  0.00    -0.004 A 
ATOM      7  S   UNL     1       1.508  -3.164   2.276  0.00  0.00    -0.077 S 
ATOM      8  C   UNL     1       1.599  -4.539   1.315  0.00  0.00    +0.084 A 
ATOM      9  C   UNL     1       1.254  -4.090   0.050  0.00  0.00    +0.068 A 
ATOM     10  C   UNL     1       0.750  -0.515   1.242  0.00  0.00    +0.046 C 
ENDROOT
BRANCH   9  11
ATOM     11  C   UNL     1       1.212  -5.001  -1.099  0.00  0.00    +0.244 C 
ATOM     12  O   UNL     1       2.208  -5.170  -1.778  0.00  0.00    -0.270 OA
ATOM     13  N   UNL     1       0.071  -5.651  -1.402  0.00  0.00    -0.325 N 
ATOM     14  H   UNL     1      -0.722  -5.516  -0.860  0.00  0.00    +0.145 HD
ATOM     15  H   UNL     1       0.043  -6.254  -2.161  0.00  0.00    +0.145 HD
ENDBRANCH   9  11
BRANCH   8  16
ATOM     16  N   UNL     1       1.942  -5.826   1.699  0.00  0.00    -0.278 N 
ATOM     17  C   UNL     1       2.253  -6.086   2.984  0.00  0.00    +0.232 C 
ATOM     18  O   UNL     1       2.232  -5.193   3.805  0.00  0.00    -0.274 OA
ATOM     19  H   UNL     1       1.959  -6.540   1.042  0.00  0.00    +0.155 HD
BRANCH  17  20
ATOM     20  C   UNL     1       2.626  -7.485   3.402  0.00  0.00    +0.180 C 
BRANCH  20  21
ATOM     21  N   UNL     1       2.918  -7.505   4.841  0.00  0.00    -0.298 NA
ATOM     22  C   UNL     1       4.124  -6.722   5.145  0.00  0.00    +0.066 C 
ATOM     23  C   UNL     1       4.359  -6.719   6.657  0.00  0.00    -0.063 C 
ATOM     24  N   UNL     1       4.518  -8.100   7.131  0.00  0.00    +0.383 N 
ATOM     25  C   UNL     1       3.296  -8.863   6.843  0.00  0.00    -0.063 C 
ATOM     26  C   UNL     1       3.053  -8.884   5.332  0.00  0.00    +0.066 C 
ATOM     27  H   UNL     1       5.301  -8.529   6.660  0.00  0.00    -0.081 HD
BRANCH  24  28
ATOM     28  C   UNL     1       4.762  -8.095   8.580  0.00  0.00    -0.075 C 
ATOM     29  C   UNL     1       4.928  -9.534   9.074  0.00  0.00    -0.014 C 
ATOM     30  C   UNL     1       6.035  -7.303   8.880  0.00  0.00    -0.014 C 
ENDBRANCH  24  28
ENDBRANCH  20  21
ENDBRANCH  17  20
ENDBRANCH   8  16
TORSDOF 5
