REMARK  Name = ZINC63743509
REMARK  11 active torsions:
REMARK  status: ('A' for Active; 'I' for Inactive)
REMARK    1  A    between atoms: C_1  and  C_2
REMARK    2  A    between atoms: C_7  and  C_12
REMARK    3  A    between atoms: C_12  and  C_13
REMARK    4  A    between atoms: C_13  and  C_14
REMARK    5  A    between atoms: C_17  and  N_20
REMARK    6  A    between atoms: N_20  and  S_21
REMARK    7  A    between atoms: S_21  and  C_24
REMARK    8  A    between atoms: C_27  and  O_32
REMARK    9  A    between atoms: C_28  and  O_30
REMARK   10  A    between atoms: O_30  and  C_31
REMARK   11  A    between atoms: O_32  and  C_33
REMARK                            x       y       z     vdW  Elec       q    Type
REMARK                         _______ _______ _______ _____ _____    ______ ____
ROOT
ATOM      1  C   UNL     1       2.548  -7.291   1.688  0.00  0.00    -0.047 A 
ATOM      2  C   UNL     1       3.680  -7.180   0.902  0.00  0.00    +0.005 A 
ATOM      3  C   UNL     1       4.841  -7.833   1.264  0.00  0.00    +0.025 A 
ATOM      4  C   UNL     1       4.872  -8.602   2.421  0.00  0.00    +0.048 A 
ATOM      5  C   UNL     1       3.733  -8.712   3.208  0.00  0.00    +0.025 A 
ATOM      6  C   UNL     1       2.576  -8.052   2.843  0.00  0.00    +0.005 A 
ENDROOT
BRANCH   4   7
ATOM      7  N   UNL     1       6.045  -9.264   2.790  0.00  0.00    -0.216 N 
ATOM      8  H   UNL     1       6.546  -9.767   2.130  0.00  0.00    +0.174 HD
BRANCH   7   9
ATOM      9  S   UNL     1       6.579  -9.190   4.356  0.00  0.00    +0.072 S 
ATOM     10  O   UNL     1       5.485  -9.573   5.177  0.00  0.00    -0.150 OA
ATOM     11  O   UNL     1       7.830  -9.863   4.391  0.00  0.00    -0.150 OA
BRANCH   9  12
ATOM     12  C   UNL     1       6.909  -7.496   4.714  0.00  0.00    +0.112 A 
ATOM     13  C   UNL     1       8.130  -6.944   4.372  0.00  0.00    +0.032 A 
ATOM     14  C   UNL     1       8.394  -5.616   4.651  0.00  0.00    +0.051 A 
ATOM     15  C   UNL     1       7.434  -4.835   5.274  0.00  0.00    +0.162 A 
ATOM     16  C   UNL     1       6.205  -5.391   5.618  0.00  0.00    +0.163 A 
ATOM     17  C   UNL     1       5.945  -6.721   5.331  0.00  0.00    +0.078 A 
BRANCH  16  18
ATOM     18  O   UNL     1       5.259  -4.628   6.229  0.00  0.00    -0.491 OA
ATOM     19  C   UNL     1       4.022  -5.265   6.553  0.00  0.00    +0.277 C 
ENDBRANCH  16  18
BRANCH  15  20
ATOM     20  O   UNL     1       7.691  -3.529   5.550  0.00  0.00    -0.491 OA
ATOM     21  C   UNL     1       8.974  -3.026   5.169  0.00  0.00    +0.277 C 
ENDBRANCH  15  20
ENDBRANCH   9  12
ENDBRANCH   7   9
ENDBRANCH   4   7
BRANCH   1  22
ATOM     22  C   UNL     1       1.282  -6.577   1.289  0.00  0.00    +0.039 C 
BRANCH  22  23
ATOM     23  C   UNL     1       1.270  -5.178   1.906  0.00  0.00    +0.051 C 
BRANCH  23  30
ATOM     24  C   UNL     1      -0.209   1.307  -0.294  0.00  0.00    +0.044 C 
ATOM     25  C   UNL     1      -0.173  -0.199  -0.234  0.00  0.00    -0.048 A 
ATOM     26  C   UNL     1      -0.201  -0.923  -1.438  0.00  0.00    +0.005 A 
ATOM     27  C   UNL     1      -0.172  -2.271  -1.477  0.00  0.00    +0.027 A 
ATOM     28  C   UNL     1      -0.109  -3.031  -0.221  0.00  0.00    +0.060 A 
ATOM     29  N   UNL     1      -0.072  -4.305   0.042  0.00  0.00    -0.363 N 
ATOM     30  C   UNL     1      -0.015  -4.453   1.501  0.00  0.00    +0.174 C 
ATOM     31  N   UNL     1      -0.025  -3.093   2.056  0.00  0.00    -0.363 N 
ATOM     32  C   UNL     1      -0.080  -2.263   1.054  0.00  0.00    +0.060 A 
ATOM     33  C   UNL     1      -0.110  -0.796   0.973  0.00  0.00    +0.030 A 
ATOM     34  H   UNL     1      -0.080  -5.025  -0.608  0.00  0.00    +0.162 HD
ATOM     35  H   UNL     1       0.004  -2.857   2.996  0.00  0.00    +0.162 HD
ENDBRANCH  23  30
ENDBRANCH  22  23
ENDBRANCH   1  22
TORSDOF 8
