REMARK  Name = ZINC37943956
REMARK  2 active torsions:
REMARK  status: ('A' for Active; 'I' for Inactive)
REMARK    1  A    between atoms: C_9  and  C_11
REMARK    2  A    between atoms: C_9  and  N_14
REMARK                            x       y       z     vdW  Elec       q    Type
REMARK                         _______ _______ _______ _____ _____    ______ ____
ROOT
ATOM      1  C   UNL     1      -0.009   1.385   0.024  0.00  0.00    +0.000 A 
ATOM      2  C   UNL     1       1.183   2.086   0.029  0.00  0.00    +0.000 A 
ATOM      3  C   UNL     1       2.380   1.401   0.010  0.00  0.00    +0.004 A 
ATOM      4  C   UNL     1       2.399   0.012  -0.011  0.00  0.00    -0.045 A 
ATOM      5  C   UNL     1       1.212  -0.686  -0.011  0.00  0.00    -0.044 A 
ATOM      6  C   UNL     1       0.008   0.006   0.003  0.00  0.00    +0.004 A 
ATOM      7  C   UNL     1       1.157  -2.191  -0.016  0.00  0.00    +0.034 C 
ATOM      8  C   UNL     1       2.496  -2.776  -0.461  0.00  0.00    +0.002 C 
ATOM      9  C   UNL     1       3.607  -2.135   0.379  0.00  0.00    +0.017 C 
ATOM     10  C   UNL     1       3.741  -0.671  -0.037  0.00  0.00    +0.032 C 
ENDROOT
BRANCH   9  11
ATOM     11  N   UNL     1       4.876  -2.836   0.140  0.00  0.00    +0.390 N 
ATOM     12  C   UNL     1       5.944  -2.166   0.911  0.00  0.00    -0.076 C 
ATOM     13  C   UNL     1       7.084  -3.134   1.104  0.00  0.00    -0.003 C 
ATOM     14  C   UNL     1       8.153  -2.991   0.008  0.00  0.00    +0.079 C 
ATOM     15  N   UNL     1       7.559  -2.798  -1.335  0.00  0.00    -0.318 NA
ATOM     16  C   UNL     1       6.409  -3.637  -1.585  0.00  0.00    +0.062 C 
ATOM     17  C   UNL     1       5.131  -2.849  -1.235  0.00  0.00    -0.062 C 
ATOM     18  H   UNL     1       7.339  -1.826  -1.497  0.00  0.00    +0.122 HD
ATOM     19  H   UNL     1       4.788  -3.787   0.465  0.00  0.00    -0.080 HD
ENDBRANCH   9  11
BRANCH   9  20
ATOM     20  C   UNL     1       3.250  -2.216   1.841  0.00  0.00    +0.200 C 
ATOM     21  O   UNL     1       2.700  -1.281   2.384  0.00  0.00    -0.278 OA
ATOM     22  N   UNL     1       3.541  -3.328   2.545  0.00  0.00    -0.330 N 
ATOM     23  H   UNL     1       3.980  -4.076   2.111  0.00  0.00    +0.145 HD
ATOM     24  H   UNL     1       3.311  -3.380   3.486  0.00  0.00    +0.145 HD
ENDBRANCH   9  20
TORSDOF 2
