REMARK  Name = ZINC24275732
REMARK  9 active torsions:
REMARK  status: ('A' for Active; 'I' for Inactive)
REMARK    1  A    between atoms: C_1  and  C_2
REMARK    2  A    between atoms: C_5  and  C_14
REMARK    3  A    between atoms: N_8  and  C_10
REMARK    4  A    between atoms: C_10  and  C_11
REMARK    5  A    between atoms: C_11  and  C_12
REMARK    6  A    between atoms: C_11  and  C_13
REMARK    7  A    between atoms: C_22  and  C_24
REMARK    8  A    between atoms: C_24  and  C_25
REMARK    9  A    between atoms: C_24  and  C_26
REMARK                            x       y       z     vdW  Elec       q    Type
REMARK                         _______ _______ _______ _____ _____    ______ ____
ROOT
ATOM      1  C   UNL     1      -0.809   3.272   0.284  0.00  0.00    +0.068 C 
ATOM      2  C   UNL     1      -1.424   3.781   1.562  0.00  0.00    +0.068 A 
ATOM      3  C   UNL     1      -0.714   4.043   2.779  0.00  0.00    +0.031 A 
ATOM      4  C   UNL     1       0.595   3.976   3.281  0.00  0.00    +0.032 A 
ATOM      5  C   UNL     1       0.842   4.340   4.571  0.00  0.00    +0.077 A 
ATOM      6  S   UNL     1      -0.775   4.806   5.163  0.00  0.00    -0.064 S 
ATOM      7  C   UNL     1      -1.693   4.495   3.677  0.00  0.00    +0.107 A 
ATOM      8  N   UNL     1      -2.883   4.502   3.048  0.00  0.00    -0.257 N 
ATOM      9  N   UNL     1      -2.681   4.058   1.735  0.00  0.00    -0.175 NA
ENDROOT
BRANCH   5  10
ATOM     10  C   UNL     1       2.119   4.347   5.292  0.00  0.00    +0.253 C 
ATOM     11  O   UNL     1       3.166   4.394   4.674  0.00  0.00    -0.269 OA
ATOM     12  N   UNL     1       2.132   4.302   6.639  0.00  0.00    -0.294 N 
ATOM     13  C   UNL     1       0.888   4.093   7.393  0.00  0.00    +0.127 C 
ATOM     14  C   UNL     1       1.077   2.877   8.314  0.00  0.00    +0.127 C 
ATOM     15  N   UNL     1       2.335   3.042   9.056  0.00  0.00    -0.298 N 
ATOM     16  C   UNL     1       3.578   3.256   8.302  0.00  0.00    +0.127 C 
ATOM     17  C   UNL     1       3.390   4.468   7.380  0.00  0.00    +0.127 C 
ATOM     18  C   UNL     1       2.348   2.997  10.403  0.00  0.00    +0.218 C 
ATOM     19  O   UNL     1       1.328   2.753  11.011  0.00  0.00    -0.275 OA
BRANCH  18  20
ATOM     20  C   UNL     1       3.631   3.250  11.152  0.00  0.00    +0.069 C 
ATOM     21  C   UNL     1       3.314   3.908  12.497  0.00  0.00    +0.017 C 
ATOM     22  C   UNL     1       4.352   1.922  11.392  0.00  0.00    +0.017 C 
ENDBRANCH  18  20
ENDBRANCH   5  10
BRANCH   8  23
ATOM     23  C   UNL     1      -4.164   4.907   3.633  0.00  0.00    +0.147 C 
BRANCH  23  24
ATOM     24  C   UNL     1      -4.376   6.406   3.409  0.00  0.00    +0.004 C 
ATOM     25  C   UNL     1      -5.766   6.805   3.908  0.00  0.00    +0.009 C 
ATOM     26  C   UNL     1      -3.312   7.192   4.178  0.00  0.00    +0.009 C 
ENDBRANCH  23  24
ENDBRANCH   8  23
TORSDOF 4
