REMARK  Name = ZINC46339409
REMARK  8 active torsions:
REMARK  status: ('A' for Active; 'I' for Inactive)
REMARK    1  A    between atoms: C_1  and  C_2
REMARK    2  A    between atoms: C_10  and  C_11
REMARK    3  A    between atoms: N_13  and  N_14
REMARK    4  A    between atoms: N_17  and  C_18
REMARK    5  A    between atoms: C_18  and  C_19
REMARK    6  A    between atoms: C_19  and  C_21
REMARK    7  A    between atoms: C_19  and  N_22
REMARK    8  A    between atoms: C_27  and  C_29
REMARK                            x       y       z     vdW  Elec       q    Type
REMARK                         _______ _______ _______ _____ _____    ______ ____
ROOT
ATOM      1  N   UNL     1       0.977  -0.793   5.097  0.00  0.00    -0.218 N 
ATOM      2  C   UNL     1       0.650  -1.726   6.013  0.00  0.00    +0.316 C 
ATOM      3  O   UNL     1       0.500  -1.409   7.177  0.00  0.00    -0.251 OA
ATOM      4  N   UNL     1       0.489  -3.011   5.638  0.00  0.00    -0.300 N 
ATOM      5  H   UNL     1       1.167   0.116   5.378  0.00  0.00    +0.174 HD
ATOM      6  H   UNL     1       0.681  -3.277   4.725  0.00  0.00    +0.150 HD
ENDROOT
BRANCH   1   9
ATOM      7  C   UNL     1       1.269  -0.182   2.815  0.00  0.00    +0.296 C 
ATOM      8  O   UNL     1       1.416   0.976   3.158  0.00  0.00    -0.265 OA
ATOM      9  N   UNL     1       1.042  -1.135   3.740  0.00  0.00    -0.227 N 
ATOM     10  H   UNL     1       0.925  -2.059   3.467  0.00  0.00    +0.173 HD
BRANCH   7  20
ATOM     11  C   UNL     1       1.778   1.818   0.488  0.00  0.00    +0.048 C 
ATOM     12  C   UNL     1       1.560   0.331   0.375  0.00  0.00    +0.008 A 
ATOM     13  C   UNL     1       1.552  -0.465  -0.852  0.00  0.00    +0.024 A 
ATOM     14  C   UNL     1       1.723  -0.169  -2.206  0.00  0.00    +0.012 A 
ATOM     15  C   UNL     1       1.655  -1.171  -3.132  0.00  0.00    +0.001 A 
ATOM     16  C   UNL     1       1.417  -2.480  -2.736  0.00  0.00    +0.004 A 
ATOM     17  C   UNL     1       1.246  -2.793  -1.405  0.00  0.00    +0.047 A 
ATOM     18  C   UNL     1       1.310  -1.791  -0.445  0.00  0.00    +0.136 A 
ATOM     19  O   UNL     1       1.187  -1.788   0.897  0.00  0.00    -0.450 OA
ATOM     20  C   UNL     1       1.338  -0.542   1.391  0.00  0.00    +0.195 A 
ENDBRANCH   7  20
ENDBRANCH   1   9
BRANCH   4  21
ATOM     21  C   UNL     1       0.024  -4.005   6.609  0.00  0.00    +0.090 C 
BRANCH  21  22
ATOM     22  C   UNL     1      -0.180  -5.348   5.905  0.00  0.00    -0.054 C 
ATOM     23  C   UNL     1      -0.536  -6.417   6.941  0.00  0.00    -0.012 C 
BRANCH  22  24
ATOM     24  N   UNL     1       1.057  -5.731   5.212  0.00  0.00    +0.384 N 
ATOM     25  C   UNL     1       2.140  -5.877   6.191  0.00  0.00    -0.078 C 
ATOM     26  C   UNL     1       3.449  -6.196   5.466  0.00  0.00    -0.019 C 
ATOM     27  C   UNL     1       3.287  -7.502   4.683  0.00  0.00    -0.003 C 
ATOM     28  C   UNL     1       2.107  -7.364   3.717  0.00  0.00    -0.016 C 
ATOM     29  C   UNL     1       0.848  -7.001   4.507  0.00  0.00    -0.071 C 
ATOM     30  C   UNL     1      -0.335  -6.862   3.546  0.00  0.00    -0.013 C 
ATOM     31  H   UNL     1       1.303  -5.014   4.545  0.00  0.00    -0.081 HD
ENDBRANCH  22  24
ENDBRANCH  21  22
ENDBRANCH   4  21
TORSDOF 5
