REMARK  Name = ZINC63619721
REMARK  5 active torsions:
REMARK  status: ('A' for Active; 'I' for Inactive)
REMARK    1  A    between atoms: C_6  and  C_10
REMARK    2  A    between atoms: C_10  and  S_11
REMARK    3  A    between atoms: S_11  and  C_12
REMARK    4  A    between atoms: C_16  and  C_26
REMARK    5  A    between atoms: N_18  and  C_19
REMARK                            x       y       z     vdW  Elec       q    Type
REMARK                         _______ _______ _______ _____ _____    ______ ____
ROOT
ATOM      1  C   UNL     1       3.454  -3.021  -4.035  0.00  0.00    +0.217 C 
ATOM      2  N   UNL     1       3.102  -4.451  -3.886  0.00  0.00    -0.226 NA
ATOM      3  N   UNL     1       4.194  -5.169  -4.562  0.00  0.00    -0.230 NA
ATOM      4  C   UNL     1       5.392  -4.362  -4.210  0.00  0.00    +0.189 C 
ATOM      5  N   UNL     1       4.911  -2.965  -4.242  0.00  0.00    -0.284 N 
ATOM      6  H   UNL     1       2.213  -4.652  -4.320  0.00  0.00    +0.143 HD
ATOM      7  H   UNL     1       4.277  -6.112  -4.213  0.00  0.00    +0.143 HD
ENDROOT
BRANCH   5   8
ATOM      8  C   UNL     1       5.686  -1.817  -4.431  0.00  0.00    +0.033 A 
ATOM      9  C   UNL     1       7.070  -1.915  -4.494  0.00  0.00    +0.024 A 
ATOM     10  C   UNL     1       7.833  -0.779  -4.681  0.00  0.00    +0.022 A 
ATOM     11  C   UNL     1       7.220   0.456  -4.804  0.00  0.00    +0.041 A 
ATOM     12  C   UNL     1       5.842   0.556  -4.742  0.00  0.00    +0.022 A 
ATOM     13  C   UNL     1       5.073  -0.578  -4.561  0.00  0.00    +0.024 A 
ATOM     14 CL   UNL     1       8.183   1.881  -5.038  0.00  0.00    -0.084 Cl
ENDBRANCH   5   8
BRANCH   4  15
ATOM     15  C   UNL     1       6.484  -4.570  -5.228  0.00  0.00    -0.009 A 
ATOM     16  C   UNL     1       7.701  -5.122  -4.859  0.00  0.00    +0.024 A 
ATOM     17  C   UNL     1       8.680  -5.298  -5.819  0.00  0.00    +0.083 A 
ATOM     18  N   UNL     1       8.466  -4.946  -7.072  0.00  0.00    -0.367 N 
ATOM     19  C   UNL     1       7.321  -4.418  -7.458  0.00  0.00    +0.083 A 
ATOM     20  C   UNL     1       6.294  -4.218  -6.555  0.00  0.00    +0.024 A 
ATOM     21  H   UNL     1       9.169  -5.079  -7.726  0.00  0.00    +0.165 HD
ENDBRANCH   4  15
BRANCH   1  22
ATOM     22  S   UNL     1       3.004  -2.110  -2.533  0.00  0.00    -0.118 S 
BRANCH  22  23
ATOM     23  C   UNL     1       3.924  -2.953  -1.216  0.00  0.00    +0.119 C 
BRANCH  23  29
ATOM     24  C   UNL     1       0.402   0.930   0.771  0.00  0.00    +0.002 A 
ATOM     25  C   UNL     1       1.510   1.776   0.587  0.00  0.00    +0.002 A 
ATOM     26  C   UNL     1       2.752   1.306   0.352  0.00  0.00    +0.027 A 
ATOM     27  C   UNL     1       2.977  -0.145   0.284  0.00  0.00    +0.060 A 
ATOM     28  N   UNL     1       4.040  -0.867   0.077  0.00  0.00    -0.363 N 
ATOM     29  C   UNL     1       3.632  -2.276   0.124  0.00  0.00    +0.184 C 
ATOM     30  N   UNL     1       2.187  -2.280   0.387  0.00  0.00    -0.363 N 
ATOM     31  C   UNL     1       1.804  -1.040   0.480  0.00  0.00    +0.060 A 
ATOM     32  C   UNL     1       0.498  -0.413   0.728  0.00  0.00    +0.027 A 
ATOM     33  H   UNL     1       4.938  -0.534  -0.080  0.00  0.00    +0.162 HD
ATOM     34  H   UNL     1       1.622  -3.063   0.474  0.00  0.00    +0.162 HD
ENDBRANCH  23  29
ENDBRANCH  22  23
ENDBRANCH   1  22
TORSDOF 5
