REMARK  Name = ZINC36743132
REMARK  4 active torsions:
REMARK  status: ('A' for Active; 'I' for Inactive)
REMARK    1  A    between atoms: C_3  and  S_6
REMARK    2  A    between atoms: S_6  and  N_9
REMARK    3  A    between atoms: N_9  and  C_10
REMARK    4  A    between atoms: C_15  and  N_16
REMARK                            x       y       z     vdW  Elec       q    Type
REMARK                         _______ _______ _______ _____ _____    ______ ____
ROOT
ATOM      1  C   UNL     1       4.490   0.969   2.395  0.00  0.00    +0.072 A 
ATOM      2  C   UNL     1       4.930  -0.256   1.917  0.00  0.00    +0.075 A 
ATOM      3  C   UNL     1       4.944  -1.365   2.750  0.00  0.00    +0.164 A 
ATOM      4  C   UNL     1       4.518  -1.249   4.067  0.00  0.00    +0.164 A 
ATOM      5  C   UNL     1       4.075  -0.025   4.547  0.00  0.00    +0.074 A 
ATOM      6  C   UNL     1       4.065   1.085   3.717  0.00  0.00    +0.051 A 
ATOM      7  O   UNL     1       4.533  -2.326   4.901  0.00  0.00    -0.485 OA
ATOM      8  C   UNL     1       4.628  -3.615   4.286  0.00  0.00    +0.270 C 
ATOM      9  C   UNL     1       5.733  -3.559   3.222  0.00  0.00    +0.270 C 
ATOM     10  O   UNL     1       5.377  -2.560   2.260  0.00  0.00    -0.485 OA
ENDROOT
BRANCH   6  11
ATOM     11  N   UNL     1       3.623   2.324   4.206  0.00  0.00    -0.356 N 
ATOM     12  H   UNL     1       3.613   3.099   3.624  0.00  0.00    +0.142 HD
ATOM     13  H   UNL     1       3.328   2.404   5.127  0.00  0.00    +0.142 HD
ENDBRANCH   6  11
BRANCH   1  14
ATOM     14  N   UNL     1       4.477   2.089   1.552  0.00  0.00    -0.214 N 
ATOM     15  H   UNL     1       4.680   2.968   1.909  0.00  0.00    +0.174 HD
BRANCH  14  16
ATOM     16  S   UNL     1       4.115   1.913  -0.054  0.00  0.00    +0.079 S 
ATOM     17  O   UNL     1       4.992   0.917  -0.561  0.00  0.00    -0.149 OA
ATOM     18  O   UNL     1       4.050   3.222  -0.603  0.00  0.00    -0.149 OA
BRANCH  16  21
ATOM     19  C   UNL     1       0.133   1.159  -0.286  0.00  0.00    +0.010 A 
ATOM     20  C   UNL     1       1.300   1.897  -0.215  0.00  0.00    +0.036 A 
ATOM     21  C   UNL     1       2.486   1.246  -0.151  0.00  0.00    +0.146 A 
ATOM     22  S   UNL     1       1.972  -0.463  -0.190  0.00  0.00    -0.077 S 
ATOM     23  C   UNL     1       0.210  -0.194  -0.289  0.00  0.00    +0.047 A 
ENDBRANCH  16  21
ENDBRANCH  14  16
ENDBRANCH   1  14
TORSDOF 4
