REMARK  Name = ZINC03021783
REMARK  9 active torsions:
REMARK  status: ('A' for Active; 'I' for Inactive)
REMARK    1  A    between atoms: C_1  and  C_2
REMARK    2  A    between atoms: C_5  and  N_9
REMARK    3  A    between atoms: C_7  and  C_8
REMARK    4  A    between atoms: C_10  and  C_12
REMARK    5  A    between atoms: C_12  and  S_13
REMARK    6  A    between atoms: S_13  and  C_14
REMARK    7  A    between atoms: C_18  and  C_22
REMARK    8  A    between atoms: N_25  and  C_26
REMARK    9  A    between atoms: C_30  and  C_32
REMARK                            x       y       z     vdW  Elec       q    Type
REMARK                         _______ _______ _______ _____ _____    ______ ____
ROOT
ATOM      1  C   UNL     1      -7.649   3.805  -0.356  0.00  0.00    +0.177 A 
ATOM      2  N   UNL     1      -7.402   5.087  -0.324  0.00  0.00    -0.201 NA
ATOM      3  C   UNL     1      -8.395   6.014  -0.400  0.00  0.00    +0.187 A 
ATOM      4  C   UNL     1      -9.785   5.548  -0.511  0.00  0.00    +0.082 A 
ATOM      5  C   UNL     1     -10.576   6.666  -0.565  0.00  0.00    +0.046 A 
ATOM      6  N   UNL     1      -9.771   7.741  -0.496  0.00  0.00    -0.279 N 
ATOM      7  H   UNL     1     -10.201   8.752  -0.523  0.00  0.00    +0.189 HD
ATOM      8  N   UNL     1      -8.438   7.327  -0.395  0.00  0.00    -0.153 NA
ATOM      9  C   UNL     1     -12.078   6.687  -0.681  0.00  0.00    +0.066 C 
ATOM     10  C   UNL     1     -10.019   4.094  -0.538  0.00  0.00    +0.124 A 
ATOM     11  N   UNL     1     -11.225   3.600  -0.634  0.00  0.00    -0.384 N 
ATOM     12  N   UNL     1      -8.906   3.272  -0.457  0.00  0.00    -0.275 N 
ATOM     13  H   UNL     1     -11.373   2.510  -0.652  0.00  0.00    +0.157 HD
ATOM     14  H   UNL     1     -12.092   4.274  -0.697  0.00  0.00    +0.157 HD
ENDROOT
BRANCH  12  15
ATOM     15  C   UNL     1      -9.068   1.880  -0.478  0.00  0.00    +0.051 A 
ATOM     16  C   UNL     1      -9.574   1.257  -1.612  0.00  0.00    +0.028 A 
ATOM     17  C   UNL     1      -9.728  -0.115  -1.633  0.00  0.00    +0.022 A 
ATOM     18  C   UNL     1      -9.391  -0.868  -0.521  0.00  0.00    +0.044 A 
ATOM     19  C   UNL     1      -8.892  -0.248   0.611  0.00  0.00    -0.030 A 
ATOM     20  C   UNL     1      -8.730   1.123   0.635  0.00  0.00    +0.031 A 
ATOM     21  C   UNL     1      -8.524  -1.071   1.819  0.00  0.00    +0.045 C 
ATOM     22 CL   UNL     1      -9.593  -2.592  -0.548  0.00  0.00    -0.083 Cl
ENDBRANCH  12  15
BRANCH   1  23
ATOM     23  S   UNL     1      -6.283   2.696  -0.257  0.00  0.00    -0.078 S 
BRANCH  23  24
ATOM     24  C   UNL     1      -4.921   3.883  -0.144  0.00  0.00    +0.173 C 
BRANCH  24  26
ATOM     25  N   UNL     1      -2.456   3.823   0.046  0.00  0.00    -0.285 N 
ATOM     26  C   UNL     1      -3.614   3.140  -0.048  0.00  0.00    +0.227 C 
ATOM     27  O   UNL     1      -3.604   1.927  -0.055  0.00  0.00    -0.275 OA
ATOM     28  H   UNL     1      -2.470   4.919   0.140  0.00  0.00    +0.155 HD
BRANCH  25  33
ATOM     29  C   UNL     1       2.490   1.045  -0.039  0.00  0.00    +0.044 C 
ATOM     30  C   UNL     1       1.176   1.784  -0.017  0.00  0.00    -0.047 A 
ATOM     31  C   UNL     1       0.104   1.307  -0.750  0.00  0.00    +0.005 A 
ATOM     32  C   UNL     1      -1.099   1.984  -0.735  0.00  0.00    +0.023 A 
ATOM     33  C   UNL     1      -1.236   3.138   0.025  0.00  0.00    +0.034 A 
ATOM     34  C   UNL     1      -0.158   3.615   0.758  0.00  0.00    +0.027 A 
ATOM     35  C   UNL     1       1.045   2.936   0.736  0.00  0.00    -0.046 A 
ATOM     36  C   UNL     1       2.216   3.452   1.532  0.00  0.00    +0.044 C 
ENDBRANCH  25  33
ENDBRANCH  24  26
ENDBRANCH  23  24
ENDBRANCH   1  23
TORSDOF 5
