REMARK  Name = ZINC14536792
REMARK  8 active torsions:
REMARK  status: ('A' for Active; 'I' for Inactive)
REMARK    1  A    between atoms: C_1  and  N_2
REMARK    2  A    between atoms: C_3  and  C_5
REMARK    3  A    between atoms: N_8  and  C_10
REMARK    4  A    between atoms: C_10  and  C_11
REMARK    5  A    between atoms: C_19  and  N_66
REMARK    6  A    between atoms: C_22  and  C_23
REMARK    7  A    between atoms: C_22  and  N_66
REMARK    8  A    between atoms: C_23  and  O_29
REMARK                            x       y       z     vdW  Elec       q    Type
REMARK                         _______ _______ _______ _____ _____    ______ ____
ROOT
ATOM      1  C   UNL     1       2.374   4.447   0.059  0.00  0.00    +0.150 A 
ATOM      2  C   UNL     1       1.381   3.475   0.268  0.00  0.00    +0.004 A 
ATOM      3  C   UNL     1       0.316   4.135   0.784  0.00  0.00    +0.043 A 
ATOM      4  N   UNL     1       0.656   5.431   0.873  0.00  0.00    -0.267 N 
ATOM      5  N   UNL     1       1.860   5.602   0.448  0.00  0.00    -0.166 NA
ATOM      6  C   UNL     1      -0.982   3.469   1.164  0.00  0.00    +0.054 C 
ATOM      7  C   UNL     1      -0.736   1.958   1.269  0.00  0.00    -0.009 C 
ATOM      8  C   UNL     1      -0.018   1.465   0.010  0.00  0.00    -0.067 C 
ATOM      9  C   UNL     1       1.422   1.996  -0.001  0.00  0.00    +0.023 C 
ENDROOT
BRANCH   1  12
ATOM     10  C   UNL     1       5.918   5.038  -1.177  0.00  0.00    +0.128 C 
ATOM     11  N   UNL     1       4.576   5.260  -0.633  0.00  0.00    -0.313 N 
ATOM     12  C   UNL     1       3.727   4.223  -0.489  0.00  0.00    +0.264 C 
ATOM     13  O   UNL     1       4.075   3.104  -0.810  0.00  0.00    -0.268 OA
ATOM     14  H   UNL     1       4.298   6.154  -0.378  0.00  0.00    +0.149 HD
ENDBRANCH   1  12
BRANCH   8  15
ATOM     15  N   UNL     1       0.010  -0.010   0.006  0.00  0.00    +0.383 N 
ATOM     16  H   UNL     1       0.113  -0.350   0.969  0.00  0.00    -0.085 HD
ATOM     17  H   UNL     1       0.806  -0.332  -0.557  0.00  0.00    -0.085 HD
BRANCH  15  18
ATOM     18  C   UNL     1      -1.239  -0.544  -0.569  0.00  0.00    -0.047 C 
BRANCH  18  19
ATOM     19  C   UNL     1      -1.181  -2.073  -0.560  0.00  0.00    +0.051 C 
ATOM     20  C   UNL     1       0.080  -2.540  -1.290  0.00  0.00    +0.033 C 
ATOM     21  C   UNL     1       0.138  -4.069  -1.282  0.00  0.00    +0.003 C 
ATOM     22  C   UNL     1      -1.098  -4.630  -1.988  0.00  0.00    +0.000 C 
ATOM     23  C   UNL     1      -2.359  -4.163  -1.258  0.00  0.00    +0.003 C 
ATOM     24  C   UNL     1      -2.417  -2.634  -1.267  0.00  0.00    +0.033 C 
BRANCH  19  25
ATOM     25  O   UNL     1      -1.151  -2.541   0.790  0.00  0.00    -0.390 OA
ATOM     26  H   UNL     1      -0.392  -2.224   1.299  0.00  0.00    +0.210 HD
ENDBRANCH  19  25
ENDBRANCH  18  19
ENDBRANCH  15  18
ENDBRANCH   8  15
BRANCH   4  27
ATOM     27  C   UNL     1      -0.214   6.495   1.379  0.00  0.00    +0.147 C 
BRANCH  27  28
ATOM     28  C   UNL     1      -0.015   6.642   2.889  0.00  0.00    +0.010 C 
ATOM     29  C   UNL     1      -0.485   5.366   3.592  0.00  0.00    +0.005 C 
ATOM     30  C   UNL     1      -0.286   5.512   5.102  0.00  0.00    +0.000 C 
ATOM     31  C   UNL     1      -1.100   6.704   5.610  0.00  0.00    +0.000 C 
ATOM     32  C   UNL     1      -0.631   7.979   4.908  0.00  0.00    +0.000 C 
ATOM     33  C   UNL     1      -0.830   7.833   3.398  0.00  0.00    +0.005 C 
ENDBRANCH  27  28
ENDBRANCH   4  27
TORSDOF 7
