REMARK  Name = ZINC02726052
REMARK  12 active torsions:
REMARK  status: ('A' for Active; 'I' for Inactive)
REMARK    1  A    between atoms: C_1  and  C_2
REMARK    2  A    between atoms: C_2  and  C_4
REMARK    3  A    between atoms: C_2  and  N_34
REMARK    4  A    between atoms: C_7  and  S_16
REMARK    5  A    between atoms: N_8  and  C_9
REMARK    6  A    between atoms: S_16  and  C_17
REMARK    7  A    between atoms: C_17  and  C_18
REMARK    8  A    between atoms: C_23  and  C_26
REMARK    9  A    between atoms: C_29  and  O_32
REMARK   10  A    between atoms: O_32  and  C_33
REMARK   11  A    between atoms: N_34  and  C_35
REMARK   12  A    between atoms: N_34  and  C_36
REMARK                            x       y       z     vdW  Elec       q    Type
REMARK                         _______ _______ _______ _____ _____    ______ ____
ROOT
ATOM      1  S   UNL     1       1.087  -2.101   4.767  0.00  0.00    -0.076 S 
ENDROOT
BRANCH   1   5
ATOM      2  C   UNL     1       0.731  -0.503   1.223  0.00  0.00    +0.125 A 
ATOM      3  N   UNL     1       2.020  -0.483   1.415  0.00  0.00    -0.135 NA
ATOM      4  N   UNL     1       2.304  -0.986   2.563  0.00  0.00    -0.122 NA
ATOM      5  C   UNL     1       1.202  -1.359   3.173  0.00  0.00    +0.197 A 
ATOM      6  N   UNL     1       0.161  -1.057   2.339  0.00  0.00    -0.275 N 
BRANCH   6   7
ATOM      7  C   UNL     1      -1.204  -1.273   2.575  0.00  0.00    +0.050 A 
ATOM      8  C   UNL     1      -2.070  -0.193   2.683  0.00  0.00    +0.028 A 
ATOM      9  C   UNL     1      -3.415  -0.407   2.915  0.00  0.00    +0.022 A 
ATOM     10  C   UNL     1      -3.899  -1.698   3.041  0.00  0.00    +0.041 A 
ATOM     11  C   UNL     1      -3.038  -2.776   2.934  0.00  0.00    +0.022 A 
ATOM     12  C   UNL     1      -1.693  -2.566   2.696  0.00  0.00    +0.028 A 
ATOM     13 CL   UNL     1      -5.589  -1.964   3.334  0.00  0.00    -0.084 Cl
ENDBRANCH   6   7
BRANCH   2  15
ATOM     14  C   UNL     1      -0.019   1.526   0.010  0.00  0.00    -0.005 C 
ATOM     15  C   UNL     1       0.002  -0.004   0.002  0.00  0.00    -0.003 C 
BRANCH  15  16
ATOM     16  N   UNL     1       0.690  -0.478  -1.207  0.00  0.00    +0.382 N 
ATOM     17  C   UNL     1       0.710  -1.947  -1.215  0.00  0.00    -0.096 C 
ATOM     18  C   UNL     1      -0.021   0.009  -2.397  0.00  0.00    -0.096 C 
ATOM     19  H   UNL     1       1.636  -0.129  -1.214  0.00  0.00    -0.082 HD
ENDBRANCH  15  16
ENDBRANCH   2  15
ENDBRANCH   1   5
BRANCH   1  20
ATOM     20  C   UNL     1       2.809  -2.211   5.326  0.00  0.00    +0.173 C 
BRANCH  20  21
ATOM     21  C   UNL     1       2.854  -2.837   6.696  0.00  0.00    +0.229 C 
ATOM     22  O   UNL     1       1.825  -3.175   7.242  0.00  0.00    -0.275 OA
ATOM     23  N   UNL     1       4.037  -3.021   7.315  0.00  0.00    -0.264 N 
ATOM     24  C   UNL     1       4.078  -3.597   8.578  0.00  0.00    +0.165 A 
ATOM     25  N   UNL     1       5.121  -3.855   9.345  0.00  0.00    -0.225 NA
ATOM     26  C   UNL     1       4.976  -4.415  10.537  0.00  0.00    +0.080 A 
ATOM     27  C   UNL     1       3.723  -4.732  10.982  0.00  0.00    +0.076 A 
ATOM     28  S   UNL     1       2.732  -4.180   9.600  0.00  0.00    -0.060 S 
ATOM     29  H   UNL     1       4.860  -2.751   6.878  0.00  0.00    +0.157 HD
BRANCH  26  30
ATOM     30  C   UNL     1       6.163  -4.696  11.381  0.00  0.00    +0.001 A 
ATOM     31  C   UNL     1       6.006  -5.291  12.632  0.00  0.00    +0.013 A 
ATOM     32  C   UNL     1       7.112  -5.551  13.414  0.00  0.00    +0.046 A 
ATOM     33  C   UNL     1       8.381  -5.221  12.957  0.00  0.00    +0.120 A 
ATOM     34  C   UNL     1       8.540  -4.628  11.712  0.00  0.00    +0.046 A 
ATOM     35  C   UNL     1       7.439  -4.370  10.923  0.00  0.00    +0.013 A 
BRANCH  33  36
ATOM     36  O   UNL     1       9.468  -5.478  13.730  0.00  0.00    -0.495 OA
ATOM     37  C   UNL     1      10.743  -5.113  13.198  0.00  0.00    +0.277 C 
ENDBRANCH  33  36
ENDBRANCH  26  30
ENDBRANCH  20  21
ENDBRANCH   1  20
TORSDOF 8
