REMARK  Name = ZINC65530999
REMARK  2 active torsions:
REMARK  status: ('A' for Active; 'I' for Inactive)
REMARK    1  A    between atoms: C_17  and  C_19
REMARK    2  A    between atoms: C_19  and  N_20
REMARK                            x       y       z     vdW  Elec       q    Type
REMARK                         _______ _______ _______ _____ _____    ______ ____
ROOT
ATOM      1  C   UNL     1      -0.017   1.378   0.010  0.00  0.00    +0.001 A 
ATOM      2  C   UNL     1       1.168   2.092   0.002  0.00  0.00    +0.004 A 
ATOM      3  C   UNL     1       2.386   1.436  -0.011  0.00  0.00    +0.046 A 
ATOM      4  C   UNL     1       2.422   0.055  -0.021  0.00  0.00    +0.129 A 
ATOM      5  C   UNL     1       1.221  -0.671  -0.017  0.00  0.00    +0.017 A 
ATOM      6  C   UNL     1       0.002  -0.004   0.002  0.00  0.00    +0.011 A 
ATOM      7  C   UNL     1       1.304  -2.147  -0.046  0.00  0.00    +0.011 C 
ATOM      8  C   UNL     1       2.453  -2.716   0.305  0.00  0.00    +0.021 C 
ATOM      9  C   UNL     1       3.632  -1.856   0.724  0.00  0.00    +0.131 C 
ATOM     10  O   UNL     1       3.593  -0.629  -0.033  0.00  0.00    -0.481 OA
ATOM     11  C   UNL     1       3.428  -1.488   2.198  0.00  0.00    +0.054 C 
ATOM     12  C   UNL     1       4.141  -0.203   2.519  0.00  0.00    +0.023 C 
ATOM     13  C   UNL     1       5.564  -0.497   3.037  0.00  0.00    +0.108 C 
ATOM     14  N   UNL     1       6.214  -1.583   2.280  0.00  0.00    -0.300 N 
ATOM     15  C   UNL     1       6.113  -1.691   0.842  0.00  0.00    +0.112 C 
ATOM     16  C   UNL     1       4.899  -2.570   0.472  0.00  0.00    +0.071 C 
ATOM     17  C   UNL     1       6.928  -2.507   2.953  0.00  0.00    +0.233 C 
ATOM     18  O   UNL     1       7.472  -3.409   2.351  0.00  0.00    -0.274 OA
ENDROOT
BRANCH  17  19
ATOM     19  C   UNL     1       7.052  -2.420   4.452  0.00  0.00    +0.203 C 
BRANCH  19  20
ATOM     20  N   UNL     1       7.871  -3.531   4.940  0.00  0.00    -0.293 N 
ATOM     21  C   UNL     1       7.340  -4.842   5.332  0.00  0.00    +0.109 C 
ATOM     22  C   UNL     1       8.558  -5.792   5.349  0.00  0.00    +0.028 C 
ATOM     23  C   UNL     1       9.723  -4.807   5.602  0.00  0.00    +0.097 C 
ATOM     24  C   UNL     1       9.207  -3.484   5.082  0.00  0.00    +0.216 C 
ATOM     25  O   UNL     1       9.898  -2.519   4.831  0.00  0.00    -0.276 OA
ENDBRANCH  19  20
ENDBRANCH  17  19
TORSDOF 2
