REMARK  Name = ZINC12127311
REMARK  7 active torsions:
REMARK  status: ('A' for Active; 'I' for Inactive)
REMARK    1  A    between atoms: C_1  and  C_2
REMARK    2  A    between atoms: C_2  and  C_3
REMARK    3  A    between atoms: C_2  and  N_4
REMARK    4  A    between atoms: C_5  and  C_7
REMARK    5  A    between atoms: C_10  and  S_22
REMARK    6  A    between atoms: C_13  and  N_58
REMARK    7  A    between atoms: S_22  and  C_23
REMARK                            x       y       z     vdW  Elec       q    Type
REMARK                         _______ _______ _______ _____ _____    ______ ____
ROOT
ATOM      1  C   UNL     1      -1.669   5.834  -1.256  0.00  0.00    +0.021 C 
ATOM      2  C   UNL     1      -1.128   5.237   0.061  0.00  0.00    +0.006 C 
ATOM      3  C   UNL     1      -0.013   4.262  -0.369  0.00  0.00    +0.037 C 
ATOM      4  C   UNL     1       0.027   4.352  -1.909  0.00  0.00    -0.063 C 
ATOM      5  N   UNL     1      -0.558   5.669  -2.190  0.00  0.00    +0.390 N 
ATOM      6  H   UNL     1       0.141   6.404  -2.035  0.00  0.00    -0.080 HD
ENDROOT
BRANCH   5   7
ATOM      7  C   UNL     1      -1.039   5.737  -3.606  0.00  0.00    -0.059 C 
ATOM      8  C   UNL     1      -2.163   4.703  -3.829  0.00  0.00    +0.020 C 
ATOM      9  C   UNL     1      -1.964   4.206  -5.248  0.00  0.00    -0.046 A 
ATOM     10  C   UNL     1      -2.829   3.527  -6.090  0.00  0.00    +0.004 A 
ATOM     11  C   UNL     1      -2.426   3.173  -7.362  0.00  0.00    +0.000 A 
ATOM     12  C   UNL     1      -1.156   3.498  -7.799  0.00  0.00    +0.000 A 
ATOM     13  C   UNL     1      -0.291   4.176  -6.962  0.00  0.00    +0.004 A 
ATOM     14  C   UNL     1      -0.693   4.531  -5.685  0.00  0.00    -0.046 A 
ATOM     15  C   UNL     1       0.052   5.265  -4.590  0.00  0.00    +0.020 C 
ENDBRANCH   5   7
BRANCH   1  17
ATOM     16  N   UNL     1      -3.247   7.642  -0.655  0.00  0.00    -0.314 N 
ATOM     17  C   UNL     1      -2.014   7.289  -1.070  0.00  0.00    +0.200 C 
ATOM     18  O   UNL     1      -1.183   8.143  -1.295  0.00  0.00    -0.278 OA
ATOM     19  H   UNL     1      -3.912   6.959  -0.475  0.00  0.00    +0.149 HD
BRANCH  16  21
ATOM     20  C   UNL     1      -5.093   9.245  -0.619  0.00  0.00    +0.027 C 
ATOM     21  C   UNL     1      -3.582   9.056  -0.474  0.00  0.00    +0.067 C 
ATOM     22  C   UNL     1      -3.142   9.512   0.918  0.00  0.00    +0.027 C 
ENDBRANCH  16  21
ENDBRANCH   1  17
BRANCH   3  23
ATOM     23  S   UNL     1      -0.415   2.576   0.152  0.00  0.00    -0.086 S 
BRANCH  23  24
ATOM     24  C   UNL     1       1.027   1.731  -0.406  0.00  0.00    +0.167 A 
ATOM     25  N   UNL     1       1.255   0.391  -0.265  0.00  0.00    -0.333 N 
ATOM     26  H   UNL     1       0.646  -0.272   0.169  0.00  0.00    +0.168 HD
ATOM     27  C   UNL     1       2.489   0.123  -0.835  0.00  0.00    +0.067 A 
ATOM     28  C   UNL     1       3.244  -1.029  -0.996  0.00  0.00    +0.028 A 
ATOM     29  C   UNL     1       4.470  -0.964  -1.626  0.00  0.00    +0.002 A 
ATOM     30  C   UNL     1       4.953   0.246  -2.101  0.00  0.00    +0.002 A 
ATOM     31  C   UNL     1       4.217   1.400  -1.950  0.00  0.00    +0.030 A 
ATOM     32  C   UNL     1       2.974   1.352  -1.314  0.00  0.00    +0.090 A 
ATOM     33  N   UNL     1       2.038   2.292  -1.022  0.00  0.00    -0.222 NA
ENDBRANCH  23  24
ENDBRANCH   3  23
TORSDOF 5
