REMARK  Name = ZINC67165159
REMARK  6 active torsions:
REMARK  status: ('A' for Active; 'I' for Inactive)
REMARK    1  A    between atoms: C_7  and  N_12
REMARK    2  A    between atoms: C_13  and  C_15
REMARK    3  A    between atoms: C_15  and  C_16
REMARK    4  A    between atoms: C_16  and  C_17
REMARK    5  A    between atoms: C_17  and  C_18
REMARK    6  A    between atoms: C_18  and  C_19
REMARK                            x       y       z     vdW  Elec       q    Type
REMARK                         _______ _______ _______ _____ _____    ______ ____
ROOT
ATOM      1  C   UNL     1      -1.445  -4.602   2.531  0.00  0.00    +0.096 C 
ENDROOT
BRANCH   1   3
ATOM      2  N   UNL     1      -0.075  -2.622   1.964  0.00  0.00    -0.314 N 
ATOM      3  C   UNL     1      -0.300  -3.942   1.808  0.00  0.00    +0.213 C 
ATOM      4  O   UNL     1       0.420  -4.598   1.086  0.00  0.00    -0.276 OA
ATOM      5  H   UNL     1      -0.651  -2.097   2.542  0.00  0.00    +0.149 HD
BRANCH   2  12
ATOM      6  C   UNL     1      -0.019   1.533   0.011  0.00  0.00    -0.003 C 
ATOM      7  C   UNL     1       1.404   2.090  -0.000  0.00  0.00    -0.019 C 
ATOM      8  C   UNL     1       2.236   1.477   1.137  0.00  0.00    -0.078 C 
ATOM      9  N   UNL     1       2.227   0.032   0.968  0.00  0.00    +0.383 N 
ATOM     10  C   UNL     1       3.058  -0.729   1.903  0.00  0.00    -0.077 C 
ATOM     11  C   UNL     1       2.353  -2.096   2.080  0.00  0.00    +0.002 C 
ATOM     12  C   UNL     1       1.038  -1.980   1.261  0.00  0.00    +0.058 C 
ATOM     13  C   UNL     1       0.840  -0.456   1.190  0.00  0.00    -0.048 C 
ATOM     14  C   UNL     1       0.002  -0.004   0.002  0.00  0.00    -0.014 C 
ATOM     15  H   UNL     1       2.510  -0.195   0.026  0.00  0.00    -0.081 HD
ENDBRANCH   2  12
ENDBRANCH   1   3
BRANCH   1  16
ATOM     16  C   UNL     1      -1.477  -6.091   2.184  0.00  0.00    +0.009 C 
BRANCH  16  17
ATOM     17  C   UNL     1      -2.640  -6.761   2.918  0.00  0.00    +0.002 C 
BRANCH  17  18
ATOM     18  C   UNL     1      -2.672  -8.251   2.571  0.00  0.00    +0.016 C 
BRANCH  18  19
ATOM     19  C   UNL     1      -3.835  -8.921   3.305  0.00  0.00    +0.069 C 
ATOM     20  C   UNL     1      -3.883 -10.400   3.016  0.00  0.00    +0.108 C 
ATOM     21  C   UNL     1      -5.353 -10.892   3.184  0.00  0.00    +0.105 C 
ATOM     22  C   UNL     1      -6.173 -10.067   2.195  0.00  0.00    +0.093 C 
ATOM     23  S   UNL     1      -5.466  -8.383   2.610  0.00  0.00    -0.154 S 
ATOM     24  N   UNL     1      -5.148 -12.310   2.996  0.00  0.00    -0.294 N 
ATOM     25  C   UNL     1      -3.905 -12.569   3.503  0.00  0.00    +0.300 C 
ATOM     26  O   UNL     1      -3.494 -13.688   3.742  0.00  0.00    -0.253 OA
ATOM     27  N   UNL     1      -3.188 -11.434   3.724  0.00  0.00    -0.294 N 
ATOM     28  H   UNL     1      -5.762 -12.945   2.595  0.00  0.00    +0.151 HD
ATOM     29  H   UNL     1      -2.375 -11.348   4.246  0.00  0.00    +0.151 HD
ENDBRANCH  18  19
ENDBRANCH  17  18
ENDBRANCH  16  17
ENDBRANCH   1  16
TORSDOF 6
