REMARK  Name = ZINC39631737
REMARK  14 active torsions:
REMARK  status: ('A' for Active; 'I' for Inactive)
REMARK    1  A    between atoms: C_1  and  C_2
REMARK    2  A    between atoms: C_2  and  S_3
REMARK    3  A    between atoms: S_3  and  C_4
REMARK    4  A    between atoms: C_5  and  C_10
REMARK    5  A    between atoms: C_14  and  C_23
REMARK    6  A    between atoms: N_25  and  C_26
REMARK    7  A    between atoms: C_26  and  C_28
REMARK    8  A    between atoms: C_26  and  C_29
REMARK    9  A    between atoms: C_29  and  C_30
REMARK   10  A    between atoms: C_30  and  C_31
REMARK   11  A    between atoms: C_31  and  C_32
REMARK   12  A    between atoms: C_32  and  C_33
REMARK   13  A    between atoms: C_32  and  C_34
REMARK   14  A    between atoms: C_32  and  O_35
REMARK                            x       y       z     vdW  Elec       q    Type
REMARK                         _______ _______ _______ _____ _____    ______ ____
ROOT
ATOM      1  C   UNL     1      -3.380  -2.477   0.648  0.00  0.00    +0.249 C 
ATOM      2  O   UNL     1      -3.564  -1.277   0.717  0.00  0.00    -0.270 OA
ATOM      3  N   UNL     1      -4.407  -3.301   0.360  0.00  0.00    -0.296 N 
ATOM      4  C   UNL     1      -4.393  -4.781   0.294  0.00  0.00    +0.121 C 
ATOM      5  C   UNL     1      -5.737  -5.213   0.923  0.00  0.00    +0.100 C 
ATOM      6  C   UNL     1      -6.660  -3.995   0.751  0.00  0.00    -0.004 C 
ATOM      7  C   UNL     1      -5.808  -2.931   0.045  0.00  0.00    +0.115 C 
ATOM      8  C   UNL     1      -7.115  -3.480   2.113  0.00  0.00    -0.010 C 
ATOM      9  C   UNL     1      -8.077  -2.305   1.913  0.00  0.00    -0.082 C 
ATOM     10  N   UNL     1      -9.233  -2.746   1.123  0.00  0.00    +0.379 N 
ATOM     11  C   UNL     1      -8.797  -3.153  -0.218  0.00  0.00    -0.082 C 
ATOM     12  C   UNL     1      -7.866  -4.363  -0.109  0.00  0.00    -0.010 C 
ATOM     13  H   UNL     1      -9.675  -3.527   1.584  0.00  0.00    -0.086 HD
ATOM     14  H   UNL     1      -9.894  -1.987   1.045  0.00  0.00    -0.086 HD
ENDROOT
BRANCH   1  16
ATOM     15  C   UNL     1      -1.075  -2.302   1.607  0.00  0.00    +0.109 A 
ATOM     16  C   UNL     1      -2.034  -3.031   0.881  0.00  0.00    +0.069 A 
ATOM     17  C   UNL     1      -1.687  -4.292   0.383  0.00  0.00    +0.017 A 
ATOM     18  C   UNL     1      -0.410  -4.767   0.629  0.00  0.00    +0.020 A 
ATOM     19  C   UNL     1       0.479  -3.991   1.351  0.00  0.00    +0.112 A 
ATOM     20  N   UNL     1       0.135  -2.803   1.808  0.00  0.00    -0.248 NA
BRANCH  15  21
ATOM     21  S   UNL     1      -1.482  -0.711   2.245  0.00  0.00    -0.105 S 
BRANCH  21  23
ATOM     22  C   UNL     1      -0.182   1.216   3.686  0.00  0.00    +0.015 C 
ATOM     23  C   UNL     1       0.036  -0.171   3.078  0.00  0.00    +0.072 C 
ENDBRANCH  21  23
ENDBRANCH  15  21
ENDBRANCH   1  16
BRANCH   5  24
ATOM     24  C   UNL     1      -5.553  -5.532   2.384  0.00  0.00    +0.218 C 
ATOM     25  O   UNL     1      -4.743  -4.915   3.043  0.00  0.00    -0.275 OA
ATOM     26  N   UNL     1      -6.289  -6.504   2.959  0.00  0.00    -0.312 N 
ATOM     27  H   UNL     1      -6.985  -6.950   2.452  0.00  0.00    +0.149 HD
BRANCH  26  28
ATOM     28  C   UNL     1      -6.038  -6.887   4.351  0.00  0.00    +0.070 C 
ATOM     29  C   UNL     1      -6.877  -6.010   5.281  0.00  0.00    +0.028 C 
BRANCH  28  30
ATOM     30  C   UNL     1      -6.419  -8.355   4.553  0.00  0.00    +0.022 C 
BRANCH  30  31
ATOM     31  C   UNL     1      -5.505  -9.241   3.704  0.00  0.00    +0.005 C 
BRANCH  31  32
ATOM     32  C   UNL     1      -5.963 -10.697   3.812  0.00  0.00    +0.034 C 
BRANCH  32  33
ATOM     33  C   UNL     1      -4.987 -11.596   3.051  0.00  0.00    +0.061 C 
ATOM     34  C   UNL     1      -3.594 -11.480   3.674  0.00  0.00    +0.041 C 
ATOM     35  C   UNL     1      -5.462 -13.048   3.131  0.00  0.00    +0.041 C 
BRANCH  33  36
ATOM     36  O   UNL     1      -4.931 -11.188   1.682  0.00  0.00    -0.389 OA
ATOM     37  H   UNL     1      -5.793 -11.165   1.244  0.00  0.00    +0.210 HD
ENDBRANCH  33  36
ENDBRANCH  32  33
ENDBRANCH  31  32
ENDBRANCH  30  31
ENDBRANCH  28  30
ENDBRANCH  26  28
ENDBRANCH   5  24
TORSDOF 10
