REMARK  Name = ZINC59798362
REMARK  9 active torsions:
REMARK  status: ('A' for Active; 'I' for Inactive)
REMARK    1  A    between atoms: C_1  and  C_2
REMARK    2  A    between atoms: C_2  and  O_3
REMARK    3  A    between atoms: O_3  and  C_4
REMARK    4  A    between atoms: C_7  and  C_10
REMARK    5  A    between atoms: C_10  and  C_12
REMARK    6  A    between atoms: C_10  and  N_13
REMARK    7  A    between atoms: N_13  and  C_14
REMARK    8  A    between atoms: C_14  and  C_15
REMARK    9  A    between atoms: C_18  and  O_22
REMARK                            x       y       z     vdW  Elec       q    Type
REMARK                         _______ _______ _______ _____ _____    ______ ____
ROOT
ATOM      1  N   UNL     1      -3.108  -6.458   0.883  0.00  0.00    +0.386 N 
ATOM      2  H   UNL     1      -2.938  -6.077   1.802  0.00  0.00    -0.085 HD
ATOM      3  H   UNL     1      -3.971  -6.085   0.518  0.00  0.00    -0.085 HD
ENDROOT
BRANCH   1   4
ATOM      4  C   UNL     1      -2.001  -6.092  -0.011  0.00  0.00    -0.044 C 
ATOM      5  C   UNL     1      -2.316  -6.562  -1.432  0.00  0.00    -0.009 C 
BRANCH   4   9
ATOM      6  C   UNL     1      -1.498  -1.848   0.006  0.00  0.00    +0.121 A 
ATOM      7  C   UNL     1      -0.388  -2.679  -0.003  0.00  0.00    +0.046 A 
ATOM      8  C   UNL     1      -0.553  -4.051  -0.008  0.00  0.00    +0.005 A 
ATOM      9  C   UNL     1      -1.823  -4.596  -0.005  0.00  0.00    -0.061 A 
ATOM     10  C   UNL     1      -2.932  -3.769   0.004  0.00  0.00    +0.005 A 
ATOM     11  C   UNL     1      -2.772  -2.397   0.016  0.00  0.00    +0.046 A 
BRANCH   6  12
ATOM     12  O   UNL     1      -1.339  -0.499   0.012  0.00  0.00    -0.492 OA
BRANCH  12  14
ATOM     13  C   UNL     1      -0.019   1.526   0.010  0.00  0.00    +0.048 C 
ATOM     14  C   UNL     1       0.002  -0.004   0.002  0.00  0.00    +0.225 C 
ENDBRANCH  12  14
ENDBRANCH   6  12
ENDBRANCH   4   9
ENDBRANCH   1   4
BRANCH   1  15
ATOM     15  C   UNL     1      -3.204  -7.921   0.970  0.00  0.00    -0.046 C 
BRANCH  15  16
ATOM     16  C   UNL     1      -4.339  -8.296   1.887  0.00  0.00    -0.063 A 
ATOM     17  C   UNL     1      -4.109  -8.457   3.241  0.00  0.00    +0.005 A 
ATOM     18  C   UNL     1      -5.148  -8.801   4.084  0.00  0.00    +0.047 A 
ATOM     19  C   UNL     1      -6.423  -8.986   3.571  0.00  0.00    +0.131 A 
ATOM     20  C   UNL     1      -6.652  -8.824   2.212  0.00  0.00    +0.059 A 
ATOM     21  C   UNL     1      -5.610  -8.475   1.373  0.00  0.00    +0.020 A 
ATOM     22 BR   UNL     1      -8.389  -9.076   1.508  0.00  0.00    -0.047 Br
BRANCH  19  23
ATOM     23  O   UNL     1      -7.447  -9.325   4.398  0.00  0.00    -0.506 OA
ATOM     24  H   UNL     1      -7.920  -8.568   4.770  0.00  0.00    +0.292 HD
ENDBRANCH  19  23
ENDBRANCH  15  16
ENDBRANCH   1  15
TORSDOF 7
