REMARK  Name = ZINC35075035
REMARK  15 active torsions:
REMARK  status: ('A' for Active; 'I' for Inactive)
REMARK    1  A    between atoms: C_1  and  C_2
REMARK    2  A    between atoms: C_7  and  C_8
REMARK    3  A    between atoms: C_7  and  C_9
REMARK    4  A    between atoms: C_11  and  O_13
REMARK    5  A    between atoms: O_13  and  C_14
REMARK    6  A    between atoms: C_14  and  C_15
REMARK    7  A    between atoms: C_15  and  C_16
REMARK    8  A    between atoms: C_16  and  C_18
REMARK    9  A    between atoms: C_16  and  O_25
REMARK   10  A    between atoms: C_18  and  N_19
REMARK   11  A    between atoms: N_19  and  C_20
REMARK   12  A    between atoms: C_20  and  C_21
REMARK   13  A    between atoms: C_20  and  C_22
REMARK   14  A    between atoms: C_20  and  C_23
REMARK   15  A    between atoms: C_23  and  O_24
REMARK                            x       y       z     vdW  Elec       q    Type
REMARK                         _______ _______ _______ _____ _____    ______ ____
ROOT
ATOM      1  C   UNL     1      -4.452   0.636   1.713  0.00  0.00    +0.057 C 
ENDROOT
BRANCH   1   2
ATOM      2  C   UNL     1      -3.634  -0.114   0.659  0.00  0.00    +0.162 C 
BRANCH   2   3
ATOM      3  O   UNL     1      -2.246  -0.034   0.988  0.00  0.00    -0.376 OA
BRANCH   3  13
ATOM      4  C   UNL     1      -0.019   1.526   0.010  0.00  0.00    +0.014 C 
ATOM      5  C   UNL     1       0.002  -0.004   0.002  0.00  0.00    -0.000 C 
ATOM      6  C   UNL     1       0.744  -0.669  -1.197  0.00  0.00    +0.010 C 
ATOM      7  C   UNL     1       1.062  -2.103  -0.714  0.00  0.00    +0.005 C 
ATOM      8  C   UNL     1       0.481  -2.169   0.732  0.00  0.00    -0.002 C 
ATOM      9  C   UNL     1       0.727  -0.695   1.211  0.00  0.00    -0.024 C 
ATOM     10  C   UNL     1       0.031  -0.400   2.541  0.00  0.00    +0.012 C 
ATOM     11  C   UNL     1       2.216  -0.348   1.260  0.00  0.00    +0.012 C 
ATOM     12  C   UNL     1      -1.065  -2.175   0.532  0.00  0.00    +0.036 C 
ATOM     13  C   UNL     1      -1.389  -0.705   0.062  0.00  0.00    +0.125 C 
ENDBRANCH   3  13
ENDBRANCH   2   3
ENDBRANCH   1   2
BRANCH   1  14
ATOM     14  C   UNL     1      -5.939   0.550   1.361  0.00  0.00    +0.100 C 
BRANCH  14  15
ATOM     15  O   UNL     1      -6.178   1.243   0.134  0.00  0.00    -0.394 OA
ATOM     16  H   UNL     1      -5.944   2.181   0.160  0.00  0.00    +0.210 HD
ENDBRANCH  14  15
BRANCH  14  17
ATOM     17  C   UNL     1      -6.765   1.191   2.478  0.00  0.00    -0.050 C 
BRANCH  17  18
ATOM     18  N   UNL     1      -8.195   1.003   2.198  0.00  0.00    +0.386 N 
ATOM     19  H   UNL     1      -8.425   1.438   1.317  0.00  0.00    -0.085 HD
ATOM     20  H   UNL     1      -8.402   0.017   2.150  0.00  0.00    -0.085 HD
BRANCH  18  21
ATOM     21  C   UNL     1      -8.989   1.618   3.270  0.00  0.00    -0.050 C 
ATOM     22  C   UNL     1      -8.639   0.959   4.606  0.00  0.00    -0.008 C 
ATOM     23  C   UNL     1      -8.675   3.114   3.343  0.00  0.00    -0.008 C 
BRANCH  21  24
ATOM     24  C   UNL     1     -10.478   1.423   2.979  0.00  0.00    +0.143 C 
BRANCH  24  25
ATOM     25  O   UNL     1     -11.250   2.021   4.022  0.00  0.00    -0.396 OA
ATOM     26  H   UNL     1     -12.205   1.935   3.903  0.00  0.00    +0.209 HD
ENDBRANCH  24  25
ENDBRANCH  21  24
ENDBRANCH  18  21
ENDBRANCH  17  18
ENDBRANCH  14  17
ENDBRANCH   1  14
TORSDOF 10
