REMARK  Name = ZINC43479864
REMARK  6 active torsions:
REMARK  status: ('A' for Active; 'I' for Inactive)
REMARK    1  A    between atoms: C_3  and  O_21
REMARK    2  A    between atoms: C_6  and  C_7
REMARK    3  A    between atoms: C_7  and  N_8
REMARK    4  A    between atoms: N_8  and  C_9
REMARK    5  A    between atoms: C_12  and  S_16
REMARK    6  A    between atoms: S_16  and  N_19
REMARK                            x       y       z     vdW  Elec       q    Type
REMARK                         _______ _______ _______ _____ _____    ______ ____
ROOT
ATOM      1  C   UNL     1      -2.910  -1.716  -1.615  0.00  0.00    +0.042 A 
ATOM      2  C   UNL     1      -3.680  -2.179  -0.555  0.00  0.00    +0.026 A 
ATOM      3  C   UNL     1      -4.849  -2.870  -0.803  0.00  0.00    +0.030 A 
ATOM      4  C   UNL     1      -5.255  -3.103  -2.105  0.00  0.00    +0.106 A 
ATOM      5  C   UNL     1      -4.492  -2.644  -3.163  0.00  0.00    +0.045 A 
ATOM      6  C   UNL     1      -3.323  -1.947  -2.922  0.00  0.00    +0.041 A 
ATOM      7 BR   UNL     1      -2.283  -1.314  -4.369  0.00  0.00    -0.048 Br
ENDROOT
BRANCH   4   8
ATOM      8  S   UNL     1      -6.747  -3.986  -2.416  0.00  0.00    +0.056 S 
ATOM      9  O   UNL     1      -6.625  -4.546  -3.716  0.00  0.00    -0.153 OA
ATOM     10  O   UNL     1      -6.996  -4.781  -1.265  0.00  0.00    -0.153 OA
BRANCH   8  11
ATOM     11  N   UNL     1      -7.969  -2.871  -2.494  0.00  0.00    -0.204 NA
ATOM     12  H   UNL     1      -7.774  -1.928  -2.374  0.00  0.00    +0.144 HD
ATOM     13  H   UNL     1      -8.880  -3.160  -2.660  0.00  0.00    +0.144 HD
ENDBRANCH   8  11
ENDBRANCH   4   8
BRANCH   1  14
ATOM     14  N   UNL     1      -1.727  -1.016  -1.368  0.00  0.00    -0.339 N 
ATOM     15  H   UNL     1      -1.192  -0.690  -2.108  0.00  0.00    +0.146 HD
BRANCH  14  16
ATOM     16  C   UNL     1      -1.293  -0.774   0.011  0.00  0.00    +0.137 C 
BRANCH  16  22
ATOM     17  C   UNL     1      -0.017   1.378   0.010  0.00  0.00    +0.009 A 
ATOM     18  C   UNL     1       1.170   2.087   0.002  0.00  0.00    +0.047 A 
ATOM     19  C   UNL     1       2.380   1.411  -0.013  0.00  0.00    +0.135 A 
ATOM     20  C   UNL     1       2.397   0.022  -0.021  0.00  0.00    +0.083 A 
ATOM     21  C   UNL     1       1.208  -0.682  -0.013  0.00  0.00    +0.028 A 
ATOM     22  C   UNL     1       0.002  -0.004   0.002  0.00  0.00    -0.029 A 
ATOM     23 CL   UNL     1       3.910  -0.828  -0.040  0.00  0.00    -0.080 Cl
BRANCH  19  24
ATOM     24  O   UNL     1       3.548   2.106  -0.021  0.00  0.00    -0.505 OA
ATOM     25  H   UNL     1       3.895   2.303   0.860  0.00  0.00    +0.292 HD
ENDBRANCH  19  24
ENDBRANCH  16  22
ENDBRANCH  14  16
ENDBRANCH   1  14
TORSDOF 6
