REMARK  Name = ZINC09601830
REMARK  12 active torsions:
REMARK  status: ('A' for Active; 'I' for Inactive)
REMARK    1  A    between atoms: C_1  and  C_2
REMARK    2  A    between atoms: C_2  and  O_3
REMARK    3  A    between atoms: O_3  and  C_4
REMARK    4  A    between atoms: C_6  and  C_19
REMARK    5  A    between atoms: C_9  and  O_10
REMARK    6  A    between atoms: O_10  and  C_11
REMARK    7  A    between atoms: C_11  and  C_12
REMARK    8  A    between atoms: C_19  and  C_21
REMARK    9  A    between atoms: C_19  and  N_32
REMARK   10  A    between atoms: C_30  and  O_31
REMARK   11  A    between atoms: N_32  and  C_33
REMARK   12  A    between atoms: C_35  and  C_38
REMARK                            x       y       z     vdW  Elec       q    Type
REMARK                         _______ _______ _______ _____ _____    ______ ____
ROOT
ATOM      1  C   UNL     1       1.452   2.354   4.684  0.00  0.00    +0.136 C 
ENDROOT
BRANCH   1   2
ATOM      2  C   UNL     1       1.772   3.345   3.594  0.00  0.00    +0.021 A 
ATOM      3  C   UNL     1       0.740   3.881   2.830  0.00  0.00    +0.010 A 
ATOM      4  C   UNL     1       0.996   4.778   1.838  0.00  0.00    +0.010 A 
ATOM      5  C   UNL     1       2.319   5.171   1.579  0.00  0.00    +0.004 A 
ATOM      6  C   UNL     1       2.623   6.096   0.561  0.00  0.00    +0.011 A 
ATOM      7  C   UNL     1       3.932   6.431   0.366  0.00  0.00    +0.020 A 
ATOM      8  C   UNL     1       4.922   5.860   1.163  0.00  0.00    +0.111 A 
ATOM      9  N   UNL     1       4.635   4.999   2.108  0.00  0.00    -0.251 NA
ATOM     10  C   UNL     1       3.375   4.629   2.352  0.00  0.00    +0.113 A 
ATOM     11  C   UNL     1       3.071   3.706   3.374  0.00  0.00    +0.148 A 
BRANCH  11  12
ATOM     12  O   UNL     1       4.065   3.176   4.134  0.00  0.00    -0.504 OA
ATOM     13  H   UNL     1       4.440   2.360   3.776  0.00  0.00    +0.292 HD
ENDBRANCH  11  12
ENDBRANCH   1   2
BRANCH   1  16
ATOM     14  C   UNL     1       2.796  -1.113   4.017  0.00  0.00    +0.164 A 
ATOM     15  C   UNL     1       2.672   0.177   4.507  0.00  0.00    +0.055 A 
ATOM     16  C   UNL     1       1.587   0.953   4.145  0.00  0.00    -0.018 A 
ATOM     17  C   UNL     1       0.628   0.449   3.286  0.00  0.00    +0.029 A 
ATOM     18  C   UNL     1       0.748  -0.836   2.789  0.00  0.00    +0.087 A 
ATOM     19  C   UNL     1       1.831  -1.621   3.152  0.00  0.00    +0.181 A 
ATOM     20 CL   UNL     1      -0.458  -1.466   1.710  0.00  0.00    -0.080 Cl
BRANCH  14  21
ATOM     21  O   UNL     1       3.860  -1.880   4.376  0.00  0.00    -0.489 OA
BRANCH  21  23
ATOM     22  C   UNL     1       5.928  -2.298   5.555  0.00  0.00    +0.048 C 
ATOM     23  C   UNL     1       4.810  -1.293   5.268  0.00  0.00    +0.226 C 
ENDBRANCH  21  23
ENDBRANCH  14  21
BRANCH  19  24
ATOM     24  O   UNL     1       1.951  -2.885   2.664  0.00  0.00    -0.482 OA
BRANCH  24  25
ATOM     25  C   UNL     1       2.666  -3.041   1.437  0.00  0.00    +0.264 C 
BRANCH  25  26
ATOM     26  C   UNL     1       2.696  -4.499   1.055  0.00  0.00    -0.010 A 
ATOM     27  C   UNL     1       3.732  -5.305   1.486  0.00  0.00    +0.007 A 
ATOM     28  C   UNL     1       3.757  -6.644   1.140  0.00  0.00    +0.000 A 
ATOM     29  C   UNL     1       2.751  -7.173   0.354  0.00  0.00    +0.000 A 
ATOM     30  C   UNL     1       1.718  -6.365  -0.083  0.00  0.00    +0.000 A 
ATOM     31  C   UNL     1       1.690  -5.028   0.268  0.00  0.00    +0.007 A 
ENDBRANCH  25  26
ENDBRANCH  24  25
ENDBRANCH  19  24
ENDBRANCH   1  16
BRANCH   1  32
ATOM     32  N   UNL     1       0.080   2.568   5.150  0.00  0.00    -0.320 N 
ATOM     33  H   UNL     1      -0.642   2.021   4.802  0.00  0.00    +0.148 HD
BRANCH  32  34
ATOM     34  C   UNL     1      -0.189   3.555   6.091  0.00  0.00    +0.097 A 
ATOM     35  C   UNL     1       0.861   4.268   6.661  0.00  0.00    +0.045 A 
ATOM     36  C   UNL     1       0.580   5.248   7.596  0.00  0.00    -0.046 A 
ATOM     37  C   UNL     1      -0.747   5.478   7.936  0.00  0.00    +0.021 A 
ATOM     38  C   UNL     1      -1.739   4.737   7.326  0.00  0.00    +0.084 A 
ATOM     39  C   UNL     1       1.688   6.042   8.237  0.00  0.00    +0.044 C 
ATOM     40  N   UNL     1      -1.500   3.767   6.404  0.00  0.00    -0.350 N 
ATOM     41  H   UNL     1      -2.258   3.228   5.970  0.00  0.00    +0.166 HD
ENDBRANCH  32  34
ENDBRANCH   1  32
TORSDOF 10
