REMARK  Name = ZINC08494100
REMARK  12 active torsions:
REMARK  status: ('A' for Active; 'I' for Inactive)
REMARK    1  A    between atoms: C_1  and  C_2
REMARK    2  A    between atoms: C_7  and  C_8
REMARK    3  A    between atoms: C_8  and  N_54
REMARK    4  A    between atoms: C_9  and  N_54
REMARK    5  A    between atoms: C_10  and  C_12
REMARK    6  A    between atoms: C_10  and  C_13
REMARK    7  A    between atoms: C_10  and  N_54
REMARK    8  A    between atoms: N_15  and  C_16
REMARK    9  A    between atoms: C_16  and  C_17
REMARK   10  A    between atoms: C_17  and  C_18
REMARK   11  A    between atoms: C_21  and  S_24
REMARK   12  A    between atoms: S_24  and  N_27
REMARK                            x       y       z     vdW  Elec       q    Type
REMARK                         _______ _______ _______ _____ _____    ______ ____
ROOT
ATOM      1  C   UNL     1      -3.360   0.751   4.389  0.00  0.00    +0.199 C 
ATOM      2  O   UNL     1      -4.087   0.227   3.572  0.00  0.00    -0.278 OA
ATOM      3  N   UNL     1      -3.867   1.193   5.557  0.00  0.00    -0.316 N 
ATOM      4  H   UNL     1      -3.286   1.612   6.211  0.00  0.00    +0.149 HD
ENDROOT
BRANCH   1   5
ATOM      5  C   UNL     1      -1.890   0.909   4.098  0.00  0.00    +0.016 C 
ATOM      6  C   UNL     1      -1.521   2.393   4.124  0.00  0.00    -0.004 C 
BRANCH   5   8
ATOM      7  C   UNL     1      -2.242   1.136   1.713  0.00  0.00    -0.095 C 
ATOM      8  N   UNL     1      -1.601   0.326   2.771  0.00  0.00    +0.388 N 
ATOM      9  H   UNL     1      -1.980  -0.628   2.736  0.00  0.00    -0.081 HD
BRANCH   8  10
ATOM     10  C   UNL     1      -0.141   0.271   2.550  0.00  0.00    -0.042 C 
BRANCH  10  17
ATOM     11  C   UNL     1      -0.329  -2.590   2.902  0.00  0.00    +0.044 C 
ATOM     12  C   UNL     1       0.049  -2.019   1.559  0.00  0.00    -0.049 A 
ATOM     13  C   UNL     1       0.311  -2.865   0.497  0.00  0.00    +0.003 A 
ATOM     14  C   UNL     1       0.653  -2.341  -0.735  0.00  0.00    +0.000 A 
ATOM     15  C   UNL     1       0.743  -0.972  -0.903  0.00  0.00    +0.000 A 
ATOM     16  C   UNL     1       0.486  -0.127   0.159  0.00  0.00    +0.002 A 
ATOM     17  C   UNL     1       0.139  -0.650   1.391  0.00  0.00    -0.061 A 
ENDBRANCH  10  17
ENDBRANCH   8  10
ENDBRANCH   5   8
ENDBRANCH   1   5
BRANCH   3  18
ATOM     18  C   UNL     1      -5.296   1.040   5.840  0.00  0.00    +0.109 C 
BRANCH  18  19
ATOM     19  C   UNL     1      -5.608   1.619   7.221  0.00  0.00    +0.054 C 
BRANCH  19  20
ATOM     20  C   UNL     1      -7.078   1.462   7.512  0.00  0.00    -0.046 A 
ATOM     21  C   UNL     1      -7.964   2.460   7.154  0.00  0.00    +0.005 A 
ATOM     22  C   UNL     1      -9.314   2.314   7.417  0.00  0.00    +0.029 A 
ATOM     23  C   UNL     1      -9.775   1.173   8.046  0.00  0.00    +0.105 A 
ATOM     24  C   UNL     1      -8.889   0.176   8.408  0.00  0.00    +0.029 A 
ATOM     25  C   UNL     1      -7.540   0.321   8.141  0.00  0.00    +0.005 A 
BRANCH  23  26
ATOM     26  S   UNL     1     -11.495   0.988   8.385  0.00  0.00    +0.056 S 
ATOM     27  O   UNL     1     -12.183   1.816   7.457  0.00  0.00    -0.153 OA
ATOM     28  O   UNL     1     -11.741  -0.408   8.488  0.00  0.00    -0.153 OA
BRANCH  26  29
ATOM     29  N   UNL     1     -11.769   1.629   9.886  0.00  0.00    -0.204 NA
ATOM     30  H   UNL     1     -12.630   2.025  10.095  0.00  0.00    +0.144 HD
ATOM     31  H   UNL     1     -11.069   1.609  10.558  0.00  0.00    +0.144 HD
ENDBRANCH  26  29
ENDBRANCH  23  26
ENDBRANCH  19  20
ENDBRANCH  18  19
ENDBRANCH   3  18
TORSDOF 9
