REMARK  Name = ZINC19952901
REMARK  10 active torsions:
REMARK  status: ('A' for Active; 'I' for Inactive)
REMARK    1  A    between atoms: C_1  and  O_2
REMARK    2  A    between atoms: O_2  and  C_3
REMARK    3  A    between atoms: C_3  and  C_5
REMARK    4  A    between atoms: C_5  and  C_6
REMARK    5  A    between atoms: C_6  and  C_7
REMARK    6  A    between atoms: N_10  and  C_28
REMARK    7  A    between atoms: C_13  and  N_15
REMARK    8  A    between atoms: N_18  and  C_21
REMARK    9  A    between atoms: C_28  and  C_29
REMARK   10  A    between atoms: C_30  and  C_31
REMARK                            x       y       z     vdW  Elec       q    Type
REMARK                         _______ _______ _______ _____ _____    ______ ____
ROOT
ATOM      1  C   UNL     1      -2.327   0.922  -2.847  0.00  0.00    -0.010 C 
ATOM      2  C   UNL     1      -1.877   0.645  -1.411  0.00  0.00    +0.086 C 
ATOM      3  N   UNL     1      -0.523   1.175  -1.210  0.00  0.00    -0.297 NA
ATOM      4  C   UNL     1      -0.488   2.631  -1.402  0.00  0.00    +0.083 C 
ATOM      5  C   UNL     1      -0.896   2.967  -2.838  0.00  0.00    +0.000 C 
ATOM      6  C   UNL     1      -2.307   2.432  -3.101  0.00  0.00    -0.063 C 
ENDROOT
BRANCH   6   7
ATOM      7  N   UNL     1      -2.681   2.701  -4.496  0.00  0.00    +0.384 N 
ATOM      8  C   UNL     1      -2.651   4.142  -4.781  0.00  0.00    -0.059 C 
ATOM      9  C   UNL     1      -2.969   4.374  -6.260  0.00  0.00    +0.086 C 
ATOM     10  N   UNL     1      -4.289   3.806  -6.570  0.00  0.00    -0.331 N 
ATOM     11  C   UNL     1      -4.319   2.365  -6.285  0.00  0.00    +0.086 C 
ATOM     12  C   UNL     1      -4.001   2.133  -4.805  0.00  0.00    -0.059 C 
ATOM     13  H   UNL     1      -1.940   2.211  -5.144  0.00  0.00    -0.081 HD
BRANCH  10  14
ATOM     14  C   UNL     1      -4.645   4.061  -7.897  0.00  0.00    +0.065 A 
ATOM     15  C   UNL     1      -5.893   3.677  -8.370  0.00  0.00    +0.026 A 
ATOM     16  C   UNL     1      -6.242   3.930  -9.682  0.00  0.00    +0.002 A 
ATOM     17  C   UNL     1      -5.351   4.567 -10.526  0.00  0.00    +0.003 A 
ATOM     18  C   UNL     1      -4.108   4.953 -10.060  0.00  0.00    +0.040 A 
ATOM     19  C   UNL     1      -3.753   4.707  -8.747  0.00  0.00    +0.144 A 
ATOM     20  F   UNL     1      -2.540   5.089  -8.290  0.00  0.00    -0.204 F 
ENDBRANCH  10  14
ENDBRANCH   6   7
BRANCH   1  21
ATOM     21  C   UNL     1      -1.376   0.228  -3.824  0.00  0.00    +0.014 C 
BRANCH  21  22
ATOM     22  C   UNL     1      -1.484  -1.289  -3.650  0.00  0.00    +0.121 C 
BRANCH  22  23
ATOM     23  C   UNL     1      -0.548  -1.973  -4.612  0.00  0.00    +0.307 C 
ATOM     24  O   UNL     1       0.136  -1.315  -5.361  0.00  0.00    -0.251 OA
BRANCH  23  26
ATOM     25  C   UNL     1       0.450  -3.904  -5.590  0.00  0.00    +0.280 C 
ATOM     26  O   UNL     1      -0.474  -3.313  -4.638  0.00  0.00    -0.468 OA
ENDBRANCH  23  26
ENDBRANCH  22  23
ENDBRANCH  21  22
ENDBRANCH   1  21
BRANCH   3  27
ATOM     27  C   UNL     1      -0.004   0.806   0.114  0.00  0.00    +0.132 C 
BRANCH  27  28
ATOM     28  C   UNL     1      -0.931   1.330   1.181  0.00  0.00    +0.033 C 
ATOM     29  C   UNL     1      -1.595   0.483   1.958  0.00  0.00    +0.024 C 
ATOM     30 CL   UNL     1      -1.131   3.042   1.392  0.00  0.00    -0.087 Cl
BRANCH  29  31
ATOM     31  C   UNL     1      -2.364   0.989   3.114  0.00  0.00    -0.024 A 
ATOM     32  C   UNL     1      -1.876   2.058   3.867  0.00  0.00    +0.008 A 
ATOM     33  C   UNL     1      -2.601   2.529   4.942  0.00  0.00    +0.001 A 
ATOM     34  C   UNL     1      -3.805   1.937   5.280  0.00  0.00    +0.000 A 
ATOM     35  C   UNL     1      -4.292   0.873   4.541  0.00  0.00    +0.001 A 
ATOM     36  C   UNL     1      -3.579   0.396   3.461  0.00  0.00    +0.008 A 
ENDBRANCH  29  31
ENDBRANCH  27  28
ENDBRANCH   3  27
TORSDOF 9
