REMARK  Name = ZINC53618143
REMARK  10 active torsions:
REMARK  status: ('A' for Active; 'I' for Inactive)
REMARK    1  A    between atoms: C_1  and  C_2
REMARK    2  A    between atoms: C_2  and  C_3
REMARK    3  A    between atoms: C_2  and  C_4
REMARK    4  A    between atoms: C_2  and  C_5
REMARK    5  A    between atoms: C_5  and  C_7
REMARK    6  A    between atoms: C_5  and  N_12
REMARK    7  A    between atoms: N_12  and  C_13
REMARK    8  A    between atoms: C_13  and  C_14
REMARK    9  A    between atoms: C_17  and  C_19
REMARK   10  A    between atoms: C_22  and  C_25
REMARK                            x       y       z     vdW  Elec       q    Type
REMARK                         _______ _______ _______ _____ _____    ______ ____
ROOT
ATOM      1  C   UNL     1      -1.291  -3.414  -0.921  0.00  0.00    +0.032 A 
ATOM      2  C   UNL     1      -1.615  -3.971   0.278  0.00  0.00    +0.068 A 
ATOM      3  S   UNL     1      -1.782  -5.689  -0.192  0.00  0.00    -0.075 S 
ATOM      4  C   UNL     1      -1.405  -5.478  -1.927  0.00  0.00    +0.108 A 
ATOM      5  N   UNL     1      -1.198  -4.169  -1.988  0.00  0.00    -0.246 NA
ENDROOT
BRANCH   4   6
ATOM      6  C   UNL     1      -1.344  -6.489  -3.003  0.00  0.00    +0.007 A 
ATOM      7  C   UNL     1      -1.019  -6.103  -4.306  0.00  0.00    +0.011 A 
ATOM      8  C   UNL     1      -0.962  -7.044  -5.308  0.00  0.00    +0.014 A 
ATOM      9  C   UNL     1      -1.229  -8.386  -5.022  0.00  0.00    +0.037 A 
ATOM     10  C   UNL     1      -1.554  -8.771  -3.719  0.00  0.00    +0.014 A 
ATOM     11  C   UNL     1      -1.606  -7.831  -2.716  0.00  0.00    +0.011 A 
BRANCH   9  12
ATOM     12  C   UNL     1      -1.169  -9.396  -6.098  0.00  0.00    +0.242 C 
ATOM     13  O   UNL     1      -0.886  -9.060  -7.232  0.00  0.00    -0.270 OA
ATOM     14  N   UNL     1      -1.427 -10.690  -5.823  0.00  0.00    -0.325 N 
ATOM     15  H   UNL     1      -1.652 -10.957  -4.918  0.00  0.00    +0.145 HD
ATOM     16  H   UNL     1      -1.387 -11.353  -6.529  0.00  0.00    +0.145 HD
ENDBRANCH   9  12
ENDBRANCH   4   6
BRANCH   1  17
ATOM     17  C   UNL     1      -1.045  -1.931  -1.023  0.00  0.00    -0.025 C 
BRANCH  17  18
ATOM     18  N   UNL     1       0.395  -1.664  -0.913  0.00  0.00    +0.388 N 
ATOM     19  H   UNL     1       0.883  -2.142  -1.656  0.00  0.00    -0.084 HD
ATOM     20  H   UNL     1       0.732  -1.996  -0.021  0.00  0.00    -0.084 HD
BRANCH  18  21
ATOM     21  C   UNL     1       0.635  -0.219  -1.019  0.00  0.00    -0.028 C 
BRANCH  21  22
ATOM     22  C   UNL     1       0.272   0.250  -2.404  0.00  0.00    -0.024 A 
ATOM     23  C   UNL     1      -0.353   1.392  -2.783  0.00  0.00    +0.009 A 
ATOM     24  C   UNL     1      -0.584   1.616  -4.127  0.00  0.00    +0.008 A 
ATOM     25  C   UNL     1      -0.179   0.687  -5.027  0.00  0.00    +0.045 A 
ATOM     26  S   UNL     1       0.562  -0.550  -3.974  0.00  0.00    -0.103 S 
ENDBRANCH  21  22
BRANCH  21  28
ATOM     27  C   UNL     1       2.380   1.568  -0.947  0.00  0.00    +0.009 C 
ATOM     28  C   UNL     1       2.113   0.074  -0.752  0.00  0.00    -0.046 C 
ATOM     29  C   UNL     1       2.976  -0.730  -1.727  0.00  0.00    +0.009 C 
ATOM     30  C   UNL     1       2.460  -0.323   0.684  0.00  0.00    +0.009 C 
ENDBRANCH  21  28
ENDBRANCH  18  21
ENDBRANCH  17  18
ENDBRANCH   1  17
TORSDOF 7
