REMARK  Name = ZINC66907810
REMARK  7 active torsions:
REMARK  status: ('A' for Active; 'I' for Inactive)
REMARK    1  A    between atoms: C_10  and  C_11
REMARK    2  A    between atoms: C_10  and  O_29
REMARK    3  A    between atoms: C_11  and  N_12
REMARK    4  A    between atoms: N_15  and  C_16
REMARK    5  A    between atoms: C_16  and  C_17
REMARK    6  A    between atoms: C_17  and  C_19
REMARK    7  A    between atoms: C_17  and  N_24
REMARK                            x       y       z     vdW  Elec       q    Type
REMARK                         _______ _______ _______ _____ _____    ______ ____
ROOT
ATOM      1  N   UNL     1       5.166   1.364   0.132  0.00  0.00    -0.296 N 
ATOM      2  C   UNL     1       5.955   2.187   0.851  0.00  0.00    +0.300 C 
ATOM      3  O   UNL     1       6.609   1.746   1.776  0.00  0.00    -0.253 OA
ATOM      4  N   UNL     1       6.019   3.498   0.545  0.00  0.00    -0.301 N 
ATOM      5  H   UNL     1       4.644   1.716  -0.607  0.00  0.00    +0.150 HD
ATOM      6  H   UNL     1       5.497   3.849  -0.193  0.00  0.00    +0.150 HD
ENDROOT
BRANCH   1   7
ATOM      7  C   UNL     1       5.097  -0.061   0.464  0.00  0.00    +0.145 C 
BRANCH   7  17
ATOM      8  C   UNL     1       4.177  -4.944   0.427  0.00  0.00    +0.000 A 
ATOM      9  C   UNL     1       4.062  -3.975   1.406  0.00  0.00    +0.000 A 
ATOM     10  C   UNL     1       4.092  -2.641   1.057  0.00  0.00    +0.007 A 
ATOM     11  C   UNL     1       4.237  -2.263  -0.272  0.00  0.00    -0.011 A 
ATOM     12  C   UNL     1       4.357  -3.228  -1.247  0.00  0.00    -0.041 A 
ATOM     13  C   UNL     1       4.323  -4.571  -0.893  0.00  0.00    +0.004 A 
ATOM     14  C   UNL     1       4.533  -2.890  -2.704  0.00  0.00    +0.035 C 
ATOM     15  C   UNL     1       4.123  -1.444  -2.974  0.00  0.00    +0.008 C 
ATOM     16  C   UNL     1       4.846  -0.540  -1.969  0.00  0.00    +0.041 C 
ATOM     17  C   UNL     1       4.253  -0.789  -0.584  0.00  0.00    +0.107 C 
BRANCH  17  18
ATOM     18  O   UNL     1       2.917  -0.285  -0.545  0.00  0.00    -0.382 OA
ATOM     19  H   UNL     1       2.480  -0.393   0.311  0.00  0.00    +0.211 HD
ENDBRANCH  17  18
ENDBRANCH   7  17
ENDBRANCH   1   7
BRANCH   4  20
ATOM     20  C   UNL     1       6.876   4.392   1.327  0.00  0.00    +0.098 C 
BRANCH  20  21
ATOM     21  C   UNL     1       6.665   5.835   0.863  0.00  0.00    +0.016 C 
BRANCH  21  22
ATOM     22  N   UNL     1       7.617   6.715   1.554  0.00  0.00    +0.387 N 
ATOM     23  C   UNL     1       9.009   6.363   1.174  0.00  0.00    -0.078 C 
ATOM     24  C   UNL     1       9.801   7.656   1.492  0.00  0.00    -0.020 C 
ATOM     25  C   UNL     1       8.814   8.775   1.087  0.00  0.00    -0.020 C 
ATOM     26  C   UNL     1       7.423   8.116   1.122  0.00  0.00    -0.078 C 
ATOM     27  H   UNL     1       7.499   6.639   2.554  0.00  0.00    -0.081 HD
ENDBRANCH  21  22
BRANCH  21  28
ATOM     28  C   UNL     1       5.258   6.265   1.186  0.00  0.00    +0.093 A 
ATOM     29  C   UNL     1       4.228   6.299   0.321  0.00  0.00    +0.043 A 
ATOM     30  C   UNL     1       3.103   6.761   1.042  0.00  0.00    +0.041 A 
ATOM     31  C   UNL     1       3.512   6.982   2.304  0.00  0.00    +0.195 A 
ATOM     32  O   UNL     1       4.817   6.674   2.387  0.00  0.00    -0.469 OA
ENDBRANCH  21  28
ENDBRANCH  20  21
ENDBRANCH   4  20
TORSDOF 7
