REMARK  Name = ZINC12729159
REMARK  9 active torsions:
REMARK  status: ('A' for Active; 'I' for Inactive)
REMARK    1  A    between atoms: C_1  and  N_52
REMARK    2  A    between atoms: C_2  and  C_3
REMARK    3  A    between atoms: C_2  and  N_52
REMARK    4  A    between atoms: N_5  and  C_6
REMARK    5  A    between atoms: C_6  and  C_7
REMARK    6  A    between atoms: C_7  and  C_8
REMARK    7  A    between atoms: C_11  and  S_14
REMARK    8  A    between atoms: S_14  and  N_17
REMARK    9  A    between atoms: C_18  and  N_52
REMARK                            x       y       z     vdW  Elec       q    Type
REMARK                         _______ _______ _______ _____ _____    ______ ____
ROOT
ATOM      1  C   UNL     1       0.232   2.250  -4.707  0.00  0.00    +0.196 C 
ATOM      2  O   UNL     1       1.412   2.017  -4.553  0.00  0.00    -0.278 OA
ATOM      3  N   UNL     1      -0.252   2.494  -5.941  0.00  0.00    -0.317 N 
ATOM      4  H   UNL     1      -1.196   2.680  -6.064  0.00  0.00    +0.149 HD
ENDROOT
BRANCH   1   5
ATOM      5  C   UNL     1      -0.694   2.266  -3.518  0.00  0.00    +0.019 C 
BRANCH   5   7
ATOM      6  C   UNL     1       0.916   3.113  -1.921  0.00  0.00    -0.095 C 
ATOM      7  N   UNL     1       0.087   1.951  -2.304  0.00  0.00    +0.388 N 
ATOM      8  H   UNL     1       0.702   1.153  -2.501  0.00  0.00    -0.081 HD
BRANCH   7   9
ATOM      9  C   UNL     1      -0.824   1.593  -1.196  0.00  0.00    -0.037 C 
ATOM     10  C   UNL     1      -1.888   2.687  -0.968  0.00  0.00    -0.006 C 
ATOM     11  C   UNL     1      -3.128   1.868  -0.553  0.00  0.00    +0.034 C 
ATOM     12  C   UNL     1      -2.929   0.504  -1.186  0.00  0.00    -0.046 A 
ATOM     13  C   UNL     1      -1.606   0.348  -1.557  0.00  0.00    -0.058 A 
ATOM     14  C   UNL     1      -1.193  -0.827  -2.161  0.00  0.00    +0.002 A 
ATOM     15  C   UNL     1      -2.099  -1.844  -2.394  0.00  0.00    +0.000 A 
ATOM     16  C   UNL     1      -3.421  -1.688  -2.024  0.00  0.00    +0.000 A 
ATOM     17  C   UNL     1      -3.835  -0.516  -1.421  0.00  0.00    +0.004 A 
ENDBRANCH   7   9
ENDBRANCH   5   7
ENDBRANCH   1   5
BRANCH   3  18
ATOM     18  C   UNL     1       0.648   2.478  -7.097  0.00  0.00    +0.109 C 
BRANCH  18  19
ATOM     19  C   UNL     1      -0.147   2.783  -8.368  0.00  0.00    +0.054 C 
BRANCH  19  20
ATOM     20  C   UNL     1       0.778   2.767  -9.556  0.00  0.00    -0.046 A 
ATOM     21  C   UNL     1       1.410   3.930  -9.957  0.00  0.00    +0.005 A 
ATOM     22  C   UNL     1       2.263   3.914 -11.044  0.00  0.00    +0.029 A 
ATOM     23  C   UNL     1       2.477   2.737 -11.738  0.00  0.00    +0.105 A 
ATOM     24  C   UNL     1       1.841   1.576 -11.341  0.00  0.00    +0.029 A 
ATOM     25  C   UNL     1       0.992   1.591 -10.250  0.00  0.00    +0.005 A 
BRANCH  23  26
ATOM     26  S   UNL     1       3.561   2.718 -13.127  0.00  0.00    +0.056 S 
ATOM     27  O   UNL     1       4.453   3.812 -12.961  0.00  0.00    -0.153 OA
ATOM     28  O   UNL     1       4.015   1.379 -13.269  0.00  0.00    -0.153 OA
BRANCH  26  29
ATOM     29  N   UNL     1       2.646   3.052 -14.466  0.00  0.00    -0.204 NA
ATOM     30  H   UNL     1       3.044   3.507 -15.225  0.00  0.00    +0.144 HD
ATOM     31  H   UNL     1       1.711   2.794 -14.492  0.00  0.00    +0.144 HD
ENDBRANCH  26  29
ENDBRANCH  23  26
ENDBRANCH  19  20
ENDBRANCH  18  19
ENDBRANCH   3  18
TORSDOF 8
