REMARK  Name = ZINC36660444
REMARK  10 active torsions:
REMARK  status: ('A' for Active; 'I' for Inactive)
REMARK    1  A    between atoms: C_1  and  C_2
REMARK    2  A    between atoms: C_2  and  C_3
REMARK    3  A    between atoms: C_2  and  N_4
REMARK    4  A    between atoms: C_10  and  N_16
REMARK    5  A    between atoms: C_11  and  C_12
REMARK    6  A    between atoms: C_12  and  O_14
REMARK    7  A    between atoms: O_14  and  C_15
REMARK    8  A    between atoms: C_17  and  C_19
REMARK    9  A    between atoms: N_24  and  S_25
REMARK   10  A    between atoms: S_25  and  C_28
REMARK                            x       y       z     vdW  Elec       q    Type
REMARK                         _______ _______ _______ _____ _____    ______ ____
ROOT
ATOM      1  N   UNL     1       2.893  -0.393   6.910  0.00  0.00    -0.278 N 
ATOM      2  C   UNL     1       2.027  -0.268   7.936  0.00  0.00    +0.236 C 
ATOM      3  O   UNL     1       0.869   0.019   7.721  0.00  0.00    -0.274 OA
ATOM      4  H   UNL     1       3.819  -0.622   7.082  0.00  0.00    +0.155 HD
ENDROOT
BRANCH   1  11
ATOM      5  N   UNL     1       1.000   0.900   1.025  0.00  0.00    +0.384 N 
ATOM      6  C   UNL     1       1.989  -0.159   0.783  0.00  0.00    -0.073 C 
ATOM      7  C   UNL     1       3.126  -0.064   1.806  0.00  0.00    +0.018 C 
ATOM      8  C   UNL     1       2.503  -0.021   3.195  0.00  0.00    -0.025 A 
ATOM      9  C   UNL     1       1.192   0.275   3.343  0.00  0.00    -0.021 A 
ATOM     10  S   UNL     1       0.913   0.207   5.086  0.00  0.00    -0.079 S 
ATOM     11  C   UNL     1       2.458  -0.193   5.609  0.00  0.00    +0.086 A 
ATOM     12  C   UNL     1       3.201  -0.279   4.439  0.00  0.00    +0.091 A 
ATOM     13  C   UNL     1       0.229   0.589   2.242  0.00  0.00    -0.035 C 
ATOM     14  H   UNL     1       1.476   1.782   1.145  0.00  0.00    -0.081 HD
BRANCH   5  16
ATOM     15  C   UNL     1      -1.012   2.009   0.177  0.00  0.00    -0.014 C 
ATOM     16  C   UNL     1       0.088   0.988  -0.123  0.00  0.00    -0.074 C 
ATOM     17  C   UNL     1       0.869   1.429  -1.363  0.00  0.00    -0.014 C 
ENDBRANCH   5  16
BRANCH  12  18
ATOM     18  C   UNL     1       4.627  -0.614   4.461  0.00  0.00    +0.342 C 
ATOM     19  O   UNL     1       5.458   0.270   4.548  0.00  0.00    -0.245 OA
BRANCH  18  20
ATOM     20  O   UNL     1       5.018  -1.902   4.386  0.00  0.00    -0.464 OA
ATOM     21  C   UNL     1       6.423  -2.156   4.413  0.00  0.00    +0.280 C 
ENDBRANCH  18  20
ENDBRANCH  12  18
ENDBRANCH   1  11
BRANCH   2  22
ATOM     22  C   UNL     1       2.499  -0.484   9.351  0.00  0.00    +0.166 C 
ATOM     23  C   UNL     1       2.462  -1.989   9.692  0.00  0.00    +0.031 C 
ATOM     24  C   UNL     1       1.976  -1.999  11.165  0.00  0.00    +0.019 C 
ATOM     25  C   UNL     1       0.985  -0.808  11.175  0.00  0.00    +0.110 C 
ATOM     26  N   UNL     1       1.599   0.202  10.289  0.00  0.00    -0.165 NA
BRANCH  26  27
ATOM     27  S   UNL     1       1.322   1.834  10.341  0.00  0.00    +0.062 S 
ATOM     28  O   UNL     1       1.722   2.355   9.081  0.00  0.00    -0.153 OA
ATOM     29  O   UNL     1       0.008   2.006  10.854  0.00  0.00    -0.153 OA
BRANCH  27  30
ATOM     30  C   UNL     1       2.423   2.511  11.539  0.00  0.00    +0.106 A 
ATOM     31  C   UNL     1       2.073   2.513  12.876  0.00  0.00    +0.030 A 
ATOM     32  C   UNL     1       2.936   3.044  13.816  0.00  0.00    +0.022 A 
ATOM     33  C   UNL     1       4.151   3.573  13.418  0.00  0.00    +0.041 A 
ATOM     34  C   UNL     1       4.500   3.571  12.080  0.00  0.00    +0.022 A 
ATOM     35  C   UNL     1       3.639   3.035  11.142  0.00  0.00    +0.030 A 
ATOM     36 CL   UNL     1       5.235   4.241  14.598  0.00  0.00    -0.084 Cl
ENDBRANCH  27  30
ENDBRANCH  26  27
ENDBRANCH   2  22
TORSDOF 7
