REMARK  Name = ZINC51144529
REMARK  7 active torsions:
REMARK  status: ('A' for Active; 'I' for Inactive)
REMARK    1  A    between atoms: C_1  and  N_2
REMARK    2  A    between atoms: N_2  and  C_3
REMARK    3  A    between atoms: N_2  and  C_15
REMARK    4  A    between atoms: C_3  and  C_4
REMARK    5  A    between atoms: C_6  and  N_12
REMARK    6  A    between atoms: C_9  and  N_10
REMARK    7  A    between atoms: N_10  and  N_11
REMARK                            x       y       z     vdW  Elec       q    Type
REMARK                         _______ _______ _______ _____ _____    ______ ____
ROOT
ATOM      1  C   UNL     1       2.137  -0.060  -1.158  0.00  0.00    -0.040 A 
ATOM      2  C   UNL     1       2.560   1.050  -1.863  0.00  0.00    +0.036 A 
ATOM      3  C   UNL     1       3.887   1.434  -1.819  0.00  0.00    +0.126 A 
ATOM      4  C   UNL     1       4.796   0.710  -1.069  0.00  0.00    +0.034 A 
ATOM      5  C   UNL     1       4.379  -0.401  -0.361  0.00  0.00    +0.026 A 
ATOM      6  C   UNL     1       3.045  -0.786  -0.399  0.00  0.00    +0.042 A 
ENDROOT
BRANCH   3   7
ATOM      7  N   UNL     1       4.338   2.623  -2.577  0.00  0.00    +0.056 N 
ATOM      8  O   UNL     1       3.545   3.257  -3.233  0.00  0.00    -0.126 OA
ATOM      9  O   UNL     1       5.498   2.960  -2.539  0.00  0.00    -0.126 OA
ENDBRANCH   3   7
BRANCH   6  10
ATOM     10  N   UNL     1       2.619  -1.905   0.321  0.00  0.00    -0.283 N 
ATOM     11  H   UNL     1       1.688  -2.176   0.290  0.00  0.00    +0.166 HD
BRANCH  10  12
ATOM     12  N   UNL     1       3.514  -2.619   1.067  0.00  0.00    -0.257 NA
ATOM     13  H   UNL     1       3.983  -2.025   1.734  0.00  0.00    +0.140 HD
ATOM     14  H   UNL     1       3.063  -3.395   1.527  0.00  0.00    +0.140 HD
ENDBRANCH  10  12
ENDBRANCH   6  10
BRANCH   1  15
ATOM     15  C   UNL     1       0.690  -0.478  -1.207  0.00  0.00    -0.041 C 
BRANCH  15  17
ATOM     16  C   UNL     1      -0.018   1.465   0.010  0.00  0.00    -0.095 C 
ATOM     17  N   UNL     1       0.002  -0.004   0.002  0.00  0.00    +0.384 N 
ATOM     18  H   UNL     1       0.490  -0.338   0.820  0.00  0.00    -0.081 HD
BRANCH  17  19
ATOM     19  C   UNL     1      -1.376  -0.512   0.012  0.00  0.00    -0.046 C 
ATOM     20  C   UNL     1      -1.353  -2.050   0.017  0.00  0.00    +0.009 C 
ATOM     21  C   UNL     1      -2.788  -2.555   0.342  0.00  0.00    +0.164 C 
ATOM     22  S   UNL     1      -3.276  -1.359   1.657  0.00  0.00    -0.033 S 
ATOM     23  O   UNL     1      -4.603  -0.916   1.408  0.00  0.00    -0.174 OA
ATOM     24  O   UNL     1      -2.948  -1.908   2.926  0.00  0.00    -0.174 OA
ATOM     25  C   UNL     1      -2.106   0.006   1.275  0.00  0.00    +0.151 C 
ENDBRANCH  17  19
ENDBRANCH  15  17
ENDBRANCH   1  15
TORSDOF 6
