REMARK  Name = ZINC63315525
REMARK  4 active torsions:
REMARK  status: ('A' for Active; 'I' for Inactive)
REMARK    1  A    between atoms: C_7  and  C_26
REMARK    2  A    between atoms: N_14  and  C_15
REMARK    3  A    between atoms: C_15  and  C_16
REMARK    4  A    between atoms: C_16  and  C_17
REMARK                            x       y       z     vdW  Elec       q    Type
REMARK                         _______ _______ _______ _____ _____    ______ ____
ROOT
ATOM      1  C   UNL     1      -0.016   1.337   0.009  0.00  0.00    +0.033 C 
ATOM      2  C   UNL     1       0.002  -0.004   0.002  0.00  0.00    +0.031 C 
ATOM      3  C   UNL     1      -1.248  -0.784   0.004  0.00  0.00    +0.090 C 
ATOM      4  C   UNL     1      -1.182  -2.119   0.198  0.00  0.00    +0.249 C 
ATOM      5  O   UNL     1      -2.319  -2.853   0.236  0.00  0.00    -0.270 OA
ATOM      6  N   UNL     1       0.041  -2.739   0.356  0.00  0.00    -0.215 N 
ATOM      7  C   UNL     1       0.131  -4.204   0.383  0.00  0.00    +0.211 C 
ATOM      8  N   UNL     1       1.244  -4.603   1.248  0.00  0.00    -0.335 N 
ATOM      9  C   UNL     1       2.247  -3.797   1.469  0.00  0.00    +0.193 C 
ATOM     10  N   UNL     1       2.273  -2.544   0.982  0.00  0.00    -0.186 NA
ATOM     11  C   UNL     1       1.196  -2.007   0.453  0.00  0.00    +0.199 C 
ATOM     12  N   UNL     1       1.214  -0.715  -0.013  0.00  0.00    -0.287 N 
ATOM     13  N   UNL     1       3.311  -4.245   2.226  0.00  0.00    -0.315 N 
ATOM     14  H   UNL     1       2.032  -0.307  -0.339  0.00  0.00    +0.155 HD
ATOM     15  H   UNL     1       3.307  -5.146   2.584  0.00  0.00    +0.149 HD
ATOM     16  H   UNL     1       1.235  -5.480   1.663  0.00  0.00    +0.164 HD
ENDROOT
BRANCH   7  17
ATOM     17  C   UNL     1       0.368  -4.719  -1.013  0.00  0.00    -0.007 A 
ATOM     18  C   UNL     1      -0.120  -4.018  -2.100  0.00  0.00    +0.007 A 
ATOM     19  C   UNL     1       0.098  -4.491  -3.381  0.00  0.00    +0.000 A 
ATOM     20  C   UNL     1       0.803  -5.664  -3.575  0.00  0.00    +0.000 A 
ATOM     21  C   UNL     1       1.291  -6.364  -2.487  0.00  0.00    +0.000 A 
ATOM     22  C   UNL     1       1.078  -5.889  -1.207  0.00  0.00    +0.007 A 
ENDBRANCH   7  17
BRANCH  13  23
ATOM     23  C   UNL     1       4.448  -3.358   2.487  0.00  0.00    +0.109 C 
BRANCH  23  24
ATOM     24  C   UNL     1       5.482  -4.093   3.342  0.00  0.00    +0.052 C 
BRANCH  24  25
ATOM     25  C   UNL     1       6.651  -3.181   3.611  0.00  0.00    -0.040 C 
ATOM     26  C   UNL     1       6.843  -2.404   4.701  0.00  0.00    -0.001 A 
ATOM     27  C   UNL     1       6.049  -2.182   5.915  0.00  0.00    +0.010 A 
ATOM     28  C   UNL     1       6.510  -1.323   6.853  0.00  0.00    +0.001 A 
ATOM     29  C   UNL     1       7.724  -0.640   6.693  0.00  0.00    +0.002 A 
ATOM     30  C   UNL     1       8.508  -0.791   5.605  0.00  0.00    +0.026 A 
ATOM     31  C   UNL     1       8.121  -1.671   4.556  0.00  0.00    +0.043 A 
ATOM     32  N   UNL     1       8.697  -1.983   3.421  0.00  0.00    -0.380 N 
ATOM     33  C   UNL     1       7.852  -2.955   2.719  0.00  0.00    +0.144 C 
ATOM     34  H   UNL     1       9.543  -1.633   3.101  0.00  0.00    +0.160 HD
ENDBRANCH  24  25
ENDBRANCH  23  24
ENDBRANCH  13  23
TORSDOF 4
