REMARK  Name = ZINC13831072
REMARK  4 active torsions:
REMARK  status: ('A' for Active; 'I' for Inactive)
REMARK    1  A    between atoms: C_6  and  C_7
REMARK    2  A    between atoms: C_10  and  C_24
REMARK    3  A    between atoms: C_13  and  C_15
REMARK    4  A    between atoms: C_29  and  O_30
REMARK                            x       y       z     vdW  Elec       q    Type
REMARK                         _______ _______ _______ _____ _____    ______ ____
ROOT
ATOM      1  C   UNL     1      -1.293  -0.775   0.011  0.00  0.00    +0.081 C 
ATOM      2  N   UNL     1      -1.083  -2.063   0.681  0.00  0.00    +0.401 N 
ATOM      3  C   UNL     1      -0.818  -1.821   2.109  0.00  0.00    -0.028 C 
ATOM      4  C   UNL     1      -2.107  -1.303   2.755  0.00  0.00    +0.044 C 
ATOM      5  C   UNL     1      -2.683  -0.204   1.907  0.00  0.00    +0.040 C 
ATOM      6  N   UNL     1      -2.312   0.007   0.700  0.00  0.00    -0.299 NA
ATOM      7  H   UNL     1      -1.909  -2.634   0.582  0.00  0.00    -0.081 HD
ATOM      8  H   UNL     1      -0.294  -2.535   0.266  0.00  0.00    -0.081 HD
ENDROOT
BRANCH   5   9
ATOM      9  C   UNL     1      -3.720   0.668   2.489  0.00  0.00    -0.001 A 
ATOM     10  C   UNL     1      -4.144   0.469   3.806  0.00  0.00    +0.013 A 
ATOM     11  C   UNL     1      -5.113   1.285   4.348  0.00  0.00    +0.050 A 
ATOM     12  C   UNL     1      -5.671   2.306   3.591  0.00  0.00    +0.166 A 
ATOM     13  C   UNL     1      -5.252   2.510   2.276  0.00  0.00    +0.167 A 
ATOM     14  C   UNL     1      -4.277   1.699   1.728  0.00  0.00    +0.059 A 
ATOM     15  O   UNL     1      -5.947   3.564   1.756  0.00  0.00    -0.453 OA
ATOM     16  C   UNL     1      -7.082   3.741   2.625  0.00  0.00    +0.466 C 
ATOM     17  O   UNL     1      -6.626   3.232   3.892  0.00  0.00    -0.453 OA
ENDBRANCH   5   9
BRANCH   1  23
ATOM     18  C   UNL     1      -0.017   1.378   0.010  0.00  0.00    +0.005 A 
ATOM     19  C   UNL     1       1.171   2.086   0.002  0.00  0.00    +0.020 A 
ATOM     20  C   UNL     1       2.378   1.410  -0.013  0.00  0.00    +0.041 A 
ATOM     21  C   UNL     1       2.396   0.027  -0.021  0.00  0.00    +0.020 A 
ATOM     22  C   UNL     1       1.208  -0.679  -0.013  0.00  0.00    +0.005 A 
ATOM     23  C   UNL     1       0.002  -0.004   0.002  0.00  0.00    -0.040 A 
ATOM     24 CL   UNL     1       3.870   2.298  -0.023  0.00  0.00    -0.084 Cl
ENDBRANCH   1  23
BRANCH   3  25
ATOM     25  C   UNL     1      -0.397  -3.107   2.772  0.00  0.00    -0.018 A 
ATOM     26  C   UNL     1      -0.692  -4.319   2.180  0.00  0.00    +0.020 A 
ATOM     27  C   UNL     1      -0.305  -5.500   2.788  0.00  0.00    +0.018 A 
ATOM     28  C   UNL     1       0.378  -5.469   3.991  0.00  0.00    +0.019 A 
ATOM     29  C   UNL     1       0.675  -4.259   4.587  0.00  0.00    +0.047 A 
ATOM     30  C   UNL     1       0.293  -3.073   3.975  0.00  0.00    +0.119 A 
ATOM     31 BR   UNL     1      -0.710  -7.158   1.975  0.00  0.00    -0.050 Br
BRANCH  30  32
ATOM     32  O   UNL     1       0.588  -1.881   4.557  0.00  0.00    -0.507 OA
ATOM     33  H   UNL     1      -0.092  -1.561   5.165  0.00  0.00    +0.292 HD
ENDBRANCH  30  32
ENDBRANCH   3  25
TORSDOF 4
