REMARK  Name = ZINC20106833
REMARK  13 active torsions:
REMARK  status: ('A' for Active; 'I' for Inactive)
REMARK    1  A    between atoms: C_1  and  C_2
REMARK    2  A    between atoms: C_2  and  C_3
REMARK    3  A    between atoms: C_2  and  C_4
REMARK    4  A    between atoms: C_7  and  N_10
REMARK    5  A    between atoms: C_11  and  C_13
REMARK    6  A    between atoms: N_24  and  C_36
REMARK    7  A    between atoms: C_25  and  C_27
REMARK    8  A    between atoms: N_29  and  C_30
REMARK    9  A    between atoms: C_36  and  C_37
REMARK   10  A    between atoms: C_37  and  C_38
REMARK   11  A    between atoms: C_38  and  N_39
REMARK   12  A    between atoms: N_39  and  C_40
REMARK   13  A    between atoms: N_39  and  C_41
REMARK                            x       y       z     vdW  Elec       q    Type
REMARK                         _______ _______ _______ _____ _____    ______ ____
ROOT
ATOM      1  C   UNL     1      -1.257   2.753  -1.444  0.00  0.00    +0.123 C 
ATOM      2  C   UNL     1      -1.099   2.146  -0.019  0.00  0.00    +0.155 C 
ATOM      3  C   UNL     1       0.140   1.243  -0.047  0.00  0.00    +0.004 C 
ATOM      4  C   UNL     1       1.213   2.041  -0.096  0.00  0.00    +0.009 C 
ATOM      5  C   UNL     1       0.634   3.409  -0.133  0.00  0.00    +0.127 C 
ATOM      6  C   UNL     1       0.013   3.614  -1.564  0.00  0.00    +0.128 C 
ATOM      7  C   UNL     1      -0.227   5.098  -1.562  0.00  0.00    +0.223 C 
ATOM      8  O   UNL     1      -1.059   5.676  -2.228  0.00  0.00    -0.275 OA
ATOM      9  N   UNL     1       0.635   5.689  -0.696  0.00  0.00    -0.287 N 
ATOM     10  C   UNL     1       1.418   4.671   0.046  0.00  0.00    +0.198 C 
ATOM     11  O   UNL     1      -0.553   3.315   0.700  0.00  0.00    -0.358 OA
ENDROOT
BRANCH   1  13
ATOM     12  N   UNL     1      -3.108   3.781  -2.724  0.00  0.00    -0.285 N 
ATOM     13  C   UNL     1      -2.497   3.604  -1.535  0.00  0.00    +0.224 C 
ATOM     14  O   UNL     1      -2.946   4.131  -0.539  0.00  0.00    -0.275 OA
ATOM     15  H   UNL     1      -2.747   3.244  -3.613  0.00  0.00    +0.155 HD
BRANCH  12  19
ATOM     16  C   UNL     1      -6.363   6.364  -3.030  0.00  0.00    -0.045 A 
ATOM     17  C   UNL     1      -5.464   6.260  -4.075  0.00  0.00    +0.006 A 
ATOM     18  C   UNL     1      -4.383   5.405  -3.977  0.00  0.00    +0.023 A 
ATOM     19  C   UNL     1      -4.201   4.649  -2.826  0.00  0.00    +0.033 A 
ATOM     20  C   UNL     1      -5.108   4.752  -1.780  0.00  0.00    +0.023 A 
ATOM     21  C   UNL     1      -6.183   5.613  -1.883  0.00  0.00    +0.006 A 
BRANCH  16  23
ATOM     22  C   UNL     1      -8.839   6.499  -3.015  0.00  0.00    +0.012 C 
ATOM     23  C   UNL     1      -7.540   7.298  -3.141  0.00  0.00    +0.013 C 
ATOM     24  C   UNL     1      -7.471   8.340  -2.022  0.00  0.00    +0.012 C 
ENDBRANCH  16  23
ENDBRANCH  12  19
ENDBRANCH   1  13
BRANCH  10  25
ATOM     25  C   UNL     1       2.795   4.527  -0.548  0.00  0.00    +0.237 C 
ATOM     26  O   UNL     1       3.034   4.989  -1.644  0.00  0.00    -0.274 OA
ATOM     27  N   UNL     1       3.761   3.884   0.137  0.00  0.00    -0.311 N 
ATOM     28  H   UNL     1       3.544   3.465   1.131  0.00  0.00    +0.149 HD
BRANCH  27  29
ATOM     29  C   UNL     1       5.100   3.744  -0.441  0.00  0.00    +0.073 C 
ATOM     30  C   UNL     1       5.135   2.516  -1.354  0.00  0.00    +0.022 C 
ATOM     31  C   UNL     1       6.533   2.369  -1.958  0.00  0.00    +0.002 C 
ATOM     32  C   UNL     1       7.558   2.199  -0.835  0.00  0.00    +0.000 C 
ATOM     33  C   UNL     1       7.523   3.426   0.078  0.00  0.00    +0.002 C 
ATOM     34  C   UNL     1       6.125   3.573   0.682  0.00  0.00    +0.022 C 
ENDBRANCH  27  29
ENDBRANCH  10  25
BRANCH   9  35
ATOM     35  C   UNL     1       0.774   7.137  -0.519  0.00  0.00    +0.107 C 
BRANCH  35  36
ATOM     36  C   UNL     1      -0.189   7.612   0.570  0.00  0.00    +0.000 C 
BRANCH  36  37
ATOM     37  C   UNL     1      -0.044   9.124   0.754  0.00  0.00    -0.078 C 
BRANCH  37  38
ATOM     38  N   UNL     1      -0.969   9.581   1.800  0.00  0.00    +0.376 N 
ATOM     39  C   UNL     1      -0.595   9.032   3.110  0.00  0.00    -0.097 C 
ATOM     40  C   UNL     1      -1.032  11.048   1.843  0.00  0.00    -0.097 C 
ATOM     41  H   UNL     1      -1.973   9.207   1.550  0.00  0.00    -0.083 HD
ENDBRANCH  37  38
ENDBRANCH  36  37
ENDBRANCH  35  36
ENDBRANCH   9  35
TORSDOF 9
