REMARK  Name = ZINC21258397
REMARK  9 active torsions:
REMARK  status: ('A' for Active; 'I' for Inactive)
REMARK    1  A    between atoms: C_1  and  C_2
REMARK    2  A    between atoms: C_2  and  C_3
REMARK    3  A    between atoms: C_2  and  O_4
REMARK    4  A    between atoms: O_4  and  C_5
REMARK    5  A    between atoms: C_8  and  C_13
REMARK    6  A    between atoms: C_10  and  O_11
REMARK    7  A    between atoms: O_11  and  C_12
REMARK    8  A    between atoms: C_18  and  C_28
REMARK    9  A    between atoms: C_33  and  N_34
REMARK                            x       y       z     vdW  Elec       q    Type
REMARK                         _______ _______ _______ _____ _____    ______ ____
ROOT
ATOM      1  C   UNL     1       0.320   1.412   1.750  0.00  0.00    +0.032 C 
ATOM      2  C   UNL     1      -0.381   1.748   3.065  0.00  0.00    +0.059 C 
ATOM      3  C   UNL     1       0.461   1.275   4.238  0.00  0.00    +0.017 C 
ATOM      4  C   UNL     1       1.803   1.261   4.154  0.00  0.00    +0.036 C 
ATOM      5  C   UNL     1       2.754   0.829   5.244  0.00  0.00    +0.138 C 
ATOM      6  N   UNL     1       2.141   0.653   6.543  0.00  0.00    -0.331 N 
ATOM      7  C   UNL     1       1.185  -0.339   6.757  0.00  0.00    +0.049 A 
ATOM      8  C   UNL     1       1.421  -1.399   7.618  0.00  0.00    +0.025 A 
ATOM      9  C   UNL     1       0.460  -2.385   7.761  0.00  0.00    +0.002 A 
ATOM     10  C   UNL     1      -0.724  -2.318   7.050  0.00  0.00    +0.002 A 
ATOM     11  C   UNL     1      -0.970  -1.251   6.202  0.00  0.00    +0.025 A 
ATOM     12  C   UNL     1      -0.019  -0.253   6.076  0.00  0.00    +0.052 A 
ATOM     13  N   UNL     1      -0.248   0.901   5.334  0.00  0.00    -0.316 N 
ATOM     14  C   UNL     1       2.446   1.674   2.963  0.00  0.00    +0.163 C 
ATOM     15  O   UNL     1       3.660   1.668   2.920  0.00  0.00    -0.292 OA
ATOM     16  C   UNL     1       1.681   2.118   1.752  0.00  0.00    +0.088 C 
ATOM     17  H   UNL     1       2.428   1.307   7.380  0.00  0.00    +0.147 HD
ATOM     18  H   UNL     1      -1.074   1.530   5.697  0.00  0.00    +0.152 HD
ENDROOT
BRANCH   1  22
ATOM     19  C   UNL     1      -2.027   2.810  -1.541  0.00  0.00    +0.162 A 
ATOM     20  C   UNL     1      -1.575   3.701  -0.581  0.00  0.00    +0.050 A 
ATOM     21  C   UNL     1      -0.816   3.246   0.481  0.00  0.00    +0.008 A 
ATOM     22  C   UNL     1      -0.508   1.903   0.590  0.00  0.00    -0.040 A 
ATOM     23  C   UNL     1      -0.951   1.009  -0.367  0.00  0.00    +0.053 A 
ATOM     24  C   UNL     1      -1.716   1.458  -1.432  0.00  0.00    +0.162 A 
BRANCH  24  25
ATOM     25  O   UNL     1      -2.158   0.579  -2.372  0.00  0.00    -0.491 OA
ATOM     26  C   UNL     1      -1.800  -0.793  -2.196  0.00  0.00    +0.277 C 
ENDBRANCH  24  25
BRANCH  19  27
ATOM     27  O   UNL     1      -2.773   3.255  -2.587  0.00  0.00    -0.486 OA
BRANCH  27  29
ATOM     28  C   UNL     1      -3.065   5.052  -4.176  0.00  0.00    +0.051 C 
ATOM     29  C   UNL     1      -2.953   4.668  -2.700  0.00  0.00    +0.167 C 
ATOM     30  C   UNL     1      -4.232   5.080  -1.968  0.00  0.00    +0.051 C 
ENDBRANCH  27  29
ENDBRANCH  19  27
ENDBRANCH   1  22
BRANCH   5  31
ATOM     31  C   UNL     1       3.387  -0.476   4.835  0.00  0.00    +0.007 A 
ATOM     32  C   UNL     1       2.818  -1.236   3.830  0.00  0.00    +0.008 A 
ATOM     33  C   UNL     1       3.402  -2.430   3.451  0.00  0.00    +0.000 A 
ATOM     34  C   UNL     1       4.549  -2.869   4.084  0.00  0.00    +0.002 A 
ATOM     35  C   UNL     1       5.116  -2.112   5.092  0.00  0.00    +0.033 A 
ATOM     36  C   UNL     1       4.535  -0.915   5.467  0.00  0.00    +0.131 A 
BRANCH  36  37
ATOM     37  N   UNL     1       5.141  -0.105   6.547  0.00  0.00    +0.057 N 
ATOM     38  O   UNL     1       6.208  -0.437   7.032  0.00  0.00    -0.126 OA
ATOM     39  O   UNL     1       4.573   0.894   6.951  0.00  0.00    -0.126 OA
ENDBRANCH  36  37
ENDBRANCH   5  31
TORSDOF 6
