REMARK  Name = ZINC67391748
REMARK  5 active torsions:
REMARK  status: ('A' for Active; 'I' for Inactive)
REMARK    1  A    between atoms: C_4  and  C_7
REMARK    2  A    between atoms: C_7  and  C_8
REMARK    3  A    between atoms: C_8  and  C_9
REMARK    4  A    between atoms: N_11  and  N_12
REMARK    5  A    between atoms: N_15  and  C_16
REMARK                            x       y       z     vdW  Elec       q    Type
REMARK                         _______ _______ _______ _____ _____    ______ ____
ROOT
ATOM      1  N   UNL     1       4.590  -4.240  -5.040  0.00  0.00    -0.218 N 
ATOM      2  C   UNL     1       4.819  -5.557  -5.213  0.00  0.00    +0.316 C 
ATOM      3  O   UNL     1       5.388  -5.949  -6.213  0.00  0.00    -0.251 OA
ATOM      4  N   UNL     1       4.416  -6.439  -4.277  0.00  0.00    -0.297 N 
ATOM      5  H   UNL     1       4.880  -3.605  -5.714  0.00  0.00    +0.174 HD
ATOM      6  H   UNL     1       3.962  -6.126  -3.479  0.00  0.00    +0.150 HD
ENDROOT
BRANCH   4   7
ATOM      7  C   UNL     1       4.664  -7.870  -4.465  0.00  0.00    +0.059 C 
ATOM      8  C   UNL     1       3.497  -8.526  -5.248  0.00  0.00    +0.002 C 
ATOM      9  C   UNL     1       2.869  -9.539  -4.253  0.00  0.00    -0.077 C 
ATOM     10  N   UNL     1       3.243  -9.002  -2.935  0.00  0.00    +0.383 N 
ATOM     11  C   UNL     1       4.667  -8.596  -3.116  0.00  0.00    -0.048 C 
ATOM     12  C   UNL     1       5.052  -7.719  -1.935  0.00  0.00    -0.014 C 
ATOM     13  C   UNL     1       4.961  -8.585  -0.668  0.00  0.00    -0.003 C 
ATOM     14  C   UNL     1       3.572  -9.210  -0.543  0.00  0.00    -0.019 C 
ATOM     15  C   UNL     1       3.185  -9.957  -1.836  0.00  0.00    -0.078 C 
ATOM     16  H   UNL     1       2.676  -8.196  -2.720  0.00  0.00    -0.081 HD
ENDBRANCH   4   7
BRANCH   1  19
ATOM     17  C   UNL     1       3.706  -2.471  -3.715  0.00  0.00    +0.229 C 
ATOM     18  O   UNL     1       4.068  -1.677  -4.557  0.00  0.00    -0.274 OA
ATOM     19  N   UNL     1       3.934  -3.788  -3.887  0.00  0.00    -0.233 N 
ATOM     20  H   UNL     1       3.645  -4.423  -3.214  0.00  0.00    +0.173 HD
BRANCH  17  21
ATOM     21  C   UNL     1       3.001  -1.985  -2.475  0.00  0.00    +0.097 C 
BRANCH  21  22
ATOM     22  C   UNL     1       2.870  -0.461  -2.526  0.00  0.00    +0.013 C 
BRANCH  22  26
ATOM     23  C   UNL     1      -0.019   1.526   0.010  0.00  0.00    +0.000 C 
ATOM     24  C   UNL     1       1.417   2.055  -0.000  0.00  0.00    +0.000 C 
ATOM     25  C   UNL     1       2.133   1.562  -1.259  0.00  0.00    +0.003 C 
ATOM     26  C   UNL     1       2.154   0.032  -1.268  0.00  0.00    -0.011 C 
ATOM     27  C   UNL     1       0.718  -0.497  -1.257  0.00  0.00    +0.003 C 
ATOM     28  C   UNL     1       0.002  -0.004   0.002  0.00  0.00    +0.000 C 
ENDBRANCH  22  26
ENDBRANCH  21  22
ENDBRANCH  17  21
ENDBRANCH   1  19
TORSDOF 5
