REMARK  Name = ZINC67551422
REMARK  12 active torsions:
REMARK  status: ('A' for Active; 'I' for Inactive)
REMARK    1  A    between atoms: C_1  and  C_2
REMARK    2  A    between atoms: C_2  and  N_3
REMARK    3  A    between atoms: N_3  and  C_4
REMARK    4  A    between atoms: N_3  and  C_6
REMARK    5  A    between atoms: C_4  and  C_5
REMARK    6  A    between atoms: C_6  and  C_7
REMARK    7  A    between atoms: C_7  and  N_8
REMARK    8  A    between atoms: N_11  and  C_12
REMARK    9  A    between atoms: C_14  and  C_20
REMARK   10  A    between atoms: C_17  and  C_18
REMARK   11  A    between atoms: N_22  and  C_23
REMARK   12  A    between atoms: C_23  and  C_24
REMARK                            x       y       z     vdW  Elec       q    Type
REMARK                         _______ _______ _______ _____ _____    ______ ____
ROOT
ATOM      1  C   UNL     1       4.036  -5.509  -2.528  0.00  0.00    +0.041 A 
ATOM      2  C   UNL     1       4.095  -4.801  -3.718  0.00  0.00    +0.036 A 
ATOM      3  C   UNL     1       4.909  -5.255  -4.756  0.00  0.00    +0.041 A 
ATOM      4  C   UNL     1       5.659  -6.420  -4.590  0.00  0.00    +0.051 A 
ATOM      5  C   UNL     1       5.594  -7.120  -3.400  0.00  0.00    +0.129 A 
ATOM      6  C   UNL     1       4.790  -6.665  -2.368  0.00  0.00    +0.006 A 
ATOM      7  C   UNL     1       4.728  -7.428  -1.071  0.00  0.00    +0.048 C 
ATOM      8  F   UNL     1       6.320  -8.248  -3.240  0.00  0.00    -0.205 F 
ENDROOT
BRANCH   1  12
ATOM      9  N   UNL     1       2.215  -3.296  -0.327  0.00  0.00    -0.301 N 
ATOM     10  C   UNL     1       2.923  -3.745  -1.381  0.00  0.00    +0.304 C 
ATOM     11  O   UNL     1       3.294  -2.969  -2.240  0.00  0.00    -0.253 OA
ATOM     12  N   UNL     1       3.221  -5.056  -1.484  0.00  0.00    -0.269 N 
ATOM     13  H   UNL     1       1.919  -3.915   0.359  0.00  0.00    +0.150 HD
ATOM     14  H   UNL     1       2.870  -5.685  -0.835  0.00  0.00    +0.156 HD
BRANCH   9  15
ATOM     15  C   UNL     1       1.891  -1.871  -0.215  0.00  0.00    +0.087 C 
BRANCH  15  16
ATOM     16  C   UNL     1       1.087  -1.630   1.064  0.00  0.00    -0.060 C 
BRANCH  16  17
ATOM     17  N   UNL     1       0.763  -0.201   1.176  0.00  0.00    +0.380 N 
ATOM     18  H   UNL     1       1.612   0.341   1.126  0.00  0.00    -0.082 HD
BRANCH  17  20
ATOM     19  C   UNL     1      -0.356   1.699   0.110  0.00  0.00    -0.017 C 
ATOM     20  C   UNL     1      -0.131   0.186   0.076  0.00  0.00    -0.082 C 
ENDBRANCH  17  20
BRANCH  17  21
ATOM     21  C   UNL     1       0.096   0.050   2.460  0.00  0.00    -0.082 C 
ATOM     22  C   UNL     1       1.075  -0.217   3.605  0.00  0.00    -0.017 C 
ENDBRANCH  17  21
ENDBRANCH  16  17
ENDBRANCH  15  16
ENDBRANCH   9  15
ENDBRANCH   1  12
BRANCH   3  23
ATOM     23  C   UNL     1       4.976  -4.504  -6.028  0.00  0.00    +0.244 C 
ATOM     24  O   UNL     1       4.322  -3.490  -6.171  0.00  0.00    -0.270 OA
ATOM     25  N   UNL     1       5.763  -4.945  -7.029  0.00  0.00    -0.303 N 
ATOM     26  H   UNL     1       6.285  -5.754  -6.916  0.00  0.00    +0.149 HD
BRANCH  25  27
ATOM     27  C   UNL     1       5.830  -4.201  -8.290  0.00  0.00    +0.217 C 
BRANCH  27  28
ATOM     28  C   UNL     1       6.787  -4.910  -9.250  0.00  0.00    +0.405 C 
ATOM     29  F   UNL     1       6.325  -6.207  -9.498  0.00  0.00    -0.169 F 
ATOM     30  F   UNL     1       6.851  -4.200 -10.454  0.00  0.00    -0.169 F 
ATOM     31  F   UNL     1       8.062  -4.971  -8.677  0.00  0.00    -0.169 F 
ENDBRANCH  27  28
ENDBRANCH  25  27
ENDBRANCH   3  23
TORSDOF 9
