REMARK  Name = ZINC39941782
REMARK  7 active torsions:
REMARK  status: ('A' for Active; 'I' for Inactive)
REMARK    1  A    between atoms: C_1  and  C_2
REMARK    2  A    between atoms: C_5  and  N_8
REMARK    3  A    between atoms: C_9  and  C_11
REMARK    4  A    between atoms: C_16  and  N_17
REMARK    5  A    between atoms: C_18  and  C_20
REMARK    6  A    between atoms: N_22  and  N_23
REMARK    7  A    between atoms: C_24  and  C_25
REMARK                            x       y       z     vdW  Elec       q    Type
REMARK                         _______ _______ _______ _____ _____    ______ ____
ROOT
ATOM      1  N   UNL     1       0.217  -6.369   3.542  0.00  0.00    -0.277 N 
ATOM      2  C   UNL     1       0.712  -6.928   4.663  0.00  0.00    +0.305 C 
ATOM      3  O   UNL     1       1.331  -7.971   4.600  0.00  0.00    -0.265 OA
ATOM      4  H   UNL     1      -0.205  -5.497   3.580  0.00  0.00    +0.155 HD
ENDROOT
BRANCH   1  10
ATOM      5  C   UNL     1       0.301  -6.328   1.121  0.00  0.00    +0.058 A 
ATOM      6  C   UNL     1       0.402  -7.017  -0.090  0.00  0.00    +0.015 A 
ATOM      7  C   UNL     1       0.504  -8.391  -0.093  0.00  0.00    +0.001 A 
ATOM      8  C   UNL     1       0.507  -9.095   1.101  0.00  0.00    +0.002 A 
ATOM      9  C   UNL     1       0.408  -8.429   2.305  0.00  0.00    +0.024 A 
ATOM     10  C   UNL     1       0.311  -7.044   2.328  0.00  0.00    +0.046 A 
BRANCH   5  12
ATOM     11  N   UNL     1       0.074  -4.182  -0.029  0.00  0.00    -0.281 N 
ATOM     12  C   UNL     1       0.191  -4.857   1.131  0.00  0.00    +0.250 C 
ATOM     13  O   UNL     1       0.206  -4.254   2.187  0.00  0.00    -0.270 OA
ATOM     14  H   UNL     1      -0.021  -4.666  -0.864  0.00  0.00    +0.155 HD
BRANCH  11  19
ATOM     15  C   UNL     1       0.138   1.490  -0.030  0.00  0.00    +0.044 C 
ATOM     16  C   UNL     1       0.121  -0.017  -0.030  0.00  0.00    -0.050 A 
ATOM     17  C   UNL     1      -0.521  -0.700  -1.046  0.00  0.00    +0.005 A 
ATOM     18  C   UNL     1      -0.538  -2.081  -1.050  0.00  0.00    +0.023 A 
ATOM     19  C   UNL     1       0.090  -2.784  -0.030  0.00  0.00    +0.034 A 
ATOM     20  C   UNL     1       0.734  -2.095   0.990  0.00  0.00    +0.023 A 
ATOM     21  C   UNL     1       0.752  -0.714   0.985  0.00  0.00    +0.005 A 
ENDBRANCH  11  19
ENDBRANCH   5  12
ENDBRANCH   1  10
BRANCH   2  22
ATOM     22  C   UNL     1       0.499  -6.267   5.983  0.00  0.00    +0.318 C 
ATOM     23  O   UNL     1      -0.119  -5.224   6.046  0.00  0.00    -0.263 OA
ATOM     24  N   UNL     1       0.995  -6.826   7.105  0.00  0.00    -0.199 N 
ATOM     25  H   UNL     1       1.489  -7.659   7.054  0.00  0.00    +0.178 HD
BRANCH  24  26
ATOM     26  N   UNL     1       0.795  -6.204   8.344  0.00  0.00    -0.188 NA
ATOM     27  C   UNL     1       1.276  -6.747   9.435  0.00  0.00    +0.136 C 
BRANCH  27  28
ATOM     28  C   UNL     1       1.077  -6.125  10.675  0.00  0.00    +0.000 C 
ATOM     29  C   UNL     1       1.523  -6.564  11.919  0.00  0.00    +0.004 A 
ATOM     30  C   UNL     1       2.268  -7.695  12.321  0.00  0.00    +0.010 A 
ATOM     31  C   UNL     1       2.565  -7.873  13.633  0.00  0.00    +0.001 A 
ATOM     32  C   UNL     1       2.151  -6.961  14.609  0.00  0.00    +0.002 A 
ATOM     33  C   UNL     1       1.435  -5.855  14.296  0.00  0.00    +0.026 A 
ATOM     34  C   UNL     1       1.085  -5.599  12.943  0.00  0.00    +0.043 A 
ATOM     35  N   UNL     1       0.408  -4.616  12.390  0.00  0.00    -0.380 N 
ATOM     36  C   UNL     1       0.337  -4.833  10.941  0.00  0.00    +0.150 C 
ATOM     37  H   UNL     1       0.019  -3.865  12.865  0.00  0.00    +0.160 HD
ENDBRANCH  27  28
ENDBRANCH  24  26
ENDBRANCH   2  22
TORSDOF 6
