REMARK  Name = ZINC39769753
REMARK  7 active torsions:
REMARK  status: ('A' for Active; 'I' for Inactive)
REMARK    1  A    between atoms: C_4  and  C_7
REMARK    2  A    between atoms: C_11  and  S_20
REMARK    3  A    between atoms: N_13  and  C_14
REMARK    4  A    between atoms: S_20  and  C_21
REMARK    5  A    between atoms: C_21  and  C_22
REMARK    6  A    between atoms: N_24  and  N_25
REMARK    7  A    between atoms: C_26  and  C_27
REMARK                            x       y       z     vdW  Elec       q    Type
REMARK                         _______ _______ _______ _____ _____    ______ ____
ROOT
ATOM      1  C   UNL     1       3.878  -0.818  -0.153  0.00  0.00    +0.188 C 
ATOM      2  N   UNL     1       4.860   0.060   0.524  0.00  0.00    -0.230 NA
ATOM      3  N   UNL     1       4.689  -0.235   1.955  0.00  0.00    -0.226 NA
ATOM      4  C   UNL     1       4.440  -1.701   1.966  0.00  0.00    +0.218 C 
ATOM      5  N   UNL     1       3.611  -1.939   0.765  0.00  0.00    -0.284 N 
ATOM      6  H   UNL     1       5.800  -0.148   0.222  0.00  0.00    +0.143 HD
ATOM      7  H   UNL     1       5.523  -0.007   2.474  0.00  0.00    +0.143 HD
ENDROOT
BRANCH   1  11
ATOM      8  C   UNL     1       0.271   1.340  -0.916  0.00  0.00    +0.000 A 
ATOM      9  C   UNL     1       0.761   1.248   0.373  0.00  0.00    +0.000 A 
ATOM     10  C   UNL     1       1.929   0.549   0.620  0.00  0.00    +0.007 A 
ATOM     11  C   UNL     1       2.605  -0.057  -0.422  0.00  0.00    -0.012 A 
ATOM     12  C   UNL     1       2.114   0.035  -1.711  0.00  0.00    +0.007 A 
ATOM     13  C   UNL     1       0.948   0.735  -1.958  0.00  0.00    +0.000 A 
ENDBRANCH   1  11
BRANCH   5  14
ATOM     14  C   UNL     1       2.747  -3.013   0.544  0.00  0.00    +0.033 A 
ATOM     15  C   UNL     1       1.939  -3.036  -0.586  0.00  0.00    +0.023 A 
ATOM     16  C   UNL     1       1.086  -4.100  -0.802  0.00  0.00    +0.002 A 
ATOM     17  C   UNL     1       1.034  -5.142   0.105  0.00  0.00    +0.000 A 
ATOM     18  C   UNL     1       1.837  -5.122   1.232  0.00  0.00    +0.002 A 
ATOM     19  C   UNL     1       2.696  -4.064   1.451  0.00  0.00    +0.023 A 
ENDBRANCH   5  14
BRANCH   4  20
ATOM     20  S   UNL     1       3.540  -2.180   3.467  0.00  0.00    -0.112 S 
BRANCH  20  21
ATOM     21  C   UNL     1       2.013  -1.204   3.394  0.00  0.00    +0.169 C 
BRANCH  21  22
ATOM     22  C   UNL     1       1.162  -1.512   4.599  0.00  0.00    +0.242 C 
ATOM     23  O   UNL     1       1.548  -2.311   5.426  0.00  0.00    -0.273 OA
ATOM     24  N   UNL     1      -0.027  -0.899   4.758  0.00  0.00    -0.206 N 
ATOM     25  H   UNL     1      -0.336  -0.260   4.097  0.00  0.00    +0.177 HD
BRANCH  24  26
ATOM     26  N   UNL     1      -0.818  -1.185   5.879  0.00  0.00    -0.188 NA
ATOM     27  C   UNL     1      -1.974  -0.590   6.034  0.00  0.00    +0.136 C 
BRANCH  27  28
ATOM     28  C   UNL     1      -2.765  -0.876   7.155  0.00  0.00    +0.000 C 
ATOM     29  C   UNL     1      -4.013  -0.339   7.465  0.00  0.00    +0.004 A 
ATOM     30  C   UNL     1      -4.837   0.601   6.808  0.00  0.00    +0.010 A 
ATOM     31  C   UNL     1      -6.030   0.947   7.353  0.00  0.00    +0.001 A 
ATOM     32  C   UNL     1      -6.473   0.395   8.559  0.00  0.00    +0.002 A 
ATOM     33  C   UNL     1      -5.735  -0.512   9.243  0.00  0.00    +0.026 A 
ATOM     34  C   UNL     1      -4.474  -0.924   8.736  0.00  0.00    +0.043 A 
ATOM     35  N   UNL     1      -3.583  -1.774   9.202  0.00  0.00    -0.380 N 
ATOM     36  C   UNL     1      -2.446  -1.838   8.279  0.00  0.00    +0.150 C 
ATOM     37  H   UNL     1      -3.667  -2.281  10.025  0.00  0.00    +0.160 HD
ENDBRANCH  27  28
ENDBRANCH  24  26
ENDBRANCH  21  22
ENDBRANCH  20  21
ENDBRANCH   4  20
TORSDOF 7
