REMARK  Name = ZINC43587171
REMARK  6 active torsions:
REMARK  status: ('A' for Active; 'I' for Inactive)
REMARK    1  A    between atoms: C_1  and  C_2
REMARK    2  A    between atoms: C_2  and  C_4
REMARK    3  A    between atoms: C_2  and  N_13
REMARK    4  A    between atoms: N_9  and  C_10
REMARK    5  A    between atoms: C_10  and  C_11
REMARK    6  A    between atoms: C_16  and  C_19
REMARK                            x       y       z     vdW  Elec       q    Type
REMARK                         _______ _______ _______ _____ _____    ______ ____
ROOT
ATOM      1  N   UNL     1       0.401  -0.924   1.082  0.00  0.00    +0.387 N 
ATOM      2  C   UNL     1       0.093  -2.311   0.712  0.00  0.00    -0.077 C 
ATOM      3  C   UNL     1       0.640  -3.260   1.780  0.00  0.00    -0.006 C 
ATOM      4  C   UNL     1      -0.011  -2.933   3.127  0.00  0.00    +0.072 C 
ATOM      5  C   UNL     1       0.254  -1.463   3.467  0.00  0.00    -0.006 C 
ATOM      6  C   UNL     1      -0.279  -0.580   2.337  0.00  0.00    -0.077 C 
ATOM      7  H   UNL     1       1.397  -0.823   1.201  0.00  0.00    -0.081 HD
ENDROOT
BRANCH   4   8
ATOM      8  C   UNL     1       0.580  -3.812   4.199  0.00  0.00    +0.219 C 
ATOM      9  O   UNL     1       1.497  -3.405   4.881  0.00  0.00    -0.275 OA
ATOM     10  N   UNL     1       0.090  -5.051   4.401  0.00  0.00    -0.297 N 
ATOM     11  C   UNL     1      -1.074  -5.538   3.643  0.00  0.00    +0.136 C 
ATOM     12  C   UNL     1      -0.724  -6.906   3.046  0.00  0.00    +0.179 C 
ATOM     13  O   UNL     1      -0.239  -7.762   4.082  0.00  0.00    -0.377 OA
ATOM     14  C   UNL     1       0.965  -7.305   4.703  0.00  0.00    +0.179 C 
ATOM     15  C   UNL     1       0.706  -5.960   5.381  0.00  0.00    +0.136 C 
ENDBRANCH   4   8
BRANCH   1  17
ATOM     16  C   UNL     1       0.274   1.423   0.395  0.00  0.00    -0.004 C 
ATOM     17  C   UNL     1      -0.057  -0.022   0.016  0.00  0.00    +0.017 C 
BRANCH  17  18
ATOM     18  C   UNL     1       0.638  -0.375  -1.274  0.00  0.00    +0.207 C 
ATOM     19  O   UNL     1       1.715  -0.932  -1.249  0.00  0.00    -0.277 OA
ATOM     20  N   UNL     1       0.064  -0.070  -2.454  0.00  0.00    -0.242 N 
ATOM     21  C   UNL     1       0.685  -0.386  -3.607  0.00  0.00    +0.306 C 
ATOM     22  O   UNL     1       1.764  -0.945  -3.583  0.00  0.00    -0.252 OA
ATOM     23  N   UNL     1       0.110  -0.082  -4.788  0.00  0.00    -0.296 N 
ATOM     24  H   UNL     1      -0.797   0.376  -2.474  0.00  0.00    +0.159 HD
ATOM     25  H   UNL     1      -0.751   0.364  -4.807  0.00  0.00    +0.151 HD
BRANCH  23  26
ATOM     26  C   UNL     1       0.786  -0.425  -6.042  0.00  0.00    +0.132 C 
BRANCH  26  27
ATOM     27  C   UNL     1      -0.060   0.020  -7.207  0.00  0.00    -0.016 C 
ATOM     28  C   UNL     1       0.447   0.809  -8.121  0.00  0.00    +0.005 C 
ENDBRANCH  26  27
ENDBRANCH  23  26
ENDBRANCH  17  18
ENDBRANCH   1  17
TORSDOF 5
