REMARK  Name = ZINC64219107
REMARK  8 active torsions:
REMARK  status: ('A' for Active; 'I' for Inactive)
REMARK    1  A    between atoms: C_1  and  C_2
REMARK    2  A    between atoms: N_4  and  C_5
REMARK    3  A    between atoms: C_5  and  C_7
REMARK    4  A    between atoms: C_5  and  C_17
REMARK    5  A    between atoms: C_7  and  C_8
REMARK    6  A    between atoms: N_19  and  C_20
REMARK    7  A    between atoms: C_20  and  C_21
REMARK    8  A    between atoms: N_23  and  C_24
REMARK                            x       y       z     vdW  Elec       q    Type
REMARK                         _______ _______ _______ _____ _____    ______ ____
ROOT
ATOM      1  C   UNL     1      -1.109  -2.172  -0.021  0.00  0.00    +0.163 C 
ENDROOT
BRANCH   1   5
ATOM      2  C   UNL     1       0.029   1.483  -0.030  0.00  0.00    +0.109 C 
ATOM      3  C   UNL     1       0.041  -0.024  -0.031  0.00  0.00    +0.211 C 
ATOM      4  O   UNL     1       1.096  -0.622  -0.041  0.00  0.00    -0.276 OA
ATOM      5  N   UNL     1      -1.121  -0.707  -0.021  0.00  0.00    -0.304 N 
ATOM      6  H   UNL     1      -1.964  -0.228  -0.013  0.00  0.00    +0.149 HD
ENDBRANCH   1   5
BRANCH   1   7
ATOM      7  C   UNL     1      -0.384  -2.669   1.202  0.00  0.00    +0.234 C 
ATOM      8  O   UNL     1       0.377  -1.935   1.796  0.00  0.00    -0.274 OA
ATOM      9  N   UNL     1      -0.581  -3.929   1.637  0.00  0.00    -0.305 N 
ATOM     10  H   UNL     1      -1.190  -4.516   1.162  0.00  0.00    +0.149 HD
BRANCH   9  11
ATOM     11  C   UNL     1       0.124  -4.413   2.827  0.00  0.00    +0.200 C 
BRANCH  11  12
ATOM     12  C   UNL     1      -0.269  -5.842   3.098  0.00  0.00    +0.234 C 
ATOM     13  O   UNL     1      -1.060  -6.402   2.369  0.00  0.00    -0.274 OA
ATOM     14  N   UNL     1       0.259  -6.498   4.150  0.00  0.00    -0.283 N 
ATOM     15  H   UNL     1       0.941  -6.074   4.694  0.00  0.00    +0.155 HD
BRANCH  14  16
ATOM     16  C   UNL     1      -0.175  -7.793   4.457  0.00  0.00    +0.047 A 
ATOM     17  C   UNL     1      -0.529  -8.668   3.438  0.00  0.00    +0.024 A 
ATOM     18  C   UNL     1      -0.957  -9.945   3.744  0.00  0.00    +0.002 A 
ATOM     19  C   UNL     1      -1.034 -10.353   5.064  0.00  0.00    +0.001 A 
ATOM     20  C   UNL     1      -0.683  -9.484   6.081  0.00  0.00    +0.017 A 
ATOM     21  C   UNL     1      -0.248  -8.207   5.781  0.00  0.00    +0.039 A 
ATOM     22 BR   UNL     1       0.239  -7.022   7.172  0.00  0.00    -0.048 Br
ENDBRANCH  14  16
ENDBRANCH  11  12
ENDBRANCH   9  11
ENDBRANCH   1   7
BRANCH   1  23
ATOM     23  C   UNL     1      -0.396  -2.676  -1.277  0.00  0.00    +0.065 C 
BRANCH  23  24
ATOM     24  C   UNL     1      -1.188  -2.283  -2.497  0.00  0.00    -0.039 C 
ATOM     25  C   UNL     1      -0.999  -1.190  -3.273  0.00  0.00    -0.001 A 
ATOM     26  C   UNL     1      -0.037  -0.084  -3.214  0.00  0.00    +0.010 A 
ATOM     27  C   UNL     1      -0.097   0.888  -4.152  0.00  0.00    +0.001 A 
ATOM     28  C   UNL     1      -1.053   0.865  -5.177  0.00  0.00    +0.002 A 
ATOM     29  C   UNL     1      -1.970  -0.118  -5.297  0.00  0.00    +0.026 A 
ATOM     30  C   UNL     1      -1.998  -1.192  -4.365  0.00  0.00    +0.043 A 
ATOM     31  N   UNL     1      -2.775  -2.244  -4.269  0.00  0.00    -0.380 N 
ATOM     32  C   UNL     1      -2.351  -3.033  -3.106  0.00  0.00    +0.144 C 
ATOM     33  H   UNL     1      -3.505  -2.465  -4.868  0.00  0.00    +0.160 HD
ENDBRANCH  23  24
ENDBRANCH   1  23
TORSDOF 7
