REMARK  Name = ZINC44533891
REMARK  6 active torsions:
REMARK  status: ('A' for Active; 'I' for Inactive)
REMARK    1  A    between atoms: C_1  and  N_2
REMARK    2  A    between atoms: C_6  and  C_9
REMARK    3  A    between atoms: C_9  and  N_10
REMARK    4  A    between atoms: N_10  and  S_11
REMARK    5  A    between atoms: S_11  and  C_14
REMARK    6  A    between atoms: C_17  and  N_21
REMARK                            x       y       z     vdW  Elec       q    Type
REMARK                         _______ _______ _______ _____ _____    ______ ____
ROOT
ATOM      1  S   UNL     1       2.814  -4.732   3.288  0.00  0.00    +0.061 S 
ATOM      2  O   UNL     1       2.752  -6.115   2.971  0.00  0.00    -0.153 OA
ATOM      3  O   UNL     1       4.024  -3.989   3.223  0.00  0.00    -0.153 OA
ENDROOT
BRANCH   1   4
ATOM      4  C   UNL     1       2.208  -4.565   4.934  0.00  0.00    +0.133 A 
ATOM      5  C   UNL     1       2.579  -3.473   5.699  0.00  0.00    +0.047 A 
ATOM      6  C   UNL     1       2.106  -3.339   6.990  0.00  0.00    +0.040 A 
ATOM      7  C   UNL     1       1.257  -4.302   7.521  0.00  0.00    +0.027 A 
ATOM      8  C   UNL     1       0.887  -5.397   6.750  0.00  0.00    +0.040 A 
ATOM      9  C   UNL     1       1.359  -5.523   5.458  0.00  0.00    +0.047 A 
ATOM     10 BR   UNL     1       0.849  -7.009   4.406  0.00  0.00    -0.048 Br
ATOM     11 BR   UNL     1       3.735  -2.162   4.976  0.00  0.00    -0.048 Br
BRANCH   7  12
ATOM     12  N   UNL     1       0.778  -4.170   8.826  0.00  0.00    -0.358 N 
ATOM     13  H   UNL     1       1.038  -3.405   9.363  0.00  0.00    +0.142 HD
ATOM     14  H   UNL     1       0.185  -4.843   9.195  0.00  0.00    +0.142 HD
ENDBRANCH   7  12
ENDBRANCH   1   4
BRANCH   1  15
ATOM     15  N   UNL     1       1.736  -3.968   2.290  0.00  0.00    -0.190 NA
ATOM     16  H   UNL     1       1.230  -4.480   1.639  0.00  0.00    +0.148 HD
BRANCH  15  17
ATOM     17  C   UNL     1       1.545  -2.519   2.389  0.00  0.00    +0.107 C 
BRANCH  17  23
ATOM     18  C   UNL     1      -0.018   1.465   0.010  0.00  0.00    -0.096 C 
ATOM     19  N   UNL     1       0.002  -0.004   0.002  0.00  0.00    +0.378 N 
ATOM     20  C   UNL     1      -1.376  -0.511   0.004  0.00  0.00    -0.079 C 
ATOM     21  C   UNL     1      -1.361  -2.038  -0.087  0.00  0.00    -0.018 C 
ATOM     22  C   UNL     1      -0.605  -2.608   1.117  0.00  0.00    +0.001 C 
ATOM     23  C   UNL     1       0.807  -2.015   1.147  0.00  0.00    -0.012 C 
ATOM     24  C   UNL     1       0.712  -0.489   1.192  0.00  0.00    -0.074 C 
ATOM     25  H   UNL     1       0.477  -0.328  -0.827  0.00  0.00    -0.082 HD
ENDBRANCH  17  23
ENDBRANCH  15  17
ENDBRANCH   1  15
TORSDOF 5
