REMARK  Name = ZINC30826218
REMARK  6 active torsions:
REMARK  status: ('A' for Active; 'I' for Inactive)
REMARK    1  A    between atoms: C_1  and  N_2
REMARK    2  A    between atoms: N_5  and  C_8
REMARK    3  A    between atoms: C_9  and  N_15
REMARK    4  A    between atoms: N_15  and  C_16
REMARK    5  A    between atoms: C_16  and  N_18
REMARK    6  A    between atoms: C_19  and  C_21
REMARK                            x       y       z     vdW  Elec       q    Type
REMARK                         _______ _______ _______ _____ _____    ______ ____
ROOT
ATOM      1  N   UNL     1       3.615  -0.681  -0.062  0.00  0.00    -0.295 N 
ATOM      2  H   UNL     1       4.471  -0.272  -0.619  0.00  0.00    +0.154 HD
ENDROOT
BRANCH   1   4
ATOM      3  C   UNL     1       2.361   1.377   0.181  0.00  0.00    +0.070 A 
ATOM      4  C   UNL     1       2.392   0.003  -0.054  0.00  0.00    +0.055 A 
ATOM      5  C   UNL     1       1.210  -0.685  -0.281  0.00  0.00    +0.025 A 
ATOM      6  C   UNL     1       0.003  -0.009  -0.273  0.00  0.00    +0.003 A 
ATOM      7  C   UNL     1      -0.029   1.353  -0.040  0.00  0.00    +0.022 A 
ATOM      8  C   UNL     1       1.146   2.048   0.187  0.00  0.00    +0.064 A 
ATOM      9 CL   UNL     1       1.101   3.759   0.478  0.00  0.00    -0.082 Cl
BRANCH   3  14
ATOM     10  C   UNL     1       6.368   5.116   1.231  0.00  0.00    -0.096 C 
ATOM     11  N   UNL     1       5.119   4.381   0.991  0.00  0.00    +0.380 N 
ATOM     12  C   UNL     1       5.095   3.813  -0.364  0.00  0.00    -0.060 C 
ATOM     13  C   UNL     1       3.748   3.125  -0.602  0.00  0.00    +0.086 C 
ATOM     14  N   UNL     1       3.551   2.077   0.410  0.00  0.00    -0.331 N 
ATOM     15  C   UNL     1       3.575   2.646   1.764  0.00  0.00    +0.086 C 
ATOM     16  C   UNL     1       4.922   3.333   2.002  0.00  0.00    -0.060 C 
ATOM     17  H   UNL     1       4.287   5.095   1.075  0.00  0.00    -0.082 HD
ENDBRANCH   3  14
ENDBRANCH   1   4
BRANCH   1  18
ATOM     18  C   UNL     1       3.743  -1.841   0.613  0.00  0.00    +0.141 C 
ATOM     19  S   UNL     1       2.382  -2.539   1.381  0.00  0.00    -0.018 S 
BRANCH  18  20
ATOM     20  N   UNL     1       4.943  -2.451   0.682  0.00  0.00    -0.264 N 
ATOM     21  C   UNL     1       5.071  -3.610   1.357  0.00  0.00    +0.250 C 
ATOM     22  O   UNL     1       4.104  -4.106   1.903  0.00  0.00    -0.270 OA
ATOM     23  H   UNL     1       5.818  -2.002   0.189  0.00  0.00    +0.157 HD
BRANCH  21  24
ATOM     24  C   UNL     1       6.383  -4.277   1.434  0.00  0.00    +0.045 A 
ATOM     25  C   UNL     1       7.520  -3.667   0.919  0.00  0.00    +0.014 A 
ATOM     26  C   UNL     1       8.755  -4.298   0.993  0.00  0.00    +0.001 A 
ATOM     27  C   UNL     1       8.901  -5.524   1.564  0.00  0.00    +0.008 A 
ATOM     28  C   UNL     1       7.795  -6.200   2.105  0.00  0.00    -0.017 A 
ATOM     29  C   UNL     1       6.516  -5.592   2.058  0.00  0.00    -0.006 A 
ATOM     30  C   UNL     1       5.410  -6.265   2.591  0.00  0.00    +0.009 A 
ATOM     31  C   UNL     1       5.578  -7.492   3.159  0.00  0.00    +0.001 A 
ATOM     32  C   UNL     1       6.835  -8.091   3.212  0.00  0.00    +0.001 A 
ATOM     33  C   UNL     1       7.931  -7.467   2.699  0.00  0.00    +0.008 A 
ENDBRANCH  21  24
ENDBRANCH  18  20
ENDBRANCH   1  18
TORSDOF 5
