REMARK  Name = ZINC49120949
REMARK  8 active torsions:
REMARK  status: ('A' for Active; 'I' for Inactive)
REMARK    1  A    between atoms: C_1  and  C_2
REMARK    2  A    between atoms: C_2  and  C_3
REMARK    3  A    between atoms: C_9  and  N_11
REMARK    4  A    between atoms: N_11  and  S_12
REMARK    5  A    between atoms: S_12  and  C_15
REMARK    6  A    between atoms: C_15  and  C_16
REMARK    7  A    between atoms: C_19  and  C_22
REMARK    8  A    between atoms: C_22  and  N_23
REMARK                            x       y       z     vdW  Elec       q    Type
REMARK                         _______ _______ _______ _____ _____    ______ ____
ROOT
ATOM      1  S   UNL     1       0.158  -3.801  -1.463  0.00  0.00    +0.034 S 
ATOM      2  O   UNL     1       0.639  -3.834  -2.800  0.00  0.00    -0.158 OA
ATOM      3  O   UNL     1       1.060  -3.695  -0.371  0.00  0.00    -0.158 OA
ENDROOT
BRANCH   1   4
ATOM      4  N   UNL     1      -0.767  -2.429  -1.381  0.00  0.00    -0.191 NA
ATOM      5  H   UNL     1      -0.880  -1.873  -2.167  0.00  0.00    +0.148 HD
BRANCH   4  11
ATOM      6  C   UNL     1      -1.433  -0.534   0.013  0.00  0.00    +0.007 C 
ATOM      7  C   UNL     1      -2.110  -0.145   1.329  0.00  0.00    +0.005 C 
ATOM      8  C   UNL     1      -3.546  -0.675   1.340  0.00  0.00    +0.000 C 
ATOM      9  C   UNL     1      -3.528  -2.199   1.206  0.00  0.00    +0.002 C 
ATOM     10  C   UNL     1      -2.851  -2.587  -0.110  0.00  0.00    +0.020 C 
ATOM     11  C   UNL     1      -1.416  -2.058  -0.121  0.00  0.00    +0.079 C 
BRANCH   6  13
ATOM     12  C   UNL     1      -0.019   1.526   0.010  0.00  0.00    +0.004 C 
ATOM     13  C   UNL     1       0.002  -0.004   0.002  0.00  0.00    +0.002 C 
ENDBRANCH   6  13
ENDBRANCH   4  11
ENDBRANCH   1   4
BRANCH   1  14
ATOM     14  C   UNL     1      -1.005  -5.165  -1.184  0.00  0.00    +0.220 C 
BRANCH  14  15
ATOM     15  C   UNL     1      -0.264  -6.476  -1.238  0.00  0.00    -0.025 A 
ATOM     16  C   UNL     1      -0.123  -7.141  -2.441  0.00  0.00    +0.005 A 
ATOM     17  C   UNL     1       0.557  -8.344  -2.490  0.00  0.00    +0.002 A 
ATOM     18  C   UNL     1       1.097  -8.880  -1.336  0.00  0.00    -0.065 A 
ATOM     19  C   UNL     1       0.957  -8.214  -0.133  0.00  0.00    +0.002 A 
ATOM     20  C   UNL     1       0.281  -7.010  -0.085  0.00  0.00    +0.005 A 
BRANCH  18  21
ATOM     21  C   UNL     1       1.838 -10.192  -1.390  0.00  0.00    -0.051 C 
BRANCH  21  22
ATOM     22  N   UNL     1       3.262  -9.940  -1.646  0.00  0.00    +0.381 N 
ATOM     23  H   UNL     1       3.641  -9.369  -0.905  0.00  0.00    -0.090 HD
ATOM     24  H   UNL     1       3.758 -10.818  -1.682  0.00  0.00    -0.090 HD
ATOM     25  H   UNL     1       3.366  -9.459  -2.527  0.00  0.00    -0.090 HD
ENDBRANCH  21  22
ENDBRANCH  18  21
ENDBRANCH  14  15
ENDBRANCH   1  14
TORSDOF 7
