REMARK  Name = ZINC01774832
REMARK  9 active torsions:
REMARK  status: ('A' for Active; 'I' for Inactive)
REMARK    1  A    between atoms: C_1  and  O_2
REMARK    2  A    between atoms: O_2  and  C_3
REMARK    3  A    between atoms: C_6  and  N_9
REMARK    4  A    between atoms: C_10  and  S_12
REMARK    5  A    between atoms: S_12  and  C_13
REMARK    6  A    between atoms: C_13  and  C_14
REMARK    7  A    between atoms: N_30  and  C_31
REMARK    8  A    between atoms: C_31  and  C_32
REMARK    9  A    between atoms: C_32  and  C_33
REMARK                            x       y       z     vdW  Elec       q    Type
REMARK                         _______ _______ _______ _____ _____    ______ ____
ROOT
ATOM      1  C   UNL     1       3.491  -7.203   6.594  0.00  0.00    +0.150 A 
ATOM      2  N   UNL     1       4.706  -7.666   6.699  0.00  0.00    -0.131 NA
ATOM      3  N   UNL     1       4.842  -8.303   7.808  0.00  0.00    -0.110 NA
ATOM      4  C   UNL     1       3.712  -8.282   8.476  0.00  0.00    +0.240 A 
ATOM      5  N   UNL     1       2.817  -7.574   7.724  0.00  0.00    -0.257 N 
ATOM      6  C   UNL     1       1.532  -7.371   8.168  0.00  0.00    +0.102 A 
ATOM      7  C   UNL     1       1.100  -7.872   9.391  0.00  0.00    +0.074 A 
ATOM      8  C   UNL     1      -0.291  -7.579   9.737  0.00  0.00    -0.023 A 
ATOM      9  C   UNL     1      -0.965  -6.860   8.817  0.00  0.00    -0.004 A 
ATOM     10  S   UNL     1       0.209  -6.577   7.524  0.00  0.00    -0.075 S 
ATOM     11  C   UNL     1      -2.392  -6.412   8.891  0.00  0.00    +0.043 C 
ATOM     12  C   UNL     1      -3.090  -7.210  10.002  0.00  0.00    +0.005 C 
ATOM     13  C   UNL     1      -2.211  -7.188  11.256  0.00  0.00    +0.005 C 
ATOM     14  C   UNL     1      -0.956  -8.033  11.029  0.00  0.00    +0.037 C 
ATOM     15  C   UNL     1       2.096  -8.633  10.180  0.00  0.00    +0.264 A 
ATOM     16  O   UNL     1       1.790  -9.103  11.261  0.00  0.00    -0.267 OA
ATOM     17  N   UNL     1       3.337  -8.808   9.696  0.00  0.00    -0.276 N 
ENDROOT
BRANCH   1  18
ATOM     18  C   UNL     1       2.936  -6.403   5.444  0.00  0.00    +0.155 C 
BRANCH  18  19
ATOM     19  S   UNL     1       3.206  -4.636   5.750  0.00  0.00    -0.060 S 
BRANCH  19  21
ATOM     20  N   UNL     1       2.540  -2.504   4.232  0.00  0.00    -0.276 N 
ATOM     21  C   UNL     1       2.512  -3.847   4.336  0.00  0.00    +0.277 C 
ATOM     22  O   UNL     1       2.007  -4.515   3.453  0.00  0.00    -0.263 OA
ATOM     23  H   UNL     1       3.010  -1.976   4.896  0.00  0.00    +0.156 HD
BRANCH  20  27
ATOM     24  C   UNL     1       0.608  -0.617   1.054  0.00  0.00    +0.120 A 
ATOM     25  C   UNL     1       0.085  -1.785   1.589  0.00  0.00    +0.047 A 
ATOM     26  C   UNL     1       0.724  -2.411   2.641  0.00  0.00    +0.027 A 
ATOM     27  C   UNL     1       1.891  -1.870   3.164  0.00  0.00    +0.034 A 
ATOM     28  C   UNL     1       2.414  -0.701   2.628  0.00  0.00    +0.027 A 
ATOM     29  C   UNL     1       1.776  -0.079   1.573  0.00  0.00    +0.047 A 
BRANCH  24  31
ATOM     30  C   UNL     1      -1.221  -0.611  -0.466  0.00  0.00    +0.277 C 
ATOM     31  O   UNL     1      -0.023  -0.002   0.018  0.00  0.00    -0.495 OA
ENDBRANCH  24  31
ENDBRANCH  20  27
ENDBRANCH  19  21
ENDBRANCH  18  19
ENDBRANCH   1  18
BRANCH  17  32
ATOM     32  C   UNL     1       4.316  -9.559  10.485  0.00  0.00    +0.133 C 
BRANCH  32  33
ATOM     33  C   UNL     1       5.068  -8.601  11.412  0.00  0.00    +0.057 C 
BRANCH  33  34
ATOM     34  C   UNL     1       6.075  -9.374  12.223  0.00  0.00    -0.046 A 
ATOM     35  C   UNL     1       5.713  -9.912  13.444  0.00  0.00    +0.004 A 
ATOM     36  C   UNL     1       6.637 -10.620  14.189  0.00  0.00    +0.000 A 
ATOM     37  C   UNL     1       7.923 -10.792  13.713  0.00  0.00    +0.000 A 
ATOM     38  C   UNL     1       8.285 -10.255  12.491  0.00  0.00    +0.000 A 
ATOM     39  C   UNL     1       7.360  -9.550  11.745  0.00  0.00    +0.004 A 
ENDBRANCH  33  34
ENDBRANCH  32  33
ENDBRANCH  17  32
TORSDOF 8
