REMARK  Name = ZINC39916085
REMARK  7 active torsions:
REMARK  status: ('A' for Active; 'I' for Inactive)
REMARK    1  A    between atoms: C_1  and  C_2
REMARK    2  A    between atoms: C_2  and  C_38
REMARK    3  A    between atoms: C_6  and  C_30
REMARK    4  A    between atoms: C_13  and  S_16
REMARK    5  A    between atoms: S_16  and  C_17
REMARK    6  A    between atoms: C_17  and  C_18
REMARK    7  A    between atoms: C_17  and  C_24
REMARK                            x       y       z     vdW  Elec       q    Type
REMARK                         _______ _______ _______ _____ _____    ______ ____
ROOT
ATOM      1  C   UNL     1      -0.365   1.841  -2.324  0.00  0.00    +0.011 C 
ATOM      2  C   UNL     1      -0.268   0.316  -2.262  0.00  0.00    -0.023 C 
ATOM      3  C   UNL     1      -1.571  -0.260  -1.702  0.00  0.00    +0.057 C 
ATOM      4  C   UNL     1      -1.453  -1.758  -1.581  0.00  0.00    +0.015 C 
ATOM      5  C   UNL     1      -0.258  -2.351  -1.355  0.00  0.00    +0.034 C 
ATOM      6  C   UNL     1      -0.133  -3.860  -1.246  0.00  0.00    +0.139 C 
ATOM      7  N   UNL     1      -1.305  -4.460  -1.867  0.00  0.00    -0.196 NA
ATOM      8  C   UNL     1      -2.522  -3.885  -1.217  0.00  0.00    +0.231 C 
ATOM      9  N   UNL     1      -2.605  -2.506  -1.691  0.00  0.00    -0.318 N 
ATOM     10  N   UNL     1      -3.597  -4.766  -1.689  0.00  0.00    -0.260 NA
ATOM     11  C   UNL     1      -2.949  -6.082  -1.928  0.00  0.00    +0.199 C 
ATOM     12  N   UNL     1      -1.497  -5.889  -1.662  0.00  0.00    -0.224 NA
ATOM     13  C   UNL     1       0.913  -1.589  -1.220  0.00  0.00    +0.163 C 
ATOM     14  O   UNL     1       1.969  -2.151  -1.007  0.00  0.00    -0.292 OA
ATOM     15  C   UNL     1       0.882  -0.089  -1.333  0.00  0.00    +0.086 C 
ATOM     16  C   UNL     1      -0.016  -0.241  -3.664  0.00  0.00    +0.011 C 
ATOM     17  H   UNL     1      -3.423  -2.138  -2.061  0.00  0.00    +0.149 HD
ATOM     18  H   UNL     1      -4.330  -4.843  -1.000  0.00  0.00    +0.127 HD
ATOM     19  H   UNL     1      -0.936  -6.425  -2.307  0.00  0.00    +0.143 HD
ENDROOT
BRANCH   6  20
ATOM     20  C   UNL     1       1.113  -4.320  -1.959  0.00  0.00    -0.026 C 
ATOM     21  C   UNL     1       2.184  -4.894  -1.413  0.00  0.00    +0.020 C 
ATOM     22  C   UNL     1       3.167  -5.183  -2.458  0.00  0.00    +0.078 C 
ATOM     23  N   UNL     1       2.738  -4.807  -3.616  0.00  0.00    -0.386 N 
ATOM     24  C   UNL     1       1.400  -4.229  -3.441  0.00  0.00    +0.145 C 
ATOM     25  H   UNL     1       3.216  -4.895  -4.456  0.00  0.00    +0.159 HD
ENDBRANCH   6  20
BRANCH  11  26
ATOM     26  S   UNL     1      -3.632  -7.326  -0.798  0.00  0.00    -0.113 S 
BRANCH  26  27
ATOM     27  C   UNL     1      -5.289  -7.656  -1.458  0.00  0.00    +0.109 C 
BRANCH  27  28
ATOM     28  C   UNL     1      -5.170  -8.330  -2.801  0.00  0.00    -0.030 A 
ATOM     29  C   UNL     1      -5.838  -7.813  -3.895  0.00  0.00    +0.005 A 
ATOM     30  C   UNL     1      -5.729  -8.431  -5.127  0.00  0.00    +0.000 A 
ATOM     31  C   UNL     1      -4.951  -9.565  -5.265  0.00  0.00    +0.000 A 
ATOM     32  C   UNL     1      -4.282 -10.081  -4.171  0.00  0.00    +0.000 A 
ATOM     33  C   UNL     1      -4.388  -9.461  -2.940  0.00  0.00    +0.005 A 
ENDBRANCH  27  28
BRANCH  27  34
ATOM     34  C   UNL     1      -6.037  -8.556  -0.509  0.00  0.00    -0.030 A 
ATOM     35  C   UNL     1      -5.459  -9.734  -0.073  0.00  0.00    +0.005 A 
ATOM     36  C   UNL     1      -6.145 -10.560   0.798  0.00  0.00    +0.000 A 
ATOM     37  C   UNL     1      -7.410 -10.208   1.232  0.00  0.00    +0.000 A 
ATOM     38  C   UNL     1      -7.988  -9.030   0.796  0.00  0.00    +0.000 A 
ATOM     39  C   UNL     1      -7.300  -8.203  -0.071  0.00  0.00    +0.005 A 
ENDBRANCH  27  34
ENDBRANCH  26  27
ENDBRANCH  11  26
TORSDOF 5
