REMARK  Name = ZINC06155351
REMARK  9 active torsions:
REMARK  status: ('A' for Active; 'I' for Inactive)
REMARK    1  A    between atoms: C_1  and  O_2
REMARK    2  A    between atoms: O_2  and  C_3
REMARK    3  A    between atoms: C_6  and  O_34
REMARK    4  A    between atoms: C_7  and  S_9
REMARK    5  A    between atoms: S_9  and  N_12
REMARK    6  A    between atoms: N_12  and  N_13
REMARK    7  A    between atoms: C_15  and  C_24
REMARK    8  A    between atoms: N_26  and  C_27
REMARK    9  A    between atoms: O_34  and  C_35
REMARK                            x       y       z     vdW  Elec       q    Type
REMARK                         _______ _______ _______ _____ _____    ______ ____
ROOT
ATOM      1  N   UNL     1      -0.720   5.585   0.995  0.00  0.00    -0.260 N 
ATOM      2  C   UNL     1      -0.862   4.557   1.783  0.00  0.00    +0.225 A 
ATOM      3  C   UNL     1       0.230   4.134   2.691  0.00  0.00    +0.099 A 
ATOM      4  C   UNL     1      -0.133   3.466   3.838  0.00  0.00    +0.030 A 
ATOM      5  C   UNL     1      -1.563   3.221   4.061  0.00  0.00    +0.018 A 
ATOM      6  C   UNL     1      -2.028   2.794   5.308  0.00  0.00    +0.011 A 
ATOM      7  C   UNL     1      -3.377   2.575   5.494  0.00  0.00    +0.001 A 
ATOM      8  C   UNL     1      -4.269   2.778   4.454  0.00  0.00    +0.004 A 
ATOM      9  C   UNL     1      -3.822   3.199   3.216  0.00  0.00    +0.047 A 
ATOM     10  C   UNL     1      -2.471   3.422   3.007  0.00  0.00    +0.137 A 
ATOM     11  O   UNL     1      -2.018   3.833   1.795  0.00  0.00    -0.437 OA
ATOM     12  H   UNL     1       0.283   5.984   0.786  0.00  0.00    +0.189 HD
ENDROOT
BRANCH   3  13
ATOM     13  C   UNL     1       1.640   4.422   2.380  0.00  0.00    +0.253 C 
ATOM     14  O   UNL     1       2.390   4.810   3.256  0.00  0.00    -0.270 OA
ATOM     15  N   UNL     1       2.101   4.254   1.124  0.00  0.00    -0.281 N 
ATOM     16  H   UNL     1       1.429   3.883   0.337  0.00  0.00    +0.155 HD
BRANCH  15  17
ATOM     17  C   UNL     1       3.433   4.554   0.822  0.00  0.00    +0.036 A 
ATOM     18  C   UNL     1       3.992   4.116  -0.372  0.00  0.00    +0.023 A 
ATOM     19  C   UNL     1       5.307   4.412  -0.668  0.00  0.00    +0.005 A 
ATOM     20  C   UNL     1       6.070   5.146   0.222  0.00  0.00    +0.038 A 
ATOM     21  C   UNL     1       5.518   5.584   1.414  0.00  0.00    +0.125 A 
ATOM     22  C   UNL     1       4.199   5.294   1.713  0.00  0.00    +0.061 A 
ATOM     23  F   UNL     1       6.265   6.300   2.281  0.00  0.00    -0.205 F 
ENDBRANCH  15  17
ENDBRANCH   3  13
BRANCH   1  24
ATOM     24  N   UNL     1      -1.847   6.181   0.413  0.00  0.00    -0.157 N 
ATOM     25  H   UNL     1      -2.693   5.708   0.398  0.00  0.00    +0.194 HD
BRANCH  24  26
ATOM     26  S   UNL     1      -1.733   7.695  -0.250  0.00  0.00    +0.089 S 
ATOM     27  O   UNL     1      -0.967   8.478   0.656  0.00  0.00    -0.149 OA
ATOM     28  O   UNL     1      -3.045   8.061  -0.653  0.00  0.00    -0.149 OA
BRANCH  26  33
ATOM     29  C   UNL     1      -0.628   7.568  -4.115  0.00  0.00    +0.122 A 
ATOM     30  C   UNL     1       0.736   7.328  -4.034  0.00  0.00    +0.049 A 
ATOM     31  C   UNL     1       1.342   7.198  -2.800  0.00  0.00    +0.051 A 
ATOM     32  C   UNL     1       0.588   7.309  -1.641  0.00  0.00    +0.147 A 
ATOM     33  C   UNL     1      -0.776   7.548  -1.722  0.00  0.00    +0.155 A 
ATOM     34  C   UNL     1      -1.383   7.678  -2.956  0.00  0.00    +0.078 A 
BRANCH  29  36
ATOM     35  C   UNL     1      -0.388   7.571  -6.481  0.00  0.00    +0.277 C 
ATOM     36  O   UNL     1      -1.226   7.695  -5.330  0.00  0.00    -0.495 OA
ENDBRANCH  29  36
BRANCH  32  37
ATOM     37  O   UNL     1       1.186   7.182  -0.427  0.00  0.00    -0.493 OA
ATOM     38  C   UNL     1       2.499   6.619  -0.405  0.00  0.00    +0.277 C 
ENDBRANCH  32  37
ENDBRANCH  26  33
ENDBRANCH  24  26
ENDBRANCH   1  24
TORSDOF 7
