REMARK  Name = ZINC66968016
REMARK  9 active torsions:
REMARK  status: ('A' for Active; 'I' for Inactive)
REMARK    1  A    between atoms: C_1  and  C_2
REMARK    2  A    between atoms: C_2  and  C_3
REMARK    3  A    between atoms: C_3  and  N_4
REMARK    4  A    between atoms: C_10  and  N_13
REMARK    5  A    between atoms: N_13  and  C_14
REMARK    6  A    between atoms: C_14  and  C_16
REMARK    7  A    between atoms: C_14  and  C_17
REMARK    8  A    between atoms: N_19  and  C_20
REMARK    9  A    between atoms: C_21  and  C_25
REMARK                            x       y       z     vdW  Elec       q    Type
REMARK                         _______ _______ _______ _____ _____    ______ ____
ROOT
ATOM      1  C   UNL     1       2.195  -2.890  -6.904  0.00  0.00    +0.154 C 
ATOM      2  C   UNL     1       2.219  -4.374  -7.276  0.00  0.00    +0.038 C 
ENDROOT
BRANCH   1   3
ATOM      3  C   UNL     1       3.499  -2.251  -7.305  0.00  0.00    +0.238 C 
ATOM      4  O   UNL     1       4.203  -1.731  -6.465  0.00  0.00    -0.273 OA
ATOM      5  N   UNL     1       3.882  -2.256  -8.597  0.00  0.00    -0.278 N 
ATOM      6  H   UNL     1       3.319  -2.671  -9.268  0.00  0.00    +0.155 HD
BRANCH   5   7
ATOM      7  C   UNL     1       5.082  -1.667  -8.966  0.00  0.00    +0.084 A 
ATOM      8  C   UNL     1       5.631  -1.573 -10.237  0.00  0.00    +0.065 A 
ATOM      9  C   UNL     1       6.906  -0.902 -10.342  0.00  0.00    +0.022 A 
ATOM     10  C   UNL     1       7.423  -0.440  -9.188  0.00  0.00    +0.048 A 
ATOM     11  S   UNL     1       6.201  -0.898  -7.979  0.00  0.00    -0.081 S 
BRANCH   8  12
ATOM     12  C   UNL     1       4.952  -2.127 -11.412  0.00  0.00    +0.244 C 
ATOM     13  O   UNL     1       3.878  -2.687 -11.287  0.00  0.00    -0.270 OA
ATOM     14  N   UNL     1       5.516  -2.016 -12.631  0.00  0.00    -0.325 N 
ATOM     15  H   UNL     1       6.372  -1.570 -12.730  0.00  0.00    +0.145 HD
ATOM     16  H   UNL     1       5.067  -2.382 -13.409  0.00  0.00    +0.145 HD
ENDBRANCH   8  12
ENDBRANCH   5   7
ENDBRANCH   1   3
BRANCH   1  17
ATOM     17  N   UNL     1       2.008  -2.753  -5.457  0.00  0.00    -0.333 N 
ATOM     18  H   UNL     1       2.778  -2.648  -4.876  0.00  0.00    +0.147 HD
BRANCH  17  25
ATOM     19  N   UNL     1       0.738  -1.966  -1.265  0.00  0.00    +0.385 N 
ATOM     20  C   UNL     1      -0.620  -2.503  -1.509  0.00  0.00    -0.042 C 
ATOM     21  C   UNL     1      -0.732  -2.663  -3.008  0.00  0.00    -0.061 A 
ATOM     22  C   UNL     1      -1.828  -2.812  -3.838  0.00  0.00    +0.002 A 
ATOM     23  C   UNL     1      -1.653  -2.942  -5.204  0.00  0.00    +0.002 A 
ATOM     24  C   UNL     1      -0.382  -2.922  -5.744  0.00  0.00    +0.023 A 
ATOM     25  C   UNL     1       0.721  -2.772  -4.914  0.00  0.00    +0.029 A 
ATOM     26  C   UNL     1       0.543  -2.643  -3.543  0.00  0.00    -0.042 A 
ATOM     27  C   UNL     1       1.530  -2.469  -2.411  0.00  0.00    -0.040 C 
ATOM     28  H   UNL     1       1.110  -2.320  -0.396  0.00  0.00    -0.081 HD
BRANCH  19  29
ATOM     29  C   UNL     1       0.718  -0.497  -1.257  0.00  0.00    -0.078 C 
BRANCH  29  31
ATOM     30  C   UNL     1      -0.019   1.526   0.010  0.00  0.00    +0.002 C 
ATOM     31  C   UNL     1       0.002  -0.004   0.002  0.00  0.00    -0.022 C 
ENDBRANCH  29  31
ENDBRANCH  19  29
ENDBRANCH  17  25
ENDBRANCH   1  17
TORSDOF 7
