REMARK  Name = ZINC02699703
REMARK  9 active torsions:
REMARK  status: ('A' for Active; 'I' for Inactive)
REMARK    1  A    between atoms: C_6  and  C_7
REMARK    2  A    between atoms: C_10  and  S_18
REMARK    3  A    between atoms: N_11  and  C_12
REMARK    4  A    between atoms: S_18  and  C_19
REMARK    5  A    between atoms: C_19  and  C_20
REMARK    6  A    between atoms: N_22  and  N_23
REMARK    7  A    between atoms: C_24  and  C_25
REMARK    8  A    between atoms: C_28  and  O_32
REMARK    9  A    between atoms: C_29  and  O_31
REMARK                            x       y       z     vdW  Elec       q    Type
REMARK                         _______ _______ _______ _____ _____    ______ ____
ROOT
ATOM      1  C   UNL     1      -2.003  -1.224  -0.981  0.00  0.00    +0.165 A 
ATOM      2  N   UNL     1      -3.281  -1.115  -0.701  0.00  0.00    -0.128 NA
ATOM      3  N   UNL     1      -3.432  -0.735   0.518  0.00  0.00    -0.122 NA
ATOM      4  C   UNL     1      -2.259  -0.584   1.092  0.00  0.00    +0.193 A 
ATOM      5  N   UNL     1      -1.310  -0.892   0.160  0.00  0.00    -0.299 N 
ENDROOT
BRANCH   1  11
ATOM      6  C   UNL     1      -0.188  -1.112  -2.684  0.00  0.00    +0.013 A 
ATOM      7  C   UNL     1       0.353  -1.497  -3.893  0.00  0.00    +0.021 A 
ATOM      8  C   UNL     1      -0.327  -2.386  -4.708  0.00  0.00    +0.041 A 
ATOM      9  C   UNL     1      -1.552  -2.898  -4.312  0.00  0.00    +0.021 A 
ATOM     10  C   UNL     1      -2.101  -2.524  -3.104  0.00  0.00    +0.013 A 
ATOM     11  C   UNL     1      -1.420  -1.628  -2.278  0.00  0.00    +0.019 A 
ATOM     12 CL   UNL     1       0.357  -2.860  -6.231  0.00  0.00    -0.084 Cl
ENDBRANCH   1  11
BRANCH   5  13
ATOM     13  C   UNL     1       0.145  -0.870   0.337  0.00  0.00    +0.091 C 
ATOM     14  C   UNL     1       0.606   0.568   0.581  0.00  0.00    +0.025 C 
ATOM     15  C   UNL     1       2.125   0.592   0.766  0.00  0.00    +0.002 C 
ATOM     16  C   UNL     1       2.506  -0.278   1.966  0.00  0.00    +0.000 C 
ATOM     17  C   UNL     1       2.045  -1.716   1.721  0.00  0.00    +0.002 C 
ATOM     18  C   UNL     1       0.526  -1.739   1.536  0.00  0.00    +0.025 C 
ENDBRANCH   5  13
BRANCH   4  19
ATOM     19  S   UNL     1      -1.966  -0.076   2.754  0.00  0.00    -0.077 S 
BRANCH  19  20
ATOM     20  C   UNL     1      -3.671   0.137   3.322  0.00  0.00    +0.174 C 
BRANCH  20  21
ATOM     21  C   UNL     1      -3.669   0.582   4.762  0.00  0.00    +0.242 C 
ATOM     22  O   UNL     1      -2.618   0.739   5.346  0.00  0.00    -0.273 OA
ATOM     23  N   UNL     1      -4.835   0.804   5.400  0.00  0.00    -0.206 N 
ATOM     24  H   UNL     1      -5.676   0.678   4.933  0.00  0.00    +0.177 HD
BRANCH  23  25
ATOM     25  N   UNL     1      -4.833   1.218   6.739  0.00  0.00    -0.188 NA
ATOM     26  C   UNL     1      -5.955   1.433   7.354  0.00  0.00    +0.138 C 
BRANCH  26  27
ATOM     27  C   UNL     1      -5.953   1.868   8.762  0.00  0.00    -0.002 A 
ATOM     28  C   UNL     1      -4.744   2.044   9.438  0.00  0.00    +0.013 A 
ATOM     29  C   UNL     1      -4.744   2.457  10.754  0.00  0.00    +0.050 A 
ATOM     30  C   UNL     1      -5.943   2.687  11.413  0.00  0.00    +0.158 A 
ATOM     31  C   UNL     1      -7.153   2.507  10.746  0.00  0.00    +0.159 A 
ATOM     32  C   UNL     1      -7.161   2.099   9.425  0.00  0.00    +0.058 A 
BRANCH  31  33
ATOM     33  O   UNL     1      -8.326   2.734  11.395  0.00  0.00    -0.503 OA
ATOM     34  H   UNL     1      -8.684   1.955  11.843  0.00  0.00    +0.292 HD
ENDBRANCH  31  33
BRANCH  30  35
ATOM     35  O   UNL     1      -5.937   3.089  12.711  0.00  0.00    -0.503 OA
ATOM     36  H   UNL     1      -5.954   2.361  13.348  0.00  0.00    +0.292 HD
ENDBRANCH  30  35
ENDBRANCH  26  27
ENDBRANCH  23  25
ENDBRANCH  20  21
ENDBRANCH  19  20
ENDBRANCH   4  19
TORSDOF 9
