REMARK  Name = ZINC35136378
REMARK  15 active torsions:
REMARK  status: ('A' for Active; 'I' for Inactive)
REMARK    1  A    between atoms: C_1  and  C_2
REMARK    2  A    between atoms: C_2  and  C_3
REMARK    3  A    between atoms: C_3  and  N_4
REMARK    4  A    between atoms: N_4  and  C_5
REMARK    5  A    between atoms: C_5  and  C_6
REMARK    6  A    between atoms: N_8  and  C_9
REMARK    7  A    between atoms: C_11  and  C_21
REMARK    8  A    between atoms: N_13  and  C_14
REMARK    9  A    between atoms: C_19  and  C_20
REMARK   10  A    between atoms: C_21  and  C_22
REMARK   11  A    between atoms: C_21  and  C_23
REMARK   12  A    between atoms: C_21  and  C_24
REMARK   13  A    between atoms: C_25  and  C_27
REMARK   14  A    between atoms: C_30  and  C_36
REMARK   15  A    between atoms: C_31  and  N_33
REMARK                            x       y       z     vdW  Elec       q    Type
REMARK                         _______ _______ _______ _____ _____    ______ ____
ROOT
ATOM      1  C   UNL     1      -0.929  -2.605  -3.207  0.00  0.00    +0.236 C 
ATOM      2  O   UNL     1       0.038  -2.390  -3.908  0.00  0.00    -0.274 OA
ATOM      3  N   UNL     1      -1.985  -3.278  -3.705  0.00  0.00    -0.269 N 
ATOM      4  H   UNL     1      -2.758  -3.450  -3.145  0.00  0.00    +0.156 HD
ENDROOT
BRANCH   3   5
ATOM      5  C   UNL     1      -1.967  -3.727  -5.025  0.00  0.00    +0.129 A 
ATOM      6  C   UNL     1      -1.009  -3.458  -5.954  0.00  0.00    +0.069 A 
ATOM      7  C   UNL     1      -1.373  -4.098  -7.143  0.00  0.00    +0.071 A 
ATOM      8  N   UNL     1      -2.502  -4.729  -6.946  0.00  0.00    -0.169 NA
ATOM      9  N   UNL     1      -2.900  -4.520  -5.619  0.00  0.00    -0.218 N 
BRANCH   9  10
ATOM     10  C   UNL     1      -4.055  -5.033  -5.013  0.00  0.00    +0.070 A 
ATOM     11  C   UNL     1      -3.973  -5.651  -3.772  0.00  0.00    +0.028 A 
ATOM     12  C   UNL     1      -5.113  -6.155  -3.177  0.00  0.00    +0.002 A 
ATOM     13  C   UNL     1      -6.335  -6.045  -3.816  0.00  0.00    +0.000 A 
ATOM     14  C   UNL     1      -6.419  -5.430  -5.051  0.00  0.00    +0.005 A 
ATOM     15  C   UNL     1      -5.284  -4.918  -5.648  0.00  0.00    -0.025 A 
ATOM     16  C   UNL     1      -5.378  -4.242  -6.992  0.00  0.00    +0.046 C 
ENDBRANCH   9  10
BRANCH   7  17
ATOM     17  C   UNL     1      -0.595  -4.066  -8.433  0.00  0.00    +0.006 C 
ATOM     18  C   UNL     1       0.630  -4.974  -8.313  0.00  0.00    +0.017 C 
ATOM     19  C   UNL     1      -1.484  -4.558  -9.577  0.00  0.00    +0.017 C 
ATOM     20  C   UNL     1      -0.141  -2.633  -8.720  0.00  0.00    +0.017 C 
ENDBRANCH   7  17
ENDBRANCH   3   5
BRANCH   1  21
ATOM     21  C   UNL     1      -0.949  -2.120  -1.781  0.00  0.00    +0.204 C 
BRANCH  21  22
ATOM     22  N   UNL     1       0.306  -1.423  -1.484  0.00  0.00    -0.289 N 
ATOM     23  C   UNL     1       1.315  -2.080  -0.879  0.00  0.00    +0.247 C 
ATOM     24  O   UNL     1       2.319  -1.480  -0.548  0.00  0.00    -0.270 OA
BRANCH  23  25
ATOM     25  C   UNL     1       1.201  -3.531  -0.619  0.00  0.00    +0.039 A 
ATOM     26  C   UNL     1       0.746  -4.390  -1.620  0.00  0.00    +0.013 A 
ATOM     27  C   UNL     1       0.643  -5.742  -1.371  0.00  0.00    +0.006 A 
ATOM     28  C   UNL     1       0.989  -6.248  -0.130  0.00  0.00    -0.020 A 
ATOM     29  C   UNL     1       1.441  -5.403   0.867  0.00  0.00    +0.130 A 
ATOM     30  C   UNL     1       1.554  -4.048   0.628  0.00  0.00    +0.046 A 
ATOM     31  C   UNL     1       0.873  -7.727   0.136  0.00  0.00    +0.046 C 
BRANCH  29  32
ATOM     32  N   UNL     1       1.808  -5.952   2.191  0.00  0.00    +0.057 N 
ATOM     33  O   UNL     1       1.563  -5.325   3.196  0.00  0.00    -0.126 OA
ATOM     34  O   UNL     1       2.353  -7.029   2.269  0.00  0.00    -0.126 OA
ENDBRANCH  29  32
ENDBRANCH  23  25
BRANCH  22  35
ATOM     35  C   UNL     1       0.463  -0.012  -1.846  0.00  0.00    +0.108 C 
BRANCH  35  37
ATOM     36  C   UNL     1       0.057   2.340  -1.108  0.00  0.00    +0.005 C 
ATOM     37  C   UNL     1      -0.107   0.866  -0.730  0.00  0.00    +0.016 C 
ENDBRANCH  35  37
ENDBRANCH  22  35
ENDBRANCH  21  22
ENDBRANCH   1  21
TORSDOF 9
