REMARK  Name = ZINC62893361
REMARK  8 active torsions:
REMARK  status: ('A' for Active; 'I' for Inactive)
REMARK    1  A    between atoms: C_1  and  C_2
REMARK    2  A    between atoms: C_2  and  C_3
REMARK    3  A    between atoms: C_3  and  C_4
REMARK    4  A    between atoms: C_4  and  C_9
REMARK    5  A    between atoms: N_11  and  C_12
REMARK    6  A    between atoms: C_17  and  N_18
REMARK    7  A    between atoms: N_18  and  C_19
REMARK    8  A    between atoms: N_18  and  C_20
REMARK                            x       y       z     vdW  Elec       q    Type
REMARK                         _______ _______ _______ _____ _____    ______ ____
ROOT
ATOM      1  C   UNL     1      -0.911  -2.005  -1.397  0.00  0.00    +0.222 C 
ATOM      2  O   UNL     1      -1.385  -2.412  -2.436  0.00  0.00    -0.275 OA
ATOM      3  N   UNL     1      -1.664  -1.976  -0.279  0.00  0.00    -0.284 N 
ATOM      4  H   UNL     1      -1.263  -1.728   0.569  0.00  0.00    +0.155 HD
ENDROOT
BRANCH   1   5
ATOM      5  C   UNL     1       0.519  -1.532  -1.355  0.00  0.00    +0.031 C 
ATOM      6  C   UNL     1       1.310  -2.302  -0.272  0.00  0.00    -0.005 C 
ATOM      7  C   UNL     1       2.012  -3.419  -1.085  0.00  0.00    -0.082 C 
ATOM      8  N   UNL     1       2.373  -2.739  -2.355  0.00  0.00    +0.380 N 
ATOM      9  C   UNL     1       1.229  -1.859  -2.681  0.00  0.00    -0.067 C 
ATOM     10  H   UNL     1       3.210  -2.189  -2.230  0.00  0.00    -0.086 HD
ATOM     11  H   UNL     1       2.509  -3.419  -3.088  0.00  0.00    -0.086 HD
BRANCH   5  12
ATOM     12  C   UNL     1       0.572  -0.028  -1.081  0.00  0.00    +0.014 C 
BRANCH  12  14
ATOM     13  C   UNL     1      -0.111   2.224  -1.923  0.00  0.00    +0.004 C 
ATOM     14  C   UNL     1      -0.196   0.717  -2.175  0.00  0.00    -0.002 C 
ENDBRANCH  12  14
ENDBRANCH   5  12
ENDBRANCH   1   5
BRANCH   3  15
ATOM     15  C   UNL     1      -3.025  -2.305  -0.341  0.00  0.00    +0.056 A 
ATOM     16  C   UNL     1      -3.477  -3.218  -1.282  0.00  0.00    +0.040 A 
ATOM     17  C   UNL     1      -4.820  -3.541  -1.341  0.00  0.00    +0.020 A 
ATOM     18  C   UNL     1      -5.716  -2.955  -0.465  0.00  0.00    +0.017 A 
ATOM     19  C   UNL     1      -5.274  -2.043   0.475  0.00  0.00    +0.026 A 
ATOM     20  C   UNL     1      -3.927  -1.718   0.545  0.00  0.00    +0.051 A 
ATOM     21 BR   UNL     1      -5.434  -4.787  -2.624  0.00  0.00    -0.050 Br
BRANCH  20  22
ATOM     22  N   UNL     1      -3.476  -0.800   1.500  0.00  0.00    -0.335 N 
ATOM     23  C   UNL     1      -3.049  -1.267   2.821  0.00  0.00    +0.129 C 
ATOM     24  C   UNL     1      -3.431   0.629   1.179  0.00  0.00    +0.129 C 
ENDBRANCH  20  22
ENDBRANCH   3  15
TORSDOF 5
