REMARK  Name = ZINC32741656
REMARK  8 active torsions:
REMARK  status: ('A' for Active; 'I' for Inactive)
REMARK    1  A    between atoms: C_4  and  N_9
REMARK    2  A    between atoms: C_5  and  C_7
REMARK    3  A    between atoms: C_10  and  C_12
REMARK    4  A    between atoms: C_12  and  S_13
REMARK    5  A    between atoms: S_13  and  C_14
REMARK    6  A    between atoms: C_18  and  S_23
REMARK    7  A    between atoms: S_23  and  N_26
REMARK    8  A    between atoms: N_26  and  C_27
REMARK                            x       y       z     vdW  Elec       q    Type
REMARK                         _______ _______ _______ _____ _____    ______ ____
ROOT
ATOM      1  C   UNL     1      -0.831   2.964   1.225  0.00  0.00    +0.258 A 
ATOM      2  N   UNL     1      -1.222   3.886   2.068  0.00  0.00    -0.203 NA
ATOM      3  C   UNL     1      -1.024   5.108   1.501  0.00  0.00    +0.112 A 
ATOM      4  C   UNL     1      -1.250   6.417   1.929  0.00  0.00    +0.060 A 
ATOM      5  C   UNL     1      -0.940   7.471   1.097  0.00  0.00    +0.113 A 
ATOM      6  C   UNL     1      -0.406   7.238  -0.161  0.00  0.00    +0.032 A 
ATOM      7  C   UNL     1      -0.178   5.948  -0.597  0.00  0.00    +0.050 A 
ATOM      8  C   UNL     1      -0.483   4.877   0.227  0.00  0.00    +0.156 A 
ATOM      9  O   UNL     1      -0.379   3.534   0.094  0.00  0.00    -0.431 OA
ENDROOT
BRANCH   5  10
ATOM     10  S   UNL     1      -1.225   9.124   1.636  0.00  0.00    +0.092 S 
ATOM     11  O   UNL     1      -1.361   9.915   0.463  0.00  0.00    -0.148 OA
ATOM     12  O   UNL     1      -2.236   9.059   2.632  0.00  0.00    -0.148 OA
BRANCH  10  13
ATOM     13  N   UNL     1       0.155   9.636   2.395  0.00  0.00    -0.096 NA
BRANCH  13  14
ATOM     14  C   UNL     1       1.364   9.678   1.694  0.00  0.00    +0.093 A 
ATOM     15  C   UNL     1       1.377  10.023   0.349  0.00  0.00    +0.028 A 
ATOM     16  C   UNL     1       2.574  10.068  -0.339  0.00  0.00    +0.002 A 
ATOM     17  C   UNL     1       3.757   9.759   0.307  0.00  0.00    +0.002 A 
ATOM     18  C   UNL     1       3.748   9.410   1.645  0.00  0.00    +0.022 A 
ATOM     19  C   UNL     1       2.555   9.368   2.341  0.00  0.00    +0.065 A 
ATOM     20 CL   UNL     1       2.543   8.928   4.020  0.00  0.00    -0.082 Cl
ENDBRANCH  13  14
ENDBRANCH  10  13
ENDBRANCH   5  10
BRANCH   1  21
ATOM     21  S   UNL     1      -0.894   1.229   1.526  0.00  0.00    -0.058 S 
BRANCH  21  22
ATOM     22  C   UNL     1      -0.218   0.614  -0.037  0.00  0.00    +0.175 C 
BRANCH  22  24
ATOM     23  N   UNL     1       0.294  -1.573  -1.072  0.00  0.00    -0.284 N 
ATOM     24  C   UNL     1      -0.176  -0.892  -0.008  0.00  0.00    +0.228 C 
ATOM     25  O   UNL     1      -0.564  -1.491   0.972  0.00  0.00    -0.275 OA
ATOM     26  H   UNL     1       0.574  -1.035  -1.990  0.00  0.00    +0.155 HD
BRANCH  23  30
ATOM     27  C   UNL     1       0.684  -5.722  -0.883  0.00  0.00    +0.001 A 
ATOM     28  C   UNL     1      -0.356  -5.087  -0.224  0.00  0.00    +0.002 A 
ATOM     29  C   UNL     1      -0.485  -3.714  -0.280  0.00  0.00    +0.024 A 
ATOM     30  C   UNL     1       0.425  -2.960  -1.009  0.00  0.00    +0.051 A 
ATOM     31  C   UNL     1       1.479  -3.599  -1.678  0.00  0.00    +0.073 A 
ATOM     32  C   UNL     1       1.599  -4.989  -1.607  0.00  0.00    +0.021 A 
BRANCH  31  33
ATOM     33  C   UNL     1       2.427  -2.832  -2.428  0.00  0.00    +0.101 C 
ATOM     34  N   UNL     1       3.179  -2.223  -3.023  0.00  0.00    -0.191 NA
ENDBRANCH  31  33
ENDBRANCH  23  30
ENDBRANCH  22  24
ENDBRANCH  21  22
ENDBRANCH   1  21
TORSDOF 8
