REMARK  Name = ZINC37946538
REMARK  4 active torsions:
REMARK  status: ('A' for Active; 'I' for Inactive)
REMARK    1  A    between atoms: C_7  and  C_11
REMARK    2  A    between atoms: C_7  and  N_14
REMARK    3  A    between atoms: N_14  and  C_15
REMARK    4  A    between atoms: C_15  and  C_16
REMARK                            x       y       z     vdW  Elec       q    Type
REMARK                         _______ _______ _______ _____ _____    ______ ____
ROOT
ATOM      1  C   UNL     1      -0.572   1.387   0.359  0.00  0.00    +0.000 A 
ATOM      2  C   UNL     1       0.514   2.245   0.340  0.00  0.00    +0.001 A 
ATOM      3  C   UNL     1       1.784   1.729   0.200  0.00  0.00    +0.015 A 
ATOM      4  C   UNL     1       1.980   0.354   0.071  0.00  0.00    +0.010 A 
ATOM      5  C   UNL     1       0.897  -0.505   0.076  0.00  0.00    -0.036 A 
ATOM      6  C   UNL     1      -0.380   0.029   0.231  0.00  0.00    +0.004 A 
ATOM      7  C   UNL     1       0.987  -1.992  -0.099  0.00  0.00    +0.038 C 
ATOM      8  C   UNL     1       2.335  -2.572   0.292  0.00  0.00    +0.012 C 
ATOM      9  C   UNL     1       3.423  -1.962  -0.604  0.00  0.00    +0.074 C 
ATOM     10  S   UNL     1       3.638  -0.234  -0.084  0.00  0.00    -0.125 S 
ENDROOT
BRANCH   7  11
ATOM     11  C   UNL     1       0.720  -2.324  -1.544  0.00  0.00    +0.204 C 
ATOM     12  O   UNL     1       0.929  -1.496  -2.405  0.00  0.00    -0.277 OA
ATOM     13  N   UNL     1       0.249  -3.542  -1.880  0.00  0.00    -0.330 N 
ATOM     14  H   UNL     1       0.082  -4.204  -1.191  0.00  0.00    +0.145 HD
ATOM     15  H   UNL     1       0.077  -3.756  -2.810  0.00  0.00    +0.145 HD
ENDBRANCH   7  11
BRANCH   7  16
ATOM     16  N   UNL     1      -0.053  -2.625   0.724  0.00  0.00    +0.394 N 
ATOM     17  H   UNL     1      -0.960  -2.290   0.436  0.00  0.00    -0.083 HD
ATOM     18  H   UNL     1      -0.011  -3.626   0.607  0.00  0.00    -0.083 HD
BRANCH  16  19
ATOM     19  C   UNL     1       0.168  -2.288   2.137  0.00  0.00    -0.037 C 
BRANCH  19  20
ATOM     20  C   UNL     1      -0.967  -2.830   2.966  0.00  0.00    -0.027 A 
ATOM     21  C   UNL     1      -1.080  -4.037   3.573  0.00  0.00    +0.009 A 
ATOM     22  C   UNL     1      -2.226  -4.321   4.291  0.00  0.00    +0.008 A 
ATOM     23  C   UNL     1      -3.204  -3.385   4.367  0.00  0.00    +0.045 A 
ATOM     24  S   UNL     1      -2.509  -2.048   3.410  0.00  0.00    -0.104 S 
ENDBRANCH  19  20
ENDBRANCH  16  19
ENDBRANCH   7  16
TORSDOF 4
