REMARK  Name = ZINC03333217
REMARK  6 active torsions:
REMARK  status: ('A' for Active; 'I' for Inactive)
REMARK    1  A    between atoms: C_1  and  C_2
REMARK    2  A    between atoms: C_11  and  O_13
REMARK    3  A    between atoms: O_13  and  C_14
REMARK    4  A    between atoms: C_14  and  C_15
REMARK    5  A    between atoms: C_18  and  C_33
REMARK    6  A    between atoms: C_24  and  C_25
REMARK                            x       y       z     vdW  Elec       q    Type
REMARK                         _______ _______ _______ _____ _____    ______ ____
ROOT
ATOM      1  C   UNL     1      -0.248  -3.242   7.293  0.00  0.00    +0.270 C 
ATOM      2  O   UNL     1      -0.168  -4.438   7.106  0.00  0.00    -0.270 OA
ATOM      3  N   UNL     1       0.006  -2.733   8.515  0.00  0.00    -0.208 N 
ATOM      4  C   UNL     1       0.396  -3.484   9.722  0.00  0.00    +0.161 C 
ATOM      5  C   UNL     1       0.550  -2.437  10.791  0.00  0.00    -0.020 C 
ATOM      6  C   UNL     1       0.275  -1.244  10.230  0.00  0.00    +0.049 C 
ATOM      7  N   UNL     1      -0.043  -1.382   8.891  0.00  0.00    -0.261 N 
ATOM      8  C   UNL     1       0.335   0.004  11.025  0.00  0.00    -0.024 C 
ATOM      9  C   UNL     1       0.292   1.224  10.453  0.00  0.00    +0.020 C 
ATOM     10  C   UNL     1       0.446  -0.183  12.529  0.00  0.00    +0.037 C 
ATOM     11  C   UNL     1       1.456  -1.304  12.802  0.00  0.00    +0.009 C 
ATOM     12  C   UNL     1       0.939  -2.629  12.232  0.00  0.00    +0.035 C 
ATOM     13  H   UNL     1      -0.269  -0.650   8.296  0.00  0.00    +0.170 HD
ENDROOT
BRANCH   9  14
ATOM     14  C   UNL     1       0.157   2.420  11.288  0.00  0.00    +0.012 A 
ATOM     15  C   UNL     1       0.228   3.754  10.921  0.00  0.00    +0.015 A 
ATOM     16  C   UNL     1       0.066   4.709  11.896  0.00  0.00    +0.008 A 
ATOM     17  C   UNL     1      -0.157   4.319  13.179  0.00  0.00    +0.046 A 
ATOM     18  S   UNL     1      -0.150   2.539  13.042  0.00  0.00    -0.097 S 
ENDBRANCH   9  14
BRANCH   4  19
ATOM     19  C   UNL     1       1.701  -4.202   9.494  0.00  0.00    +0.016 A 
ATOM     20  C   UNL     1       2.079  -5.437   9.906  0.00  0.00    +0.013 A 
ATOM     21  C   UNL     1       3.340  -5.897   9.576  0.00  0.00    +0.008 A 
ATOM     22  C   UNL     1       4.162  -5.099   8.851  0.00  0.00    +0.045 A 
ATOM     23  S   UNL     1       3.148  -3.650   8.606  0.00  0.00    -0.099 S 
ENDBRANCH   4  19
BRANCH   1  24
ATOM     24  C   UNL     1      -0.631  -2.326   6.160  0.00  0.00    +0.326 C 
BRANCH  24  25
ATOM     25  O   UNL     1      -0.847  -3.096   4.976  0.00  0.00    -0.483 OA
BRANCH  25  36
ATOM     26  C   UNL     1      -2.463   1.202   0.372  0.00  0.00    +0.045 C 
ATOM     27  C   UNL     1      -2.305  -0.296   0.366  0.00  0.00    -0.033 A 
ATOM     28  C   UNL     1      -2.510  -1.015  -0.769  0.00  0.00    +0.096 A 
ATOM     29  C   UNL     1      -2.356  -2.416  -0.749  0.00  0.00    +0.337 A 
ATOM     30  O   UNL     1      -2.541  -3.048  -1.774  0.00  0.00    -0.245 OA
ATOM     31  O   UNL     1      -2.009  -3.072   0.370  0.00  0.00    -0.422 OA
ATOM     32  C   UNL     1      -1.792  -2.418   1.531  0.00  0.00    +0.143 A 
ATOM     33  C   UNL     1      -1.923  -1.017   1.581  0.00  0.00    +0.021 A 
ATOM     34  C   UNL     1      -1.693  -0.336   2.782  0.00  0.00    +0.015 A 
ATOM     35  C   UNL     1      -1.338  -1.032   3.900  0.00  0.00    +0.046 A 
ATOM     36  C   UNL     1      -1.202  -2.418   3.855  0.00  0.00    +0.125 A 
ATOM     37  C   UNL     1      -1.435  -3.110   2.678  0.00  0.00    +0.092 A 
ENDBRANCH  25  36
ENDBRANCH  24  25
ENDBRANCH   1  24
TORSDOF 5
