REMARK  Name = ZINC39678950
REMARK  9 active torsions:
REMARK  status: ('A' for Active; 'I' for Inactive)
REMARK    1  A    between atoms: C_1  and  N_2
REMARK    2  A    between atoms: N_2  and  C_3
REMARK    3  A    between atoms: N_2  and  C_4
REMARK    4  A    between atoms: C_4  and  C_5
REMARK    5  A    between atoms: C_5  and  C_6
REMARK    6  A    between atoms: C_6  and  C_7
REMARK    7  A    between atoms: C_7  and  N_8
REMARK    8  A    between atoms: C_9  and  C_11
REMARK    9  A    between atoms: C_22  and  C_24
REMARK                            x       y       z     vdW  Elec       q    Type
REMARK                         _______ _______ _______ _____ _____    ______ ____
ROOT
ATOM      1  C   UNL     1       0.247  -1.323   8.348  0.00  0.00    +0.100 C 
ATOM      2  C   UNL     1       0.557  -2.826   8.525  0.00  0.00    +0.121 C 
ATOM      3  N   UNL     1       0.444  -3.062   9.984  0.00  0.00    -0.296 N 
ATOM      4  C   UNL     1      -0.720  -2.243  10.400  0.00  0.00    +0.115 C 
ATOM      5  C   UNL     1      -0.591  -0.944   9.580  0.00  0.00    -0.004 C 
ATOM      6  C   UNL     1      -1.970  -0.454   9.150  0.00  0.00    -0.010 C 
ATOM      7  C   UNL     1      -2.765  -0.028  10.388  0.00  0.00    -0.082 C 
ATOM      8  N   UNL     1      -2.042   1.038  11.093  0.00  0.00    +0.379 N 
ATOM      9  C   UNL     1      -0.755   0.530  11.584  0.00  0.00    -0.082 C 
ATOM     10  C   UNL     1       0.124   0.128  10.396  0.00  0.00    -0.010 C 
ATOM     11  C   UNL     1       1.222  -3.844  10.757  0.00  0.00    +0.247 C 
ATOM     12  O   UNL     1       2.222  -4.356  10.292  0.00  0.00    -0.270 OA
ATOM     13  H   UNL     1      -1.879   1.807  10.460  0.00  0.00    -0.086 HD
ATOM     14  H   UNL     1      -2.596   1.359  11.873  0.00  0.00    -0.086 HD
ENDROOT
BRANCH  11  15
ATOM     15  C   UNL     1       0.861  -4.080  12.171  0.00  0.00    +0.037 A 
ATOM     16  C   UNL     1      -0.452  -3.880  12.601  0.00  0.00    +0.014 A 
ATOM     17  C   UNL     1      -0.783  -4.101  13.922  0.00  0.00    +0.016 A 
ATOM     18  C   UNL     1       0.184  -4.521  14.820  0.00  0.00    +0.018 A 
ATOM     19  C   UNL     1       1.488  -4.721  14.399  0.00  0.00    +0.016 A 
ATOM     20  C   UNL     1       1.830  -4.509  13.080  0.00  0.00    +0.014 A 
ATOM     21 BR   UNL     1      -0.279  -4.822  16.628  0.00  0.00    -0.050 Br
ENDBRANCH  11  15
BRANCH   1  23
ATOM     22  N   UNL     1      -0.418   0.066   6.412  0.00  0.00    -0.315 N 
ATOM     23  C   UNL     1      -0.543  -1.095   7.085  0.00  0.00    +0.218 C 
ATOM     24  O   UNL     1      -1.291  -1.957   6.674  0.00  0.00    -0.275 OA
ATOM     25  H   UNL     1       0.180   0.755   6.740  0.00  0.00    +0.149 HD
BRANCH  22  26
ATOM     26  C   UNL     1      -1.187   0.287   5.184  0.00  0.00    +0.104 C 
BRANCH  26  27
ATOM     27  C   UNL     1      -0.863   1.673   4.623  0.00  0.00    +0.017 C 
BRANCH  27  28
ATOM     28  C   UNL     1      -1.666   1.904   3.341  0.00  0.00    -0.017 C 
BRANCH  28  29
ATOM     29  C   UNL     1      -1.343   3.290   2.780  0.00  0.00    -0.080 C 
BRANCH  29  31
ATOM     30  C   UNL     1      -3.547   3.546   1.868  0.00  0.00    -0.097 C 
ATOM     31  N   UNL     1      -2.113   3.511   1.549  0.00  0.00    +0.376 N 
ATOM     32  C   UNL     1      -1.715   4.790   0.946  0.00  0.00    -0.097 C 
ATOM     33  H   UNL     1      -1.931   2.762   0.898  0.00  0.00    -0.083 HD
ENDBRANCH  29  31
ENDBRANCH  28  29
ENDBRANCH  27  28
ENDBRANCH  26  27
ENDBRANCH  22  26
ENDBRANCH   1  23
TORSDOF 7
