REMARK  Name = ZINC35255126
REMARK  5 active torsions:
REMARK  status: ('A' for Active; 'I' for Inactive)
REMARK    1  A    between atoms: C_6  and  C_7
REMARK    2  A    between atoms: C_7  and  N_8
REMARK    3  A    between atoms: N_8  and  C_9
REMARK    4  A    between atoms: N_12  and  C_15
REMARK    5  A    between atoms: C_15  and  C_16
REMARK                            x       y       z     vdW  Elec       q    Type
REMARK                         _______ _______ _______ _____ _____    ______ ____
ROOT
ATOM      1  N   UNL     1      -1.727  -1.018  -1.372  0.00  0.00    +0.384 N 
ATOM      2  H   UNL     1      -1.864  -0.135  -1.842  0.00  0.00    -0.085 HD
ATOM      3  H   UNL     1      -1.021  -1.551  -1.857  0.00  0.00    -0.085 HD
ENDROOT
BRANCH   1   4
ATOM      4  C   UNL     1      -2.990  -1.769  -1.364  0.00  0.00    -0.069 C 
ATOM      5  C   UNL     1      -4.094  -0.906  -0.746  0.00  0.00    -0.000 C 
ATOM      6  C   UNL     1      -5.419  -1.671  -0.796  0.00  0.00    +0.083 C 
ATOM      7  N   UNL     1      -5.747  -1.993  -2.190  0.00  0.00    -0.294 NA
ATOM      8  C   UNL     1      -4.724  -2.859  -2.790  0.00  0.00    +0.083 C 
ATOM      9  C   UNL     1      -3.379  -2.131  -2.800  0.00  0.00    -0.000 C 
BRANCH   7  10
ATOM     10  C   UNL     1      -7.079  -2.605  -2.290  0.00  0.00    +0.180 C 
BRANCH  10  11
ATOM     11  C   UNL     1      -7.484  -2.696  -3.739  0.00  0.00    +0.225 C 
ATOM     12  O   UNL     1      -6.736  -2.291  -4.603  0.00  0.00    -0.275 OA
ATOM     13  N   UNL     1      -8.676  -3.227  -4.074  0.00  0.00    -0.328 N 
ATOM     14  H   UNL     1      -9.274  -3.550  -3.382  0.00  0.00    +0.145 HD
ATOM     15  H   UNL     1      -8.936  -3.285  -5.006  0.00  0.00    +0.145 HD
ENDBRANCH  10  11
ENDBRANCH   7  10
ENDBRANCH   1   4
BRANCH   1  16
ATOM     16  C   UNL     1      -1.293  -0.775   0.010  0.00  0.00    -0.046 C 
BRANCH  16  22
ATOM     17  C   UNL     1      -0.017   1.378   0.010  0.00  0.00    +0.004 A 
ATOM     18  C   UNL     1       1.170   2.086   0.002  0.00  0.00    +0.039 A 
ATOM     19  C   UNL     1       2.379   1.411  -0.013  0.00  0.00    +0.137 A 
ATOM     20  C   UNL     1       2.397   0.026  -0.021  0.00  0.00    +0.053 A 
ATOM     21  C   UNL     1       1.208  -0.680  -0.013  0.00  0.00    +0.020 A 
ATOM     22  C   UNL     1       0.002  -0.004   0.002  0.00  0.00    -0.063 A 
ATOM     23 BR   UNL     1       4.046  -0.899  -0.042  0.00  0.00    -0.047 Br
ATOM     24  F   UNL     1       3.539   2.103  -0.021  0.00  0.00    -0.204 F 
ENDBRANCH  16  22
ENDBRANCH   1  16
TORSDOF 5
