REMARK  Name = ZINC07736181
REMARK  14 active torsions:
REMARK  status: ('A' for Active; 'I' for Inactive)
REMARK    1  A    between atoms: C_1  and  C_2
REMARK    2  A    between atoms: C_7  and  C_8
REMARK    3  A    between atoms: C_8  and  N_60
REMARK    4  A    between atoms: C_9  and  C_10
REMARK    5  A    between atoms: C_9  and  N_60
REMARK    6  A    between atoms: C_13  and  O_18
REMARK    7  A    between atoms: C_14  and  O_16
REMARK    8  A    between atoms: O_16  and  C_17
REMARK    9  A    between atoms: O_18  and  C_19
REMARK   10  A    between atoms: C_19  and  C_20
REMARK   11  A    between atoms: C_20  and  C_22
REMARK   12  A    between atoms: C_20  and  O_30
REMARK   13  A    between atoms: C_25  and  C_29
REMARK   14  A    between atoms: C_26  and  C_28
REMARK                            x       y       z     vdW  Elec       q    Type
REMARK                         _______ _______ _______ _____ _____    ______ ____
ROOT
ATOM      1  C   UNL     1       7.037   3.912  -5.167  0.00  0.00    -0.061 A 
ATOM      2  C   UNL     1       5.909   3.118  -5.075  0.00  0.00    +0.005 A 
ATOM      3  C   UNL     1       5.334   2.869  -3.842  0.00  0.00    +0.049 A 
ATOM      4  C   UNL     1       5.888   3.416  -2.696  0.00  0.00    +0.162 A 
ATOM      5  C   UNL     1       7.020   4.220  -2.789  0.00  0.00    +0.162 A 
ATOM      6  C   UNL     1       7.595   4.461  -4.027  0.00  0.00    +0.051 A 
ENDROOT
BRANCH   5   7
ATOM      7  O   UNL     1       7.565   4.763  -1.668  0.00  0.00    -0.491 OA
ATOM      8  C   UNL     1       8.726   5.577  -1.840  0.00  0.00    +0.277 C 
ENDBRANCH   5   7
BRANCH   1   9
ATOM      9  C   UNL     1       7.660   4.181  -6.513  0.00  0.00    -0.046 C 
BRANCH   9  10
ATOM     10  N   UNL     1       7.053   5.394  -7.093  0.00  0.00    +0.384 N 
ATOM     11  H   UNL     1       6.042   5.250  -7.199  0.00  0.00    -0.085 HD
ATOM     12  H   UNL     1       7.222   6.189  -6.466  0.00  0.00    -0.085 HD
BRANCH  10  13
ATOM     13  C   UNL     1       7.645   5.681  -8.413  0.00  0.00    -0.046 C 
BRANCH  13  20
ATOM     14  C   UNL     1       8.520   8.287  -7.525  0.00  0.00    +0.044 C 
ATOM     15  C   UNL     1       7.427   8.170  -8.555  0.00  0.00    -0.049 A 
ATOM     16  C   UNL     1       6.842   9.310  -9.076  0.00  0.00    +0.003 A 
ATOM     17  C   UNL     1       5.840   9.202 -10.021  0.00  0.00    +0.000 A 
ATOM     18  C   UNL     1       5.421   7.955 -10.447  0.00  0.00    +0.000 A 
ATOM     19  C   UNL     1       6.009   6.816  -9.930  0.00  0.00    +0.002 A 
ATOM     20  C   UNL     1       7.008   6.923  -8.980  0.00  0.00    -0.061 A 
ENDBRANCH  13  20
ENDBRANCH  10  13
ENDBRANCH   9  10
ENDBRANCH   1   9
BRANCH   4  21
ATOM     21  O   UNL     1       5.324   3.171  -1.483  0.00  0.00    -0.485 OA
BRANCH  21  22
ATOM     22  C   UNL     1       4.160   2.342  -1.464  0.00  0.00    +0.265 C 
BRANCH  22  23
ATOM     23  C   UNL     1       3.672   2.182  -0.023  0.00  0.00    +0.182 C 
BRANCH  23  24
ATOM     24  C   UNL     1       2.377   1.411  -0.014  0.00  0.00    -0.016 A 
ATOM     25  C   UNL     1       2.396   0.028  -0.021  0.00  0.00    +0.006 A 
ATOM     26  C   UNL     1       1.209  -0.679  -0.014  0.00  0.00    +0.004 A 
ATOM     27  C   UNL     1       0.002  -0.004   0.002  0.00  0.00    -0.048 A 
ATOM     28  C   UNL     1      -0.017   1.378   0.010  0.00  0.00    -0.047 A 
ATOM     29  C   UNL     1       1.171   2.085   0.002  0.00  0.00    +0.010 A 
ATOM     30  C   UNL     1      -1.332   2.114   0.020  0.00  0.00    +0.044 C 
ATOM     31  C   UNL     1      -1.293  -0.775   0.010  0.00  0.00    +0.044 C 
ENDBRANCH  23  24
BRANCH  23  32
ATOM     32  O   UNL     1       4.654   1.474   0.737  0.00  0.00    -0.384 OA
ATOM     33  H   UNL     1       4.847   0.588   0.401  0.00  0.00    +0.210 HD
ENDBRANCH  23  32
ENDBRANCH  22  23
ENDBRANCH  21  22
ENDBRANCH   4  21
TORSDOF 10
