REMARK  Name = ZINC08161150
REMARK  8 active torsions:
REMARK  status: ('A' for Active; 'I' for Inactive)
REMARK    1  A    between atoms: C_1  and  N_39
REMARK    2  A    between atoms: C_2  and  C_3
REMARK    3  A    between atoms: C_2  and  N_39
REMARK    4  A    between atoms: C_9  and  C_10
REMARK    5  A    between atoms: C_9  and  N_39
REMARK    6  A    between atoms: N_12  and  C_13
REMARK    7  A    between atoms: C_16  and  S_19
REMARK    8  A    between atoms: S_19  and  N_22
REMARK                            x       y       z     vdW  Elec       q    Type
REMARK                         _______ _______ _______ _____ _____    ______ ____
ROOT
ATOM      1  C   UNL     1       5.942  -1.425  -2.952  0.00  0.00    +0.201 C 
ATOM      2  O   UNL     1       5.247  -1.012  -3.856  0.00  0.00    -0.278 OA
ATOM      3  N   UNL     1       7.011  -2.199  -3.223  0.00  0.00    -0.287 N 
ATOM      4  H   UNL     1       7.611  -2.466  -2.509  0.00  0.00    +0.155 HD
ENDROOT
BRANCH   3   5
ATOM      5  C   UNL     1       7.258  -2.616  -4.536  0.00  0.00    +0.033 A 
ATOM      6  C   UNL     1       6.197  -2.875  -5.394  0.00  0.00    +0.025 A 
ATOM      7  C   UNL     1       6.443  -3.281  -6.691  0.00  0.00    +0.030 A 
ATOM      8  C   UNL     1       7.744  -3.442  -7.131  0.00  0.00    +0.105 A 
ATOM      9  C   UNL     1       8.802  -3.192  -6.277  0.00  0.00    +0.030 A 
ATOM     10  C   UNL     1       8.563  -2.779  -4.981  0.00  0.00    +0.025 A 
BRANCH   8  11
ATOM     11  S   UNL     1       8.054  -3.968  -8.784  0.00  0.00    +0.056 S 
ATOM     12  O   UNL     1       6.909  -3.610  -9.545  0.00  0.00    -0.153 OA
ATOM     13  O   UNL     1       9.360  -3.518  -9.115  0.00  0.00    -0.153 OA
BRANCH  11  14
ATOM     14  N   UNL     1       8.114  -5.623  -8.768  0.00  0.00    -0.204 NA
ATOM     15  H   UNL     1       7.986  -6.105  -7.936  0.00  0.00    +0.144 HD
ATOM     16  H   UNL     1       8.276  -6.110  -9.591  0.00  0.00    +0.144 HD
ENDBRANCH  11  14
ENDBRANCH   8  11
ENDBRANCH   3   5
BRANCH   1  17
ATOM     17  C   UNL     1       5.609  -1.073  -1.524  0.00  0.00    +0.019 C 
BRANCH  17  19
ATOM     18  C   UNL     1       4.667   1.075  -2.126  0.00  0.00    -0.095 C 
ATOM     19  N   UNL     1       4.388  -0.240  -1.511  0.00  0.00    +0.387 N 
ATOM     20  H   UNL     1       3.656  -0.714  -2.053  0.00  0.00    -0.081 HD
BRANCH  19  21
ATOM     21  C   UNL     1       3.916  -0.059  -0.122  0.00  0.00    -0.035 C 
BRANCH  21  22
ATOM     22  C   UNL     1       2.561   0.600  -0.152  0.00  0.00    -0.025 A 
ATOM     23  C   UNL     1       1.335   0.027  -0.217  0.00  0.00    +0.011 A 
ATOM     24  C   UNL     1       0.215   0.838  -0.234  0.00  0.00    +0.028 A 
ATOM     25  C   UNL     1       0.378   2.184  -0.184  0.00  0.00    +0.078 A 
ATOM     26  S   UNL     1       2.155   2.338  -0.111  0.00  0.00    -0.084 S 
ATOM     27 CL   UNL     1      -0.829   3.432  -0.195  0.00  0.00    -0.076 Cl
ENDBRANCH  21  22
ENDBRANCH  19  21
ENDBRANCH  17  19
ENDBRANCH   1  17
TORSDOF 7
