REMARK  Name = ZINC63405385
REMARK  8 active torsions:
REMARK  status: ('A' for Active; 'I' for Inactive)
REMARK    1  A    between atoms: C_1  and  C_2
REMARK    2  A    between atoms: C_2  and  C_3
REMARK    3  A    between atoms: C_5  and  C_18
REMARK    4  A    between atoms: C_13  and  O_16
REMARK    5  A    between atoms: O_16  and  C_17
REMARK    6  A    between atoms: N_20  and  N_21
REMARK    7  A    between atoms: C_22  and  C_24
REMARK    8  A    between atoms: C_24  and  C_25
REMARK                            x       y       z     vdW  Elec       q    Type
REMARK                         _______ _______ _______ _____ _____    ______ ____
ROOT
ATOM      1  C   UNL     1      -0.342  -2.743  -1.497  0.00  0.00    +0.259 C 
ATOM      2  O   UNL     1      -0.202  -3.939  -1.675  0.00  0.00    -0.269 OA
ATOM      3  N   UNL     1      -1.579  -2.213  -1.423  0.00  0.00    -0.231 N 
ATOM      4  H   UNL     1      -1.691  -1.260  -1.282  0.00  0.00    +0.173 HD
ENDROOT
BRANCH   1   6
ATOM      5  C   UNL     1       0.791  -0.412  -1.143  0.00  0.00    +0.132 C 
ATOM      6  C   UNL     1       0.793  -1.909  -1.367  0.00  0.00    +0.053 C 
ATOM      7  H   UNL     1       3.896  -1.314  -1.262  0.00  0.00    +0.170 HD
ATOM      8  C   UNL     1       2.082  -2.296  -1.418  0.00  0.00    +0.098 C 
ATOM      9  N   UNL     1       2.928  -1.246  -1.257  0.00  0.00    -0.269 N 
ATOM     10  N   UNL     1       2.217  -0.049  -1.084  0.00  0.00    -0.228 N 
ATOM     11  C   UNL     1       2.749   1.225  -0.893  0.00  0.00    +0.161 A 
ATOM     12  C   UNL     1       4.132   1.408  -0.866  0.00  0.00    +0.052 A 
ATOM     13  C   UNL     1       4.612   2.692  -0.674  0.00  0.00    +0.072 A 
ATOM     14  C   UNL     1       3.685   3.721  -0.519  0.00  0.00    +0.234 A 
ATOM     15  N   UNL     1       2.391   3.453  -0.559  0.00  0.00    -0.110 NA
ATOM     16  N   UNL     1       1.944   2.264  -0.743  0.00  0.00    -0.129 NA
BRANCH   5  18
ATOM     17  C   UNL     1       0.774  -0.823   1.321  0.00  0.00    +0.006 C 
ATOM     18  C   UNL     1       0.096  -0.069   0.175  0.00  0.00    +0.026 C 
ENDBRANCH   5  18
BRANCH  14  19
ATOM     19  O   UNL     1       4.109   4.997  -0.328  0.00  0.00    -0.479 OA
ATOM     20  C   UNL     1       3.103   6.000  -0.177  0.00  0.00    +0.279 C 
ENDBRANCH  14  19
ENDBRANCH   1   6
BRANCH   3  21
ATOM     21  N   UNL     1      -2.704  -3.038  -1.552  0.00  0.00    -0.234 N 
ATOM     22  C   UNL     1      -3.941  -2.508  -1.478  0.00  0.00    +0.233 C 
ATOM     23  O   UNL     1      -4.081  -1.317  -1.301  0.00  0.00    -0.274 OA
ATOM     24  H   UNL     1      -2.592  -3.991  -1.694  0.00  0.00    +0.173 HD
BRANCH  22  25
ATOM     25  C   UNL     1      -5.151  -3.396  -1.617  0.00  0.00    +0.130 C 
BRANCH  25  26
ATOM     26  C   UNL     1      -6.401  -2.564  -1.498  0.00  0.00    -0.033 C 
ATOM     27  C   UNL     1      -7.127  -2.038  -2.511  0.00  0.00    -0.001 A 
ATOM     28  C   UNL     1      -6.974  -2.080  -3.970  0.00  0.00    +0.010 A 
ATOM     29  C   UNL     1      -7.881  -1.441  -4.744  0.00  0.00    +0.001 A 
ATOM     30  C   UNL     1      -8.960  -0.741  -4.188  0.00  0.00    +0.002 A 
ATOM     31  C   UNL     1      -9.168  -0.657  -2.856  0.00  0.00    +0.026 A 
ATOM     32  C   UNL     1      -8.275  -1.292  -1.949  0.00  0.00    +0.043 A 
ATOM     33  N   UNL     1      -8.261  -1.355  -0.640  0.00  0.00    -0.380 N 
ATOM     34  C   UNL     1      -7.103  -2.154  -0.223  0.00  0.00    +0.145 C 
ATOM     35  H   UNL     1      -8.909  -0.945  -0.046  0.00  0.00    +0.160 HD
ENDBRANCH  25  26
ENDBRANCH  22  25
ENDBRANCH   3  21
TORSDOF 6
