REMARK  Name = ZINC62702472
REMARK  7 active torsions:
REMARK  status: ('A' for Active; 'I' for Inactive)
REMARK    1  A    between atoms: C_1  and  C_2
REMARK    2  A    between atoms: C_2  and  C_4
REMARK    3  A    between atoms: C_2  and  O_7
REMARK    4  A    between atoms: O_7  and  C_8
REMARK    5  A    between atoms: C_11  and  C_15
REMARK    6  A    between atoms: C_15  and  N_16
REMARK    7  A    between atoms: N_16  and  C_17
REMARK                            x       y       z     vdW  Elec       q    Type
REMARK                         _______ _______ _______ _____ _____    ______ ____
ROOT
ATOM      1  C   UNL     1      -0.031  -0.600   2.303  0.00  0.00    +0.136 A 
ATOM      2  C   UNL     1      -1.400  -0.376   2.286  0.00  0.00    +0.047 A 
ATOM      3  C   UNL     1      -2.134  -0.501   3.450  0.00  0.00    +0.005 A 
ATOM      4  C   UNL     1      -1.506  -0.848   4.631  0.00  0.00    -0.063 A 
ATOM      5  C   UNL     1      -0.142  -1.071   4.652  0.00  0.00    +0.020 A 
ATOM      6  C   UNL     1       0.597  -0.954   3.489  0.00  0.00    +0.060 A 
ATOM      7 BR   UNL     1       2.461  -1.267   3.516  0.00  0.00    -0.047 Br
ENDROOT
BRANCH   1   8
ATOM      8  O   UNL     1       0.693  -0.477   1.160  0.00  0.00    -0.479 OA
BRANCH   8  10
ATOM      9  C   UNL     1      -0.294   1.265  -0.192  0.00  0.00    +0.062 C 
ATOM     10  C   UNL     1      -0.034  -0.235  -0.046  0.00  0.00    +0.255 C 
BRANCH  10  11
ATOM     11  C   UNL     1       0.769  -0.723  -1.224  0.00  0.00    +0.251 C 
ATOM     12  O   UNL     1       1.895  -1.145  -1.058  0.00  0.00    -0.272 OA
ATOM     13  N   UNL     1       0.238  -0.691  -2.462  0.00  0.00    -0.326 N 
ATOM     14  H   UNL     1      -0.662  -0.353  -2.595  0.00  0.00    +0.145 HD
ATOM     15  H   UNL     1       0.755  -1.004  -3.220  0.00  0.00    +0.145 HD
ENDBRANCH  10  11
ENDBRANCH   8  10
ENDBRANCH   1   8
BRANCH   4  16
ATOM     16  C   UNL     1      -2.309  -0.983   5.899  0.00  0.00    -0.046 C 
BRANCH  16  17
ATOM     17  N   UNL     1      -2.786  -2.366   6.032  0.00  0.00    +0.384 N 
ATOM     18  H   UNL     1      -3.366  -2.599   5.240  0.00  0.00    -0.085 HD
ATOM     19  H   UNL     1      -1.996  -2.992   6.067  0.00  0.00    -0.085 HD
BRANCH  17  20
ATOM     20  C   UNL     1      -3.569  -2.497   7.268  0.00  0.00    -0.072 C 
ATOM     21  C   UNL     1      -3.029  -3.433   8.351  0.00  0.00    -0.017 C 
ATOM     22  C   UNL     1      -4.255  -3.840   7.530  0.00  0.00    -0.017 C 
ENDBRANCH  17  20
ENDBRANCH  16  17
ENDBRANCH   4  16
TORSDOF 6
