REMARK  Name = ZINC20028226
REMARK  8 active torsions:
REMARK  status: ('A' for Active; 'I' for Inactive)
REMARK    1  A    between atoms: C_1  and  C_2
REMARK    2  A    between atoms: C_2  and  O_3
REMARK    3  A    between atoms: O_3  and  C_4
REMARK    4  A    between atoms: C_9  and  N_10
REMARK    5  A    between atoms: C_13  and  C_18
REMARK    6  A    between atoms: C_18  and  N_19
REMARK    7  A    between atoms: N_22  and  C_25
REMARK    8  A    between atoms: C_26  and  C_27
REMARK                            x       y       z     vdW  Elec       q    Type
REMARK                         _______ _______ _______ _____ _____    ______ ____
ROOT
ATOM      1  N   UNL     1       2.281   1.178  -0.055  0.00  0.00    -0.281 N 
ATOM      2  C   UNL     1       3.479   1.865  -0.080  0.00  0.00    +0.224 A 
ATOM      3  N   UNL     1       4.626   1.200  -0.199  0.00  0.00    -0.198 NA
ATOM      4  C   UNL     1       5.773   1.857  -0.223  0.00  0.00    +0.150 A 
ATOM      5  N   UNL     1       5.785   3.175  -0.128  0.00  0.00    -0.198 NA
ATOM      6  C   UNL     1       4.642   3.847  -0.009  0.00  0.00    +0.217 A 
ATOM      7  N   UNL     1       3.487   3.191   0.010  0.00  0.00    -0.181 NA
ATOM      8  N   UNL     1       4.656   5.223   0.089  0.00  0.00    -0.327 N 
ATOM      9  H   UNL     1       2.267   0.092  -0.230  0.00  0.00    +0.155 HD
ATOM     10  H   UNL     1       3.711   5.777   0.188  0.00  0.00    +0.145 HD
ATOM     11  H   UNL     1       5.613   5.766   0.069  0.00  0.00    +0.145 HD
ENDROOT
BRANCH   1  17
ATOM     12  C   UNL     1      -0.113   1.390  -0.338  0.00  0.00    +0.142 A 
ATOM     13  C   UNL     1      -1.292   2.076  -0.095  0.00  0.00    +0.047 A 
ATOM     14  C   UNL     1      -1.280   3.221   0.679  0.00  0.00    +0.004 A 
ATOM     15  C   UNL     1      -0.091   3.692   1.205  0.00  0.00    +0.002 A 
ATOM     16  C   UNL     1       1.091   3.017   0.963  0.00  0.00    +0.027 A 
ATOM     17  C   UNL     1       1.085   1.864   0.192  0.00  0.00    +0.076 A 
BRANCH  12  18
ATOM     18  O   UNL     1      -0.125   0.261  -1.095  0.00  0.00    -0.490 OA
BRANCH  18  20
ATOM     19  C   UNL     1      -1.205  -1.443  -2.426  0.00  0.00    +0.048 C 
ATOM     20  C   UNL     1      -1.390  -0.166  -1.605  0.00  0.00    +0.226 C 
ENDBRANCH  18  20
ENDBRANCH  12  18
ENDBRANCH   1  17
BRANCH   4  21
ATOM     21  C   UNL     1       7.069   1.101  -0.357  0.00  0.00    +0.161 C 
BRANCH  21  22
ATOM     22  N   UNL     1       7.405   0.954  -1.780  0.00  0.00    -0.292 NA
ATOM     23  C   UNL     1       6.423   0.105  -2.468  0.00  0.00    +0.102 C 
ATOM     24  C   UNL     1       6.703   0.124  -3.974  0.00  0.00    +0.100 C 
ATOM     25  N   UNL     1       8.109  -0.248  -4.193  0.00  0.00    -0.397 NA
ATOM     26  C   UNL     1       9.145   0.469  -3.433  0.00  0.00    +0.100 C 
ATOM     27  C   UNL     1       8.769   0.436  -1.948  0.00  0.00    +0.102 C 
ATOM     28  H   UNL     1       8.378  -1.044  -4.903  0.00  0.00    +0.126 HD
BRANCH  25  29
ATOM     29  C   UNL     1       8.449  -1.245  -5.090  0.00  0.00    +0.053 C 
ATOM     30  C   UNL     1       9.725  -1.620  -5.221  0.00  0.00    +0.021 C 
BRANCH  30  31
ATOM     31  C   UNL     1      10.066  -2.805  -6.030  0.00  0.00    -0.024 A 
ATOM     32  C   UNL     1       9.058  -3.542  -6.655  0.00  0.00    +0.008 A 
ATOM     33  C   UNL     1       9.385  -4.646  -7.415  0.00  0.00    +0.001 A 
ATOM     34  C   UNL     1      10.707  -5.031  -7.549  0.00  0.00    +0.000 A 
ATOM     35  C   UNL     1      11.711  -4.309  -6.927  0.00  0.00    +0.001 A 
ATOM     36  C   UNL     1      11.399  -3.200  -6.169  0.00  0.00    +0.008 A 
ENDBRANCH  30  31
ENDBRANCH  25  29
ENDBRANCH  21  22
ENDBRANCH   4  21
TORSDOF 7
