REMARK  Name = ZINC57433274
REMARK  4 active torsions:
REMARK  status: ('A' for Active; 'I' for Inactive)
REMARK    1  A    between atoms: C_5  and  C_6
REMARK    2  A    between atoms: C_8  and  C_11
REMARK    3  A    between atoms: C_11  and  C_12
REMARK    4  A    between atoms: N_14  and  C_15
REMARK                            x       y       z     vdW  Elec       q    Type
REMARK                         _______ _______ _______ _____ _____    ______ ____
ROOT
ATOM      1  C   UNL     1      -1.127  -0.946   0.008  0.00  0.00    +0.115 A 
ATOM      2  N   UNL     1      -1.117  -2.275   0.006  0.00  0.00    -0.243 NA
ATOM      3  C   UNL     1      -2.236  -2.963   0.013  0.00  0.00    +0.058 A 
ATOM      4  C   UNL     1      -3.430  -2.315   0.021  0.00  0.00    +0.071 A 
ATOM      5  S   UNL     1      -2.884  -0.612   0.028  0.00  0.00    -0.075 S 
ENDROOT
BRANCH   1  10
ATOM      6  C   UNL     1      -0.017   1.368   0.010  0.00  0.00    +0.019 A 
ATOM      7  C   UNL     1       1.181   2.045   0.002  0.00  0.00    +0.028 A 
ATOM      8  C   UNL     1       2.343   1.337  -0.013  0.00  0.00    +0.079 A 
ATOM      9  S   UNL     1       1.754  -0.348  -0.017  0.00  0.00    -0.075 S 
ATOM     10  C   UNL     1       0.002  -0.004   0.002  0.00  0.00    +0.046 A 
ATOM     11 CL   UNL     1       3.977   1.922  -0.026  0.00  0.00    -0.076 Cl
ENDBRANCH   1  10
BRANCH   3  12
ATOM     12  C   UNL     1      -2.195  -4.469   0.010  0.00  0.00    +0.156 C 
BRANCH  12  13
ATOM     13  C   UNL     1      -1.374  -4.947  -1.160  0.00  0.00    +0.255 C 
ATOM     14  O   UNL     1      -1.198  -6.262  -1.364  0.00  0.00    -0.270 OA
ATOM     15  N   UNL     1      -0.832  -4.080  -1.976  0.00  0.00    -0.181 NA
BRANCH  15  16
ATOM     16  C   UNL     1      -0.099  -4.507  -3.021  0.00  0.00    +0.210 C 
ATOM     17  N   UNL     1       0.502  -3.673  -3.922  0.00  0.00    -0.307 N 
ATOM     18  C   UNL     1       1.192  -4.551  -4.886  0.00  0.00    +0.202 C 
ATOM     19  C   UNL     1       0.877  -5.943  -4.376  0.00  0.00    +0.256 C 
ATOM     20  O   UNL     1       1.241  -6.998  -4.860  0.00  0.00    -0.272 OA
ATOM     21  N   UNL     1       0.128  -5.779  -3.291  0.00  0.00    -0.146 NA
ATOM     22  H   UNL     1       0.480  -2.704  -3.927  0.00  0.00    +0.149 HD
ENDBRANCH  15  16
ENDBRANCH  12  13
ENDBRANCH   3  12
TORSDOF 4
