REMARK  Name = ZINC06550705
REMARK  8 active torsions:
REMARK  status: ('A' for Active; 'I' for Inactive)
REMARK    1  A    between atoms: C_1  and  C_2
REMARK    2  A    between atoms: C_5  and  N_8
REMARK    3  A    between atoms: C_9  and  C_11
REMARK    4  A    between atoms: C_11  and  C_12
REMARK    5  A    between atoms: N_13  and  O_14
REMARK    6  A    between atoms: O_14  and  C_15
REMARK    7  A    between atoms: N_17  and  C_18
REMARK    8  A    between atoms: C_21  and  C_25
REMARK                            x       y       z     vdW  Elec       q    Type
REMARK                         _______ _______ _______ _____ _____    ______ ____
ROOT
ATOM      1  C   UNL     1       0.799  -6.793   2.526  0.00  0.00    +0.141 C 
ATOM      2  N   UNL     1       0.759  -5.975   3.526  0.00  0.00    -0.062 NA
ATOM      3  N   UNL     1       0.757  -8.150   2.745  0.00  0.00    -0.344 N 
ATOM      4  H   UNL     1       0.788  -8.764   1.995  0.00  0.00    +0.144 HD
ATOM      5  H   UNL     1       0.698  -8.493   3.651  0.00  0.00    +0.144 HD
ENDROOT
BRANCH   1   6
ATOM      6  C   UNL     1       0.892  -6.260   1.119  0.00  0.00    +0.170 C 
BRANCH   6   8
ATOM      7  N   UNL     1       1.003  -4.054   0.004  0.00  0.00    -0.285 N 
ATOM      8  C   UNL     1       0.922  -4.753   1.154  0.00  0.00    +0.224 C 
ATOM      9  O   UNL     1       0.873  -4.170   2.216  0.00  0.00    -0.275 OA
ATOM     10  H   UNL     1       0.970  -4.516  -0.848  0.00  0.00    +0.155 HD
BRANCH   7  15
ATOM     11  C   UNL     1       1.542   1.591   0.149  0.00  0.00    +0.044 C 
ATOM     12  C   UNL     1       1.399   0.092   0.111  0.00  0.00    -0.050 A 
ATOM     13  C   UNL     1       1.975  -0.682   1.101  0.00  0.00    +0.005 A 
ATOM     14  C   UNL     1       1.846  -2.057   1.069  0.00  0.00    +0.023 A 
ATOM     15  C   UNL     1       1.136  -2.662   0.040  0.00  0.00    +0.033 A 
ATOM     16  C   UNL     1       0.557  -1.882  -0.953  0.00  0.00    +0.023 A 
ATOM     17  C   UNL     1       0.686  -0.507  -0.912  0.00  0.00    +0.005 A 
ENDBRANCH   7  15
ENDBRANCH   6   8
ENDBRANCH   1   6
BRANCH   2  18
ATOM     18  O   UNL     1       0.672  -6.476   4.847  0.00  0.00    -0.297 OA
BRANCH  18  19
ATOM     19  C   UNL     1       0.637  -5.520   5.794  0.00  0.00    +0.430 C 
ATOM     20  O   UNL     1       0.681  -4.348   5.475  0.00  0.00    -0.224 OA
ATOM     21  N   UNL     1       0.555  -5.862   7.095  0.00  0.00    -0.249 N 
ATOM     22  H   UNL     1       0.597  -6.796   7.354  0.00  0.00    +0.158 HD
BRANCH  21  23
ATOM     23  C   UNL     1       0.407  -4.871   8.071  0.00  0.00    +0.038 A 
ATOM     24  C   UNL     1      -0.323  -3.723   7.792  0.00  0.00    +0.024 A 
ATOM     25  C   UNL     1      -0.467  -2.746   8.758  0.00  0.00    +0.006 A 
ATOM     26  C   UNL     1       0.115  -2.909  10.001  0.00  0.00    -0.032 A 
ATOM     27  C   UNL     1       0.843  -4.051  10.283  0.00  0.00    +0.046 A 
ATOM     28  C   UNL     1       0.986  -5.035   9.322  0.00  0.00    +0.043 A 
ATOM     29 CL   UNL     1       1.572  -4.252  11.845  0.00  0.00    -0.083 Cl
ATOM     30  C   UNL     1      -0.044  -1.841  11.052  0.00  0.00    +0.045 C 
ENDBRANCH  21  23
ENDBRANCH  18  19
ENDBRANCH   2  18
TORSDOF 6
