REMARK  Name = ZINC55361121
REMARK  8 active torsions:
REMARK  status: ('A' for Active; 'I' for Inactive)
REMARK    1  A    between atoms: C_1  and  C_2
REMARK    2  A    between atoms: C_2  and  N_3
REMARK    3  A    between atoms: C_9  and  N_12
REMARK    4  A    between atoms: N_12  and  C_13
REMARK    5  A    between atoms: C_13  and  C_14
REMARK    6  A    between atoms: N_16  and  C_23
REMARK    7  A    between atoms: C_23  and  C_24
REMARK    8  A    between atoms: C_24  and  C_25
REMARK                            x       y       z     vdW  Elec       q    Type
REMARK                         _______ _______ _______ _____ _____    ______ ____
ROOT
ATOM      1  C   UNL     1       1.155  -4.645  -7.033  0.00  0.00    -0.044 C 
ENDROOT
BRANCH   1   2
ATOM      2  C   UNL     1       0.547  -4.900  -8.388  0.00  0.00    -0.039 A 
ATOM      3  C   UNL     1      -0.610  -5.534  -8.637  0.00  0.00    +0.088 A 
ATOM      4  N   UNL     1      -0.838  -5.576  -9.985  0.00  0.00    -0.346 N 
ATOM      5  C   UNL     1       0.192  -4.954 -10.654  0.00  0.00    +0.049 A 
ATOM      6  C   UNL     1       1.102  -4.497  -9.682  0.00  0.00    +0.001 A 
ATOM      7  C   UNL     1       2.255  -3.816 -10.073  0.00  0.00    +0.010 A 
ATOM      8  C   UNL     1       2.494  -3.591 -11.400  0.00  0.00    +0.001 A 
ATOM      9  C   UNL     1       1.598  -4.036 -12.362  0.00  0.00    +0.002 A 
ATOM     10  C   UNL     1       0.458  -4.719 -11.999  0.00  0.00    +0.026 A 
BRANCH   4  11
ATOM     11  C   UNL     1      -2.005  -6.191 -10.623  0.00  0.00    +0.131 C 
BRANCH  11  12
ATOM     12  C   UNL     1      -1.664  -7.623 -11.038  0.00  0.00    +0.117 C 
BRANCH  12  13
ATOM     13  C   UNL     1      -2.864  -8.256 -11.694  0.00  0.00    +0.212 C 
ATOM     14  O   UNL     1      -3.891  -7.623 -11.817  0.00  0.00    -0.276 OA
ATOM     15  N   UNL     1      -2.796  -9.525 -12.143  0.00  0.00    -0.329 N 
ATOM     16  H   UNL     1      -1.974 -10.031 -12.044  0.00  0.00    +0.145 HD
ATOM     17  H   UNL     1      -3.568  -9.932 -12.565  0.00  0.00    +0.145 HD
ENDBRANCH  12  13
ENDBRANCH  11  12
ENDBRANCH   4  11
ENDBRANCH   1   2
BRANCH   1  18
ATOM     18  N   UNL     1       0.865  -3.266  -6.617  0.00  0.00    +0.384 N 
ATOM     19  H   UNL     1      -0.134  -3.133  -6.568  0.00  0.00    -0.085 HD
ATOM     20  H   UNL     1       1.257  -2.623  -7.289  0.00  0.00    -0.085 HD
BRANCH  18  27
ATOM     21  N   UNL     1       0.687  -0.476  -1.204  0.00  0.00    -0.300 N 
ATOM     22  C   UNL     1       0.827  -1.799  -1.425  0.00  0.00    +0.302 C 
ATOM     23  O   UNL     1       0.466  -2.598  -0.583  0.00  0.00    -0.253 OA
ATOM     24  N   UNL     1       1.367  -2.235  -2.580  0.00  0.00    -0.286 N 
ATOM     25  C   UNL     1       1.914  -1.284  -3.557  0.00  0.00    +0.108 C 
ATOM     26  C   UNL     1       1.264  -1.547  -4.919  0.00  0.00    +0.003 C 
ATOM     27  C   UNL     1       1.458  -3.018  -5.297  0.00  0.00    -0.068 C 
ATOM     28  C   UNL     1       0.776  -3.908  -4.255  0.00  0.00    +0.003 C 
ATOM     29  C   UNL     1       1.425  -3.671  -2.884  0.00  0.00    +0.108 C 
ATOM     30  H   UNL     1       1.041   0.162  -1.842  0.00  0.00    +0.150 HD
BRANCH  21  32
ATOM     31  C   UNL     1      -0.022   1.526   0.009  0.00  0.00    +0.024 C 
ATOM     32  C   UNL     1      -0.000  -0.004   0.001  0.00  0.00    +0.102 C 
ENDBRANCH  21  32
ENDBRANCH  18  27
ENDBRANCH   1  18
TORSDOF 7
