REMARK  Name = ZINC67184053
REMARK  6 active torsions:
REMARK  status: ('A' for Active; 'I' for Inactive)
REMARK    1  A    between atoms: C_8  and  C_10
REMARK    2  A    between atoms: C_11  and  C_16
REMARK    3  A    between atoms: C_16  and  N_17
REMARK    4  A    between atoms: N_17  and  C_18
REMARK    5  A    between atoms: C_18  and  C_19
REMARK    6  A    between atoms: N_21  and  C_22
REMARK                            x       y       z     vdW  Elec       q    Type
REMARK                         _______ _______ _______ _____ _____    ______ ____
ROOT
ATOM      1  C   UNL     1       5.747  -2.445  -1.535  0.00  0.00    -0.042 C 
ENDROOT
BRANCH   1   3
ATOM      2  C   UNL     1       3.798  -3.337  -0.062  0.00  0.00    +0.129 A 
ATOM      3  C   UNL     1       5.038  -3.492  -0.716  0.00  0.00    -0.016 A 
ATOM      4  C   UNL     1       5.476  -4.747  -0.478  0.00  0.00    +0.107 A 
ATOM      5  N   UNL     1       4.560  -5.370   0.294  0.00  0.00    -0.284 N 
ATOM      6  H   UNL     1       4.616  -6.283   0.620  0.00  0.00    +0.188 HD
ATOM      7  N   UNL     1       3.518  -4.470   0.550  0.00  0.00    -0.171 NA
BRANCH   2  15
ATOM      8  C   UNL     1      -0.022   1.354  -0.042  0.00  0.00    +0.001 A 
ATOM      9  C   UNL     1       1.163   2.074  -0.045  0.00  0.00    +0.004 A 
ATOM     10  C   UNL     1       2.381   1.427  -0.051  0.00  0.00    +0.047 A 
ATOM     11  C   UNL     1       2.426   0.038  -0.053  0.00  0.00    +0.136 A 
ATOM     12  C   UNL     1       1.221  -0.687  -0.049  0.00  0.00    +0.021 A 
ATOM     13  C   UNL     1      -0.002  -0.013  -0.044  0.00  0.00    +0.011 A 
ATOM     14  C   UNL     1       1.609  -2.099  -0.052  0.00  0.00    +0.060 A 
ATOM     15  C   UNL     1       2.963  -2.116  -0.057  0.00  0.00    +0.156 A 
ATOM     16  O   UNL     1       3.437  -0.854  -0.058  0.00  0.00    -0.453 OA
ENDBRANCH   2  15
ENDBRANCH   1   3
BRANCH   1  17
ATOM     17  N   UNL     1       6.444  -1.512  -0.639  0.00  0.00    +0.387 N 
ATOM     18  H   UNL     1       5.774  -1.066  -0.031  0.00  0.00    -0.085 HD
ATOM     19  H   UNL     1       7.117  -2.018  -0.085  0.00  0.00    -0.085 HD
BRANCH  17  20
ATOM     20  C   UNL     1       7.135  -0.491  -1.438  0.00  0.00    +0.016 C 
BRANCH  20  21
ATOM     21  C   UNL     1       7.850   0.466  -0.519  0.00  0.00    +0.200 C 
ATOM     22  O   UNL     1       7.789   0.313   0.682  0.00  0.00    -0.278 OA
ATOM     23  N   UNL     1       8.556   1.493  -1.033  0.00  0.00    -0.287 N 
ATOM     24  H   UNL     1       8.660   1.577  -1.994  0.00  0.00    +0.155 HD
BRANCH  23  25
ATOM     25  C   UNL     1       9.139   2.437  -0.180  0.00  0.00    +0.036 A 
ATOM     26  C   UNL     1       9.207   3.771  -0.562  0.00  0.00    +0.026 A 
ATOM     27  C   UNL     1       9.783   4.702   0.281  0.00  0.00    +0.043 A 
ATOM     28  C   UNL     1      10.293   4.308   1.506  0.00  0.00    +0.159 A 
ATOM     29  C   UNL     1      10.227   2.977   1.890  0.00  0.00    +0.160 A 
ATOM     30  C   UNL     1       9.646   2.043   1.051  0.00  0.00    +0.064 A 
ATOM     31  F   UNL     1      10.725   2.594   3.086  0.00  0.00    -0.202 F 
ATOM     32  F   UNL     1      10.856   5.220   2.327  0.00  0.00    -0.202 F 
ENDBRANCH  23  25
ENDBRANCH  20  21
ENDBRANCH  17  20
ENDBRANCH   1  17
TORSDOF 6
