REMARK  Name = ZINC08825395
REMARK  7 active torsions:
REMARK  status: ('A' for Active; 'I' for Inactive)
REMARK    1  A    between atoms: C_3  and  C_6
REMARK    2  A    between atoms: C_6  and  C_7
REMARK    3  A    between atoms: C_10  and  S_18
REMARK    4  A    between atoms: N_11  and  C_12
REMARK    5  A    between atoms: S_18  and  C_19
REMARK    6  A    between atoms: C_19  and  C_20
REMARK    7  A    between atoms: N_22  and  C_23
REMARK                            x       y       z     vdW  Elec       q    Type
REMARK                         _______ _______ _______ _____ _____    ______ ____
ROOT
ATOM      1  C   UNL     1      -1.590   3.018  -1.403  0.00  0.00    +0.139 A 
ATOM      2  N   UNL     1      -2.443   2.354  -2.131  0.00  0.00    -0.133 NA
ATOM      3  N   UNL     1      -2.554   2.902  -3.288  0.00  0.00    -0.122 NA
ATOM      4  C   UNL     1      -1.771   3.953  -3.362  0.00  0.00    +0.192 A 
ATOM      5  N   UNL     1      -1.135   4.063  -2.159  0.00  0.00    -0.303 N 
ENDROOT
BRANCH   5   6
ATOM      6  C   UNL     1      -0.165   5.086  -1.761  0.00  0.00    +0.091 C 
ATOM      7  C   UNL     1      -0.818   6.467  -1.842  0.00  0.00    +0.025 C 
ATOM      8  C   UNL     1       0.195   7.535  -1.426  0.00  0.00    +0.002 C 
ATOM      9  C   UNL     1       1.402   7.486  -2.366  0.00  0.00    +0.000 C 
ATOM     10  C   UNL     1       2.055   6.105  -2.285  0.00  0.00    +0.002 C 
ATOM     11  C   UNL     1       1.042   5.037  -2.700  0.00  0.00    +0.025 C 
ENDBRANCH   5   6
BRANCH   1  12
ATOM     12  C   UNL     1      -1.184   2.696   0.013  0.00  0.00    +0.118 C 
BRANCH  12  15
ATOM     13  C   UNL     1       2.251   1.051  -0.034  0.00  0.00    +0.008 A 
ATOM     14  C   UNL     1       1.325   2.077  -0.015  0.00  0.00    +0.011 A 
ATOM     15  C   UNL     1       0.005   1.770  -0.003  0.00  0.00    -0.003 A 
ATOM     16  S   UNL     1       0.040  -0.014  -0.020  0.00  0.00    -0.101 S 
ATOM     17  C   UNL     1       1.812  -0.231  -0.041  0.00  0.00    +0.045 A 
ENDBRANCH  12  15
ENDBRANCH   1  12
BRANCH   4  18
ATOM     18  S   UNL     1      -1.582   5.024  -4.748  0.00  0.00    -0.077 S 
BRANCH  18  19
ATOM     19  C   UNL     1      -2.728   4.240  -5.909  0.00  0.00    +0.173 C 
BRANCH  19  20
ATOM     20  C   UNL     1      -2.733   5.008  -7.206  0.00  0.00    +0.227 C 
ATOM     21  O   UNL     1      -2.030   5.988  -7.333  0.00  0.00    -0.275 OA
ATOM     22  N   UNL     1      -3.518   4.605  -8.225  0.00  0.00    -0.285 N 
ATOM     23  H   UNL     1      -4.029   3.784  -8.148  0.00  0.00    +0.155 HD
BRANCH  22  24
ATOM     24  C   UNL     1      -3.596   5.371  -9.393  0.00  0.00    +0.034 A 
ATOM     25  C   UNL     1      -2.476   6.049  -9.858  0.00  0.00    +0.023 A 
ATOM     26  C   UNL     1      -2.559   6.802 -11.011  0.00  0.00    +0.006 A 
ATOM     27  C   UNL     1      -3.754   6.886 -11.707  0.00  0.00    -0.044 A 
ATOM     28  C   UNL     1      -4.870   6.213 -11.247  0.00  0.00    -0.042 A 
ATOM     29  C   UNL     1      -4.790   5.451 -10.094  0.00  0.00    +0.027 A 
ATOM     30  C   UNL     1      -6.039   6.464 -12.176  0.00  0.00    +0.036 C 
ATOM     31  C   UNL     1      -5.410   7.000 -13.480  0.00  0.00    +0.009 C 
ATOM     32  C   UNL     1      -4.096   7.636 -12.977  0.00  0.00    +0.036 C 
ENDBRANCH  22  24
ENDBRANCH  19  20
ENDBRANCH  18  19
ENDBRANCH   4  18
TORSDOF 7
