REMARK  Name = ZINC35047276
REMARK  5 active torsions:
REMARK  status: ('A' for Active; 'I' for Inactive)
REMARK    1  A    between atoms: C_3  and  O_22
REMARK    2  A    between atoms: C_4  and  O_21
REMARK    3  A    between atoms: C_6  and  C_7
REMARK    4  A    between atoms: C_7  and  N_8
REMARK    5  A    between atoms: N_8  and  C_9
REMARK                            x       y       z     vdW  Elec       q    Type
REMARK                         _______ _______ _______ _____ _____    ______ ____
ROOT
ATOM      1  N   UNL     1      -1.728  -1.016  -1.372  0.00  0.00    +0.386 N 
ATOM      2  H   UNL     1      -1.576  -0.732  -0.416  0.00  0.00    -0.085 HD
ATOM      3  H   UNL     1      -1.744  -0.201  -1.967  0.00  0.00    -0.085 HD
ENDROOT
BRANCH   1   4
ATOM      4  C   UNL     1      -3.012  -1.723  -1.475  0.00  0.00    -0.039 C 
ATOM      5  C   UNL     1      -3.230  -2.122  -2.923  0.00  0.00    -0.000 C 
ATOM      6  C   UNL     1      -4.546  -2.907  -3.035  0.00  0.00    +0.073 C 
ATOM      7  S   UNL     1      -5.899  -1.715  -2.811  0.00  0.00    -0.125 S 
ATOM      8  C   UNL     1      -5.379  -0.766  -1.417  0.00  0.00    +0.010 A 
ATOM      9  C   UNL     1      -4.091  -0.838  -0.924  0.00  0.00    -0.047 A 
ATOM     10  C   UNL     1      -3.749  -0.046   0.169  0.00  0.00    +0.023 A 
ATOM     11  C   UNL     1      -4.673   0.793   0.756  0.00  0.00    +0.041 A 
ATOM     12  C   UNL     1      -5.964   0.856   0.261  0.00  0.00    +0.021 A 
ATOM     13  C   UNL     1      -6.313   0.078  -0.817  0.00  0.00    +0.016 A 
ATOM     14 CL   UNL     1      -4.217   1.770   2.116  0.00  0.00    -0.084 Cl
ENDBRANCH   1   4
BRANCH   1  15
ATOM     15  C   UNL     1      -0.642  -1.910  -1.796  0.00  0.00    -0.046 C 
BRANCH  15  21
ATOM     16  C   UNL     1       1.338  -1.388  -0.358  0.00  0.00    +0.005 A 
ATOM     17  C   UNL     1       2.556  -0.769  -0.142  0.00  0.00    +0.049 A 
ATOM     18  C   UNL     1       3.123   0.010  -1.138  0.00  0.00    +0.158 A 
ATOM     19  C   UNL     1       2.464   0.167  -2.354  0.00  0.00    +0.158 A 
ATOM     20  C   UNL     1       1.245  -0.457  -2.564  0.00  0.00    +0.051 A 
ATOM     21  C   UNL     1       0.685  -1.233  -1.566  0.00  0.00    -0.061 A 
BRANCH  19  22
ATOM     22  O   UNL     1       3.017   0.931  -3.334  0.00  0.00    -0.503 OA
ATOM     23  H   UNL     1       3.595   0.441  -3.936  0.00  0.00    +0.292 HD
ENDBRANCH  19  22
BRANCH  18  24
ATOM     24  O   UNL     1       4.319   0.620  -0.927  0.00  0.00    -0.503 OA
ATOM     25  H   UNL     1       5.084   0.086  -1.183  0.00  0.00    +0.292 HD
ENDBRANCH  18  24
ENDBRANCH  15  21
ENDBRANCH   1  15
TORSDOF 5
