REMARK  Name = ZINC58118906
REMARK  6 active torsions:
REMARK  status: ('A' for Active; 'I' for Inactive)
REMARK    1  A    between atoms: C_1  and  C_2
REMARK    2  A    between atoms: C_7  and  C_8
REMARK    3  A    between atoms: C_8  and  C_10
REMARK    4  A    between atoms: C_8  and  N_25
REMARK    5  A    between atoms: C_16  and  N_21
REMARK    6  A    between atoms: C_22  and  C_24
REMARK                            x       y       z     vdW  Elec       q    Type
REMARK                         _______ _______ _______ _____ _____    ______ ____
ROOT
ATOM      1  C   UNL     1       1.421   0.527   2.805  0.00  0.00    -0.057 A 
ATOM      2  C   UNL     1       2.355  -0.345   3.334  0.00  0.00    +0.006 A 
ATOM      3  C   UNL     1       3.633   0.097   3.607  0.00  0.00    +0.046 A 
ATOM      4  C   UNL     1       3.986   1.419   3.354  0.00  0.00    +0.125 A 
ATOM      5  C   UNL     1       3.049   2.290   2.828  0.00  0.00    +0.015 A 
ATOM      6  C   UNL     1       1.769   1.838   2.547  0.00  0.00    +0.011 A 
ATOM      7  C   UNL     1       3.386   3.732   2.548  0.00  0.00    +0.110 C 
ATOM      8  C   UNL     1       4.906   3.906   2.499  0.00  0.00    +0.068 C 
ATOM      9  C   UNL     1       5.510   3.217   3.730  0.00  0.00    +0.231 C 
ATOM     10  O   UNL     1       5.255   1.815   3.631  0.00  0.00    -0.492 OA
ENDROOT
BRANCH   7  11
ATOM     11  N   UNL     1       2.810   4.127   1.260  0.00  0.00    -0.308 N 
ATOM     12  C   UNL     1       2.529   5.423   1.016  0.00  0.00    +0.210 C 
ATOM     13  O   UNL     1       2.754   6.261   1.863  0.00  0.00    -0.276 OA
ATOM     14  C   UNL     1       1.936   5.829  -0.308  0.00  0.00    +0.109 C 
ATOM     15  H   UNL     1       2.630   3.456   0.583  0.00  0.00    +0.149 HD
ENDBRANCH   7  11
BRANCH   1  16
ATOM     16  C   UNL     1       0.025   0.045   2.504  0.00  0.00    -0.013 C 
BRANCH  16  23
ATOM     17  C   UNL     1      -0.018   1.503   0.010  0.00  0.00    +0.044 C 
ATOM     18  C   UNL     1       0.002  -0.004   0.002  0.00  0.00    -0.049 A 
ATOM     19  C   UNL     1       0.006  -0.689  -1.199  0.00  0.00    +0.003 A 
ATOM     20  C   UNL     1       0.025  -2.071  -1.207  0.00  0.00    +0.000 A 
ATOM     21  C   UNL     1       0.040  -2.768  -0.013  0.00  0.00    +0.000 A 
ATOM     22  C   UNL     1       0.037  -2.084   1.188  0.00  0.00    +0.002 A 
ATOM     23  C   UNL     1       0.023  -0.702   1.195  0.00  0.00    -0.055 A 
ENDBRANCH  16  23
BRANCH  16  24
ATOM     24  N   UNL     1      -0.426  -0.849   3.579  0.00  0.00    +0.385 N 
ATOM     25  H   UNL     1      -0.425  -0.350   4.455  0.00  0.00    -0.089 HD
ATOM     26  H   UNL     1      -1.361  -1.172   3.377  0.00  0.00    -0.089 HD
ATOM     27  H   UNL     1       0.197  -1.641   3.642  0.00  0.00    -0.089 HD
ENDBRANCH  16  24
ENDBRANCH   1  16
TORSDOF 4
