REMARK  Name = ZINC15482849
REMARK  12 active torsions:
REMARK  status: ('A' for Active; 'I' for Inactive)
REMARK    1  A    between atoms: C_1  and  C_2
REMARK    2  A    between atoms: C_4  and  C_29
REMARK    3  A    between atoms: C_5  and  N_9
REMARK    4  A    between atoms: C_6  and  C_8
REMARK    5  A    between atoms: C_10  and  C_12
REMARK    6  A    between atoms: C_12  and  N_57
REMARK    7  A    between atoms: C_13  and  N_57
REMARK    8  A    between atoms: C_14  and  C_15
REMARK    9  A    between atoms: C_14  and  N_57
REMARK   10  A    between atoms: N_17  and  C_18
REMARK   11  A    between atoms: C_18  and  C_19
REMARK   12  A    between atoms: N_21  and  C_22
REMARK                            x       y       z     vdW  Elec       q    Type
REMARK                         _______ _______ _______ _____ _____    ______ ____
ROOT
ATOM      1  C   UNL     1       5.398  -1.234   0.793  0.00  0.00    +0.019 C 
ENDROOT
BRANCH   1   2
ATOM      2  C   UNL     1       4.314  -1.233   1.839  0.00  0.00    +0.197 C 
ATOM      3  O   UNL     1       4.386  -0.480   2.787  0.00  0.00    -0.278 OA
ATOM      4  N   UNL     1       3.264  -2.070   1.722  0.00  0.00    -0.308 N 
ATOM      5  H   UNL     1       3.206  -2.673   0.964  0.00  0.00    +0.149 HD
BRANCH   4   6
ATOM      6  C   UNL     1       2.209  -2.070   2.739  0.00  0.00    +0.200 C 
BRANCH   6   7
ATOM      7  C   UNL     1       1.160  -3.089   2.375  0.00  0.00    +0.234 C 
ATOM      8  O   UNL     1       1.282  -3.750   1.366  0.00  0.00    -0.274 OA
ATOM      9  N   UNL     1       0.085  -3.261   3.169  0.00  0.00    -0.283 N 
ATOM     10  H   UNL     1       0.021  -2.783   4.011  0.00  0.00    +0.155 HD
BRANCH   9  11
ATOM     11  C   UNL     1      -0.941  -4.130   2.779  0.00  0.00    +0.047 A 
ATOM     12  C   UNL     1      -0.643  -5.277   2.054  0.00  0.00    +0.024 A 
ATOM     13  C   UNL     1      -1.657  -6.135   1.675  0.00  0.00    +0.002 A 
ATOM     14  C   UNL     1      -2.969  -5.848   2.007  0.00  0.00    +0.001 A 
ATOM     15  C   UNL     1      -3.269  -4.705   2.724  0.00  0.00    +0.017 A 
ATOM     16  C   UNL     1      -2.259  -3.844   3.111  0.00  0.00    +0.039 A 
ATOM     17 BR   UNL     1      -2.671  -2.280   4.090  0.00  0.00    -0.048 Br
ENDBRANCH   9  11
ENDBRANCH   6   7
ENDBRANCH   4   6
ENDBRANCH   1   2
BRANCH   1  19
ATOM     18  C   UNL     1       5.875   1.122   1.085  0.00  0.00    -0.095 C 
ATOM     19  N   UNL     1       6.429  -0.245   1.174  0.00  0.00    +0.389 N 
ATOM     20  H   UNL     1       6.721  -0.424   2.142  0.00  0.00    -0.081 HD
BRANCH  19  21
ATOM     21  C   UNL     1       7.604  -0.373   0.287  0.00  0.00    +0.019 C 
BRANCH  21  23
ATOM     22  N   UNL     1       9.909   0.520   0.200  0.00  0.00    -0.287 N 
ATOM     23  C   UNL     1       8.719   0.484   0.830  0.00  0.00    +0.201 C 
ATOM     24  O   UNL     1       8.544   1.141   1.834  0.00  0.00    -0.278 OA
ATOM     25  H   UNL     1      10.034   0.033  -0.630  0.00  0.00    +0.155 HD
BRANCH  22  30
ATOM     26  C   UNL     1      14.193   3.523   2.395  0.00  0.00    +0.044 C 
ATOM     27  C   UNL     1      13.055   2.725   1.812  0.00  0.00    -0.050 A 
ATOM     28  C   UNL     1      13.149   1.348   1.729  0.00  0.00    +0.008 A 
ATOM     29  C   UNL     1      12.108   0.614   1.195  0.00  0.00    -0.029 A 
ATOM     30  C   UNL     1      10.966   1.261   0.741  0.00  0.00    +0.039 A 
ATOM     31  C   UNL     1      10.876   2.644   0.822  0.00  0.00    -0.029 A 
ATOM     32  C   UNL     1      11.919   3.372   1.361  0.00  0.00    +0.008 A 
ATOM     33  C   UNL     1       9.641   3.351   0.325  0.00  0.00    +0.045 C 
ATOM     34  C   UNL     1      12.211  -0.887   1.105  0.00  0.00    +0.045 C 
ENDBRANCH  22  30
ENDBRANCH  21  23
ENDBRANCH  19  21
ENDBRANCH   1  19
TORSDOF 8
