REMARK  Name = ZINC67401194
REMARK  7 active torsions:
REMARK  status: ('A' for Active; 'I' for Inactive)
REMARK    1  A    between atoms: C_6  and  C_7
REMARK    2  A    between atoms: C_7  and  C_9
REMARK    3  A    between atoms: C_7  and  O_26
REMARK    4  A    between atoms: C_9  and  N_10
REMARK    5  A    between atoms: C_13  and  C_16
REMARK    6  A    between atoms: C_16  and  C_18
REMARK    7  A    between atoms: C_16  and  O_25
REMARK                            x       y       z     vdW  Elec       q    Type
REMARK                         _______ _______ _______ _____ _____    ______ ____
ROOT
ATOM      1  N   UNL     1      -2.882  -1.946   1.566  0.00  0.00    +0.382 N 
ATOM      2  C   UNL     1      -2.668  -3.268   0.964  0.00  0.00    -0.078 C 
ATOM      3  C   UNL     1      -3.970  -4.070   1.010  0.00  0.00    -0.012 C 
ATOM      4  C   UNL     1      -4.410  -4.237   2.467  0.00  0.00    +0.019 C 
ATOM      5  C   UNL     1      -4.558  -2.854   3.107  0.00  0.00    -0.012 C 
ATOM      6  C   UNL     1      -3.234  -2.096   2.983  0.00  0.00    -0.078 C 
ATOM      7  H   UNL     1      -3.633  -1.476   1.082  0.00  0.00    -0.082 HD
ENDROOT
BRANCH   1   8
ATOM      8  C   UNL     1      -1.653  -1.152   1.449  0.00  0.00    -0.042 C 
BRANCH   8   9
ATOM      9  C   UNL     1      -1.919   0.275   1.933  0.00  0.00    +0.128 C 
BRANCH   9  15
ATOM     10  C   UNL     1       0.173   1.219   2.931  0.00  0.00    +0.007 A 
ATOM     11  C   UNL     1       1.335   1.962   2.838  0.00  0.00    +0.020 A 
ATOM     12  C   UNL     1       1.671   2.572   1.642  0.00  0.00    +0.041 A 
ATOM     13  C   UNL     1       0.845   2.437   0.541  0.00  0.00    +0.020 A 
ATOM     14  C   UNL     1      -0.317   1.694   0.636  0.00  0.00    +0.007 A 
ATOM     15  C   UNL     1      -0.653   1.085   1.831  0.00  0.00    -0.021 A 
ATOM     16 CL   UNL     1       3.130   3.505   1.524  0.00  0.00    -0.084 Cl
ENDBRANCH   9  15
BRANCH   9  17
ATOM     17  O   UNL     1      -2.933   0.872   1.122  0.00  0.00    -0.389 OA
ATOM     18  H   UNL     1      -2.705   0.926   0.184  0.00  0.00    +0.210 HD
ENDBRANCH   9  17
ENDBRANCH   8   9
ENDBRANCH   1   8
BRANCH   4  19
ATOM     19  C   UNL     1      -5.752  -4.970   2.517  0.00  0.00    +0.147 C 
BRANCH  19  20
ATOM     20  C   UNL     1      -6.182  -5.133   3.951  0.00  0.00    -0.019 A 
ATOM     21  C   UNL     1      -5.637  -6.140   4.726  0.00  0.00    +0.007 A 
ATOM     22  C   UNL     1      -6.032  -6.291   6.042  0.00  0.00    +0.020 A 
ATOM     23  C   UNL     1      -6.973  -5.433   6.584  0.00  0.00    +0.041 A 
ATOM     24  C   UNL     1      -7.518  -4.426   5.808  0.00  0.00    +0.020 A 
ATOM     25  C   UNL     1      -7.118  -4.273   4.494  0.00  0.00    +0.007 A 
ATOM     26 CL   UNL     1      -7.469  -5.622   8.237  0.00  0.00    -0.084 Cl
ENDBRANCH  19  20
BRANCH  19  27
ATOM     27  O   UNL     1      -5.614  -6.257   1.911  0.00  0.00    -0.387 OA
ATOM     28  H   UNL     1      -4.962  -6.827   2.341  0.00  0.00    +0.210 HD
ENDBRANCH  19  27
ENDBRANCH   4  19
TORSDOF 7
