REMARK  Name = ZINC38102726
REMARK  3 active torsions:
REMARK  status: ('A' for Active; 'I' for Inactive)
REMARK    1  A    between atoms: C_1  and  N_2
REMARK    2  A    between atoms: N_2  and  C_3
REMARK    3  A    between atoms: C_14  and  C_16
REMARK                            x       y       z     vdW  Elec       q    Type
REMARK                         _______ _______ _______ _____ _____    ______ ____
ROOT
ATOM      1  C   UNL     1      -0.081   1.461   0.012  0.00  0.00    +0.133 C 
ATOM      2  N   UNL     1      -0.023  -0.003   0.003  0.00  0.00    -0.292 N 
ATOM      3  C   UNL     1      -0.102  -0.673  -1.163  0.00  0.00    +0.267 C 
ATOM      4  O   UNL     1      -0.154  -1.887  -1.164  0.00  0.00    -0.268 OA
ENDROOT
BRANCH   2   5
ATOM      5  C   UNL     1       0.120  -0.738   1.262  0.00  0.00    +0.107 C 
ATOM      6  C   UNL     1      -1.073  -0.428   2.165  0.00  0.00    +0.027 C 
ATOM      7  C   UNL     1      -0.799  -1.027   3.550  0.00  0.00    +0.007 C 
ATOM      8  C   UNL     1       0.319  -0.223   4.210  0.00  0.00    +0.035 C 
ATOM      9  C   UNL     1       1.501  -0.102   3.284  0.00  0.00    -0.042 A 
ATOM     10  C   UNL     1       1.408  -0.334   1.930  0.00  0.00    -0.024 A 
ATOM     11  C   UNL     1       2.536  -0.197   1.131  0.00  0.00    +0.006 A 
ATOM     12  C   UNL     1       3.747   0.167   1.683  0.00  0.00    +0.000 A 
ATOM     13  C   UNL     1       3.840   0.396   3.043  0.00  0.00    +0.000 A 
ATOM     14  C   UNL     1       2.722   0.261   3.837  0.00  0.00    +0.004 A 
ENDBRANCH   2   5
BRANCH   3  15
ATOM     15  C   UNL     1      -0.124   0.070  -2.444  0.00  0.00    +0.148 A 
ATOM     16  C   UNL     1      -0.342  -0.609  -3.647  0.00  0.00    +0.038 A 
ATOM     17  C   UNL     1      -0.353   0.133  -4.819  0.00  0.00    +0.044 A 
ATOM     18  C   UNL     1      -0.148   1.502  -4.726  0.00  0.00    +0.152 A 
ATOM     19  N   UNL     1       0.050   2.064  -3.545  0.00  0.00    -0.137 NA
ATOM     20  N   UNL     1       0.057   1.385  -2.456  0.00  0.00    -0.143 NA
ATOM     21 CL   UNL     1      -0.152   2.479  -6.162  0.00  0.00    -0.060 Cl
ENDBRANCH   3  15
TORSDOF 2
