REMARK  Name = ZINC08893819
REMARK  7 active torsions:
REMARK  status: ('A' for Active; 'I' for Inactive)
REMARK    1  A    between atoms: C_4  and  N_27
REMARK    2  A    between atoms: C_5  and  N_7
REMARK    3  A    between atoms: C_8  and  C_10
REMARK    4  A    between atoms: N_12  and  C_13
REMARK    5  A    between atoms: C_13  and  C_14
REMARK    6  A    between atoms: C_14  and  C_16
REMARK    7  A    between atoms: C_14  and  N_53
REMARK                            x       y       z     vdW  Elec       q    Type
REMARK                         _______ _______ _______ _____ _____    ______ ____
ROOT
ATOM      1  C   UNL     1       6.395   1.126   2.496  0.00  0.00    +0.299 C 
ATOM      2  O   UNL     1       5.812   1.377   3.530  0.00  0.00    -0.265 OA
ATOM      3  N   UNL     1       5.696   0.859   1.376  0.00  0.00    -0.309 N 
ATOM      4  H   UNL     1       6.162   0.658   0.549  0.00  0.00    +0.149 HD
ENDROOT
BRANCH   1   6
ATOM      5  N   UNL     1       8.588   1.378   3.587  0.00  0.00    -0.276 N 
ATOM      6  C   UNL     1       7.888   1.112   2.466  0.00  0.00    +0.303 C 
ATOM      7  O   UNL     1       8.472   0.860   1.432  0.00  0.00    -0.265 OA
ATOM      8  H   UNL     1       8.124   1.507   4.429  0.00  0.00    +0.155 HD
BRANCH   5  13
ATOM      9  C   UNL     1      11.981   2.084   2.364  0.00  0.00    +0.002 A 
ATOM     10  C   UNL     1      12.741   1.647   3.434  0.00  0.00    +0.002 A 
ATOM     11  C   UNL     1      12.124   1.121   4.554  0.00  0.00    +0.034 A 
ATOM     12  C   UNL     1      10.747   1.030   4.609  0.00  0.00    +0.147 A 
ATOM     13  C   UNL     1       9.981   1.469   3.536  0.00  0.00    +0.064 A 
ATOM     14  C   UNL     1      10.604   1.992   2.409  0.00  0.00    +0.025 A 
BRANCH  12  15
ATOM     15  N   UNL     1      10.088   0.467   5.808  0.00  0.00    +0.058 N 
ATOM     16  O   UNL     1      10.751   0.180   6.789  0.00  0.00    -0.126 OA
ATOM     17  O   UNL     1       8.883   0.290   5.814  0.00  0.00    -0.126 OA
ENDBRANCH  12  15
ENDBRANCH   5  13
ENDBRANCH   1   6
BRANCH   3  18
ATOM     18  C   UNL     1       4.231   0.873   1.406  0.00  0.00    +0.094 C 
BRANCH  18  19
ATOM     19  C   UNL     1       3.690   0.686  -0.013  0.00  0.00    -0.020 C 
BRANCH  19  26
ATOM     20  C   UNL     1       3.193   2.309  -1.752  0.00  0.00    -0.078 C 
ATOM     21  C   UNL     1       3.752   3.175  -2.848  0.00  0.00    -0.019 C 
ATOM     22  C   UNL     1       3.922   2.313  -4.116  0.00  0.00    -0.002 C 
ATOM     23  C   UNL     1       5.117   1.478  -4.058  0.00  0.00    -0.002 C 
ATOM     24  C   UNL     1       5.077   0.485  -2.878  0.00  0.00    -0.019 C 
ATOM     25  C   UNL     1       5.433   1.226  -1.618  0.00  0.00    -0.078 C 
ATOM     26  N   UNL     1       4.258   1.757  -0.847  0.00  0.00    +0.385 N 
ATOM     27  H   UNL     1       4.587   2.514  -0.235  0.00  0.00    -0.081 HD
ENDBRANCH  19  26
BRANCH  19  28
ATOM     28  C   UNL     1       2.187   0.793   0.004  0.00  0.00    -0.052 A 
ATOM     29  C   UNL     1       1.403  -0.288  -0.351  0.00  0.00    +0.009 A 
ATOM     30  C   UNL     1       0.053  -0.158  -0.326  0.00  0.00    +0.045 A 
ATOM     31  S   UNL     1      -0.144   1.532   0.213  0.00  0.00    -0.105 S 
ATOM     32  C   UNL     1       1.584   1.951   0.367  0.00  0.00    +0.047 A 
ENDBRANCH  19  28
ENDBRANCH  18  19
ENDBRANCH   3  18
TORSDOF 7
