REMARK  Name = ZINC51684808
REMARK  12 active torsions:
REMARK  status: ('A' for Active; 'I' for Inactive)
REMARK    1  A    between atoms: C_1  and  C_2
REMARK    2  A    between atoms: C_2  and  S_3
REMARK    3  A    between atoms: S_3  and  N_6
REMARK    4  A    between atoms: N_6  and  C_7
REMARK    5  A    between atoms: C_7  and  C_8
REMARK    6  A    between atoms: C_8  and  C_9
REMARK    7  A    between atoms: C_9  and  N_10
REMARK    8  A    between atoms: N_13  and  C_14
REMARK    9  A    between atoms: C_14  and  C_15
REMARK   10  A    between atoms: C_20  and  N_21
REMARK   11  A    between atoms: N_21  and  C_22
REMARK   12  A    between atoms: N_21  and  C_23
REMARK                            x       y       z     vdW  Elec       q    Type
REMARK                         _______ _______ _______ _____ _____    ______ ____
ROOT
ATOM      1  N   UNL     1      -0.510  -6.507   2.979  0.00  0.00    -0.299 N 
ATOM      2  C   UNL     1      -0.027  -7.505   3.747  0.00  0.00    +0.300 C 
ATOM      3  O   UNL     1       0.765  -7.258   4.636  0.00  0.00    -0.253 OA
ATOM      4  N   UNL     1      -0.422  -8.774   3.529  0.00  0.00    -0.295 N 
ATOM      5  H   UNL     1      -1.142  -6.704   2.270  0.00  0.00    +0.150 HD
ATOM      6  H   UNL     1      -1.054  -8.971   2.819  0.00  0.00    +0.151 HD
ENDROOT
BRANCH   1   7
ATOM      7  C   UNL     1      -0.080  -5.127   3.216  0.00  0.00    +0.107 C 
BRANCH   7   8
ATOM      8  C   UNL     1      -0.771  -4.199   2.215  0.00  0.00    +0.035 C 
BRANCH   8   9
ATOM      9  C   UNL     1      -0.322  -2.757   2.462  0.00  0.00    +0.107 C 
BRANCH   9  10
ATOM     10  N   UNL     1      -0.984  -1.868   1.504  0.00  0.00    -0.194 NA
ATOM     11  H   UNL     1      -1.420  -2.238   0.721  0.00  0.00    +0.148 HD
BRANCH  10  12
ATOM     12  S   UNL     1      -0.987  -0.232   1.758  0.00  0.00    +0.029 S 
ATOM     13  O   UNL     1      -1.450  -0.073   3.092  0.00  0.00    -0.158 OA
ATOM     14  O   UNL     1      -1.724   0.303   0.667  0.00  0.00    -0.158 OA
BRANCH  12  16
ATOM     15  C   UNL     1       0.873   1.771   1.859  0.00  0.00    +0.029 C 
ATOM     16  C   UNL     1       0.754   0.262   1.638  0.00  0.00    +0.181 C 
ENDBRANCH  12  16
ENDBRANCH  10  12
ENDBRANCH   9  10
ENDBRANCH   8   9
ENDBRANCH   7   8
ENDBRANCH   1   7
BRANCH   4  17
ATOM     17  C   UNL     1       0.102  -9.858   4.363  0.00  0.00    +0.144 C 
BRANCH  17  18
ATOM     18  C   UNL     1      -0.493 -11.169   3.916  0.00  0.00    +0.008 A 
ATOM     19  C   UNL     1      -1.518 -11.755   4.637  0.00  0.00    +0.010 A 
ATOM     20  C   UNL     1      -2.037 -12.963   4.189  0.00  0.00    +0.018 A 
ATOM     21  C   UNL     1      -1.518 -13.539   3.047  0.00  0.00    +0.084 A 
ATOM     22  N   UNL     1      -0.540 -12.958   2.380  0.00  0.00    -0.349 N 
ATOM     23  C   UNL     1      -0.023 -11.803   2.771  0.00  0.00    +0.103 A 
ATOM     24  H   UNL     1      -0.194 -13.384   1.580  0.00  0.00    +0.167 HD
BRANCH  23  25
ATOM     25  N   UNL     1       1.003 -11.222   2.034  0.00  0.00    -0.323 N 
ATOM     26  C   UNL     1       2.399 -11.454   2.413  0.00  0.00    +0.130 C 
ATOM     27  C   UNL     1       0.688 -10.378   0.879  0.00  0.00    +0.130 C 
ENDBRANCH  23  25
ENDBRANCH  17  18
ENDBRANCH   4  17
TORSDOF 9
