REMARK  Name = ZINC58993692
REMARK  10 active torsions:
REMARK  status: ('A' for Active; 'I' for Inactive)
REMARK    1  A    between atoms: C_1  and  C_2
REMARK    2  A    between atoms: C_2  and  S_3
REMARK    3  A    between atoms: S_3  and  C_4
REMARK    4  A    between atoms: C_9  and  N_13
REMARK    5  A    between atoms: C_14  and  C_16
REMARK    6  A    between atoms: C_16  and  S_17
REMARK    7  A    between atoms: S_17  and  C_18
REMARK    8  A    between atoms: N_23  and  N_24
REMARK    9  A    between atoms: C_25  and  C_26
REMARK   10  A    between atoms: C_29  and  N_32
REMARK                            x       y       z     vdW  Elec       q    Type
REMARK                         _______ _______ _______ _____ _____    ______ ____
ROOT
ATOM      1  C   UNL     1       0.041 -13.459   1.102  0.00  0.00    +0.211 A 
ATOM      2  N   UNL     1      -0.295 -14.462   1.920  0.00  0.00    -0.186 NA
ATOM      3  C   UNL     1       0.099 -15.606   1.402  0.00  0.00    +0.232 A 
ATOM      4  N   UNL     1       0.702 -15.344   0.223  0.00  0.00    -0.245 N 
ATOM      5  N   UNL     1       0.647 -13.952   0.049  0.00  0.00    -0.144 NA
ATOM      6  N   UNL     1      -0.076 -16.857   1.966  0.00  0.00    -0.205 N 
ATOM      7  H   UNL     1       0.251 -17.646   1.506  0.00  0.00    +0.177 HD
ATOM      8  H   UNL     1       1.094 -15.991  -0.385  0.00  0.00    +0.192 HD
ENDROOT
BRANCH   6   9
ATOM      9  N   UNL     1      -0.724 -16.984   3.201  0.00  0.00    -0.188 NA
ATOM     10  C   UNL     1      -0.888 -18.158   3.731  0.00  0.00    +0.138 C 
BRANCH  10  11
ATOM     11  C   UNL     1      -1.570 -18.292   5.031  0.00  0.00    -0.005 A 
ATOM     12  C   UNL     1      -2.047 -17.158   5.693  0.00  0.00    +0.012 A 
ATOM     13  C   UNL     1      -2.684 -17.291   6.910  0.00  0.00    +0.033 A 
ATOM     14  C   UNL     1      -2.851 -18.543   7.474  0.00  0.00    +0.126 A 
ATOM     15  C   UNL     1      -2.381 -19.671   6.823  0.00  0.00    +0.033 A 
ATOM     16  C   UNL     1      -1.748 -19.554   5.604  0.00  0.00    +0.012 A 
BRANCH  14  17
ATOM     17  N   UNL     1      -3.536 -18.678   8.780  0.00  0.00    +0.056 N 
ATOM     18  O   UNL     1      -3.947 -17.695   9.351  0.00  0.00    -0.126 OA
ATOM     19  O   UNL     1      -3.684 -19.770   9.275  0.00  0.00    -0.126 OA
ENDBRANCH  14  17
ENDBRANCH  10  11
ENDBRANCH   6   9
BRANCH   1  20
ATOM     20  S   UNL     1      -0.286 -11.751   1.389  0.00  0.00    -0.075 S 
BRANCH  20  21
ATOM     21  C   UNL     1       0.400 -10.922  -0.071  0.00  0.00    +0.173 C 
BRANCH  21  23
ATOM     22  N   UNL     1       0.616  -8.611  -0.927  0.00  0.00    -0.285 N 
ATOM     23  C   UNL     1       0.185  -9.435   0.048  0.00  0.00    +0.227 C 
ATOM     24  O   UNL     1      -0.377  -8.980   1.022  0.00  0.00    -0.275 OA
ATOM     25  H   UNL     1       1.004  -8.979  -1.737  0.00  0.00    +0.155 HD
BRANCH  22  31
ATOM     26  C   UNL     1      -0.996  -2.683   0.392  0.00  0.00    +0.136 A 
ATOM     27  N   UNL     1       0.065  -3.112  -0.254  0.00  0.00    -0.233 NA
ATOM     28  C   UNL     1       0.298  -4.426  -0.474  0.00  0.00    +0.080 A 
ATOM     29  C   UNL     1       1.391  -5.015  -1.150  0.00  0.00    +0.031 A 
ATOM     30  C   UNL     1       1.481  -6.375  -1.289  0.00  0.00    +0.025 A 
ATOM     31  C   UNL     1       0.504  -7.223  -0.773  0.00  0.00    +0.035 A 
ATOM     32  C   UNL     1      -0.583  -6.676  -0.103  0.00  0.00    +0.040 A 
ATOM     33  C   UNL     1      -0.675  -5.314   0.038  0.00  0.00    +0.042 A 
ATOM     34  S   UNL     1      -1.839  -4.206   0.795  0.00  0.00    -0.061 S 
BRANCH  26  35
ATOM     35  S   UNL     1      -1.463  -1.027   0.771  0.00  0.00    -0.099 S 
BRANCH  35  37
ATOM     36  C   UNL     1      -0.422   1.460   0.311  0.00  0.00    +0.016 C 
ATOM     37  C   UNL     1      -0.138  -0.021   0.051  0.00  0.00    +0.073 C 
ENDBRANCH  35  37
ENDBRANCH  26  35
ENDBRANCH  22  31
ENDBRANCH  21  23
ENDBRANCH  20  21
ENDBRANCH   1  20
TORSDOF 9
