REMARK  Name = ZINC64028758
REMARK  8 active torsions:
REMARK  status: ('A' for Active; 'I' for Inactive)
REMARK    1  A    between atoms: C_1  and  C_2
REMARK    2  A    between atoms: C_5  and  N_8
REMARK    3  A    between atoms: C_9  and  C_30
REMARK    4  A    between atoms: C_11  and  N_15
REMARK    5  A    between atoms: C_12  and  C_14
REMARK    6  A    between atoms: C_16  and  C_18
REMARK    7  A    between atoms: C_18  and  C_19
REMARK    8  A    between atoms: C_27  and  C_29
REMARK                            x       y       z     vdW  Elec       q    Type
REMARK                         _______ _______ _______ _____ _____    ______ ____
ROOT
ATOM      1  N   UNL     1       0.103  -7.591   1.509  0.00  0.00    -0.286 N 
ATOM      2  C   UNL     1       1.174  -7.968   2.235  0.00  0.00    +0.221 C 
ATOM      3  O   UNL     1       2.118  -7.216   2.358  0.00  0.00    -0.275 OA
ATOM      4  H   UNL     1      -0.680  -8.162   1.467  0.00  0.00    +0.155 HD
ENDROOT
BRANCH   1   7
ATOM      5  N   UNL     1       0.317  -4.083   0.268  0.00  0.00    -0.245 N 
ATOM      6  C   UNL     1       0.434  -5.016   1.401  0.00  0.00    +0.137 C 
ATOM      7  C   UNL     1       0.120  -6.374   0.816  0.00  0.00    +0.050 C 
ATOM      8  C   UNL     1      -0.136  -6.204  -0.470  0.00  0.00    +0.038 C 
ATOM      9  N   UNL     1      -0.038  -4.867  -0.839  0.00  0.00    -0.266 N 
ATOM     10  C   UNL     1      -0.495  -7.319  -1.417  0.00  0.00    +0.063 C 
ATOM     11  C   UNL     1      -0.576  -4.657   2.494  0.00  0.00    +0.036 C 
ATOM     12  H   UNL     1      -0.191  -4.526  -1.734  0.00  0.00    +0.170 HD
BRANCH   5  17
ATOM     13  C   UNL     1       1.110   1.531   0.366  0.00  0.00    +0.044 C 
ATOM     14  C   UNL     1       0.899   0.039   0.340  0.00  0.00    -0.050 A 
ATOM     15  C   UNL     1       0.551  -0.588  -0.843  0.00  0.00    +0.005 A 
ATOM     16  C   UNL     1       0.357  -1.955  -0.870  0.00  0.00    +0.025 A 
ATOM     17  C   UNL     1       0.512  -2.700   0.292  0.00  0.00    +0.048 A 
ATOM     18  C   UNL     1       0.863  -2.068   1.478  0.00  0.00    +0.025 A 
ATOM     19  C   UNL     1       1.061  -0.701   1.497  0.00  0.00    +0.005 A 
ENDBRANCH   5  17
ENDBRANCH   1   7
BRANCH   2  20
ATOM     20  C   UNL     1       1.198  -9.323   2.894  0.00  0.00    +0.129 C 
BRANCH  20  21
ATOM     21  C   UNL     1       1.902 -10.306   1.994  0.00  0.00    -0.030 C 
ATOM     22  C   UNL     1       2.488 -10.044   0.804  0.00  0.00    -0.000 A 
ATOM     23  C   UNL     1       2.638  -8.812   0.019  0.00  0.00    +0.010 A 
ATOM     24  C   UNL     1       3.289  -8.864  -1.165  0.00  0.00    +0.001 A 
ATOM     25  C   UNL     1       3.822 -10.062  -1.661  0.00  0.00    +0.002 A 
ATOM     26  C   UNL     1       3.725 -11.233  -0.998  0.00  0.00    +0.026 A 
ATOM     27  C   UNL     1       3.061 -11.295   0.258  0.00  0.00    +0.043 A 
ATOM     28  N   UNL     1       2.838 -12.292   1.080  0.00  0.00    -0.378 N 
ATOM     29  C   UNL     1       2.103 -11.784   2.243  0.00  0.00    +0.104 C 
ATOM     30  C   UNL     1       0.749 -12.488   2.357  0.00  0.00    +0.035 C 
ATOM     31  H   UNL     1       3.115 -13.211   0.943  0.00  0.00    +0.160 HD
ENDBRANCH  20  21
ENDBRANCH   2  20
TORSDOF 4
