REMARK  Name = ZINC16050360
REMARK  3 active torsions:
REMARK  status: ('A' for Active; 'I' for Inactive)
REMARK    1  A    between atoms: C_4  and  N_7
REMARK    2  A    between atoms: C_14  and  C_16
REMARK    3  A    between atoms: C_16  and  N_17
REMARK                            x       y       z     vdW  Elec       q    Type
REMARK                         _______ _______ _______ _____ _____    ______ ____
ROOT
ATOM      1  N   UNL     1       3.601  -0.631  -0.037  0.00  0.00    -0.226 NA
ATOM      2  C   UNL     1       3.792  -1.657   0.759  0.00  0.00    +0.163 C 
ATOM      3  N   UNL     1       4.996  -2.359   0.780  0.00  0.00    -0.249 N 
ATOM      4  C   UNL     1       4.949  -3.820   0.672  0.00  0.00    +0.116 C 
ATOM      5  C   UNL     1       4.145  -4.422   1.821  0.00  0.00    +0.030 C 
ATOM      6  C   UNL     1       2.667  -4.036   1.692  0.00  0.00    +0.079 C 
ATOM      7  S   UNL     1       2.535  -2.224   1.875  0.00  0.00    -0.090 S 
ATOM      8  C   UNL     1       6.173  -1.711   0.896  0.00  0.00    +0.239 C 
ATOM      9  O   UNL     1       7.211  -2.338   0.912  0.00  0.00    -0.273 OA
ENDROOT
BRANCH   1  13
ATOM     10  C   UNL     1      -0.017   1.379   0.010  0.00  0.00    +0.000 A 
ATOM     11  C   UNL     1       1.168   2.094   0.002  0.00  0.00    +0.002 A 
ATOM     12  C   UNL     1       2.377   1.430  -0.013  0.00  0.00    +0.028 A 
ATOM     13  C   UNL     1       2.404   0.034  -0.021  0.00  0.00    +0.067 A 
ATOM     14  C   UNL     1       1.204  -0.681  -0.013  0.00  0.00    +0.028 A 
ATOM     15  C   UNL     1       0.002  -0.004   0.002  0.00  0.00    +0.002 A 
ENDBRANCH   1  13
BRANCH   8  16
ATOM     16  C   UNL     1       6.198  -0.208   1.005  0.00  0.00    +0.212 C 
BRANCH  16  17
ATOM     17  N   UNL     1       7.585   0.249   1.120  0.00  0.00    -0.233 N 
ATOM     18  C   UNL     1       8.227   0.396   2.310  0.00  0.00    +0.226 C 
ATOM     19  O   UNL     1       7.727   0.389   3.415  0.00  0.00    -0.275 OA
ATOM     20  C   UNL     1       9.675   0.568   1.979  0.00  0.00    +0.087 C 
ATOM     21  C   UNL     1      10.542   1.450   2.846  0.00  0.00    +0.013 C 
ATOM     22  C   UNL     1      11.944   1.457   2.208  0.00  0.00    +0.001 C 
ATOM     23  C   UNL     1      11.910   1.917   0.754  0.00  0.00    +0.001 C 
ATOM     24  C   UNL     1      10.896   1.109  -0.081  0.00  0.00    +0.013 C 
ATOM     25  C   UNL     1       9.556   1.274   0.596  0.00  0.00    +0.087 C 
ATOM     26  C   UNL     1       8.358   0.564   0.046  0.00  0.00    +0.226 C 
ATOM     27  O   UNL     1       8.124   0.321  -1.119  0.00  0.00    -0.275 OA
ENDBRANCH  16  17
ENDBRANCH   8  16
TORSDOF 3
