REMARK  Name = ZINC63328749
REMARK  6 active torsions:
REMARK  status: ('A' for Active; 'I' for Inactive)
REMARK    1  A    between atoms: C_1  and  C_2
REMARK    2  A    between atoms: C_2  and  C_4
REMARK    3  A    between atoms: C_2  and  N_14
REMARK    4  A    between atoms: C_4  and  C_5
REMARK    5  A    between atoms: C_15  and  C_17
REMARK    6  A    between atoms: C_25  and  C_27
REMARK                            x       y       z     vdW  Elec       q    Type
REMARK                         _______ _______ _______ _____ _____    ______ ____
ROOT
ATOM      1  N   UNL     1       0.688  -0.476  -1.203  0.00  0.00    -0.308 N 
ATOM      2  C   UNL     1       0.006  -0.608  -2.358  0.00  0.00    +0.244 C 
ATOM      3  O   UNL     1      -1.178  -0.335  -2.400  0.00  0.00    -0.270 OA
ATOM      4  H   UNL     1       1.632  -0.695  -1.170  0.00  0.00    +0.149 HD
ENDROOT
BRANCH   2   5
ATOM      5  C   UNL     1       0.697  -1.084  -3.573  0.00  0.00    +0.039 A 
ATOM      6  C   UNL     1       2.061  -1.405  -3.522  0.00  0.00    +0.015 A 
ATOM      7  C   UNL     1       2.710  -1.845  -4.635  0.00  0.00    +0.030 A 
ATOM      8  C   UNL     1       2.017  -1.982  -5.844  0.00  0.00    +0.089 A 
ATOM      9  C   UNL     1       0.647  -1.662  -5.902  0.00  0.00    +0.067 A 
ATOM     10  C   UNL     1      -0.009  -1.220  -4.767  0.00  0.00    +0.040 A 
ATOM     11  N   UNL     1       0.257  -1.897  -7.207  0.00  0.00    -0.335 N 
ATOM     12  H   UNL     1      -0.633  -1.772  -7.572  0.00  0.00    +0.167 HD
ATOM     13  C   UNL     1       1.351  -2.335  -7.883  0.00  0.00    +0.213 A 
ATOM     14  N   UNL     1       2.380  -2.385  -7.086  0.00  0.00    -0.224 NA
BRANCH  13  15
ATOM     15  C   UNL     1       1.371  -2.710  -9.342  0.00  0.00    +0.450 C 
ATOM     16  F   UNL     1       2.539  -3.428  -9.623  0.00  0.00    -0.163 F 
ATOM     17  F   UNL     1       0.256  -3.501  -9.636  0.00  0.00    -0.163 F 
ATOM     18  F   UNL     1       1.339  -1.549 -10.122  0.00  0.00    -0.163 F 
ENDBRANCH  13  15
ENDBRANCH   2   5
BRANCH   1  20
ATOM     19  C   UNL     1      -0.019   1.526   0.010  0.00  0.00    +0.028 C 
ATOM     20  C   UNL     1       0.002  -0.004   0.002  0.00  0.00    +0.074 C 
BRANCH  20  21
ATOM     21  C   UNL     1       0.742  -0.511   1.242  0.00  0.00    +0.055 C 
BRANCH  21  22
ATOM     22  C   UNL     1       0.657  -2.014   1.298  0.00  0.00    -0.040 C 
ATOM     23  C   UNL     1       1.572  -2.899   0.840  0.00  0.00    -0.001 A 
ATOM     24  C   UNL     1       2.871  -2.732   0.178  0.00  0.00    +0.010 A 
ATOM     25  C   UNL     1       3.576  -3.832  -0.172  0.00  0.00    +0.001 A 
ATOM     26  C   UNL     1       3.098  -5.125   0.083  0.00  0.00    +0.002 A 
ATOM     27  C   UNL     1       1.914  -5.358   0.687  0.00  0.00    +0.026 A 
ATOM     28  C   UNL     1       1.090  -4.274   1.098  0.00  0.00    +0.043 A 
ATOM     29  N   UNL     1      -0.079  -4.242   1.691  0.00  0.00    -0.380 N 
ATOM     30  C   UNL     1      -0.467  -2.840   1.883  0.00  0.00    +0.144 C 
ATOM     31  H   UNL     1      -0.598  -5.015   1.962  0.00  0.00    +0.160 HD
ENDBRANCH  21  22
ENDBRANCH  20  21
ENDBRANCH   1  20
TORSDOF 5
