REMARK  Name = ZINC45544913
REMARK  8 active torsions:
REMARK  status: ('A' for Active; 'I' for Inactive)
REMARK    1  A    between atoms: C_1  and  C_2
REMARK    2  A    between atoms: C_2  and  C_3
REMARK    3  A    between atoms: C_3  and  N_4
REMARK    4  A    between atoms: N_4  and  C_5
REMARK    5  A    between atoms: C_5  and  C_7
REMARK    6  A    between atoms: C_5  and  C_20
REMARK    7  A    between atoms: C_7  and  O_8
REMARK    8  A    between atoms: O_8  and  C_9
REMARK                            x       y       z     vdW  Elec       q    Type
REMARK                         _______ _______ _______ _____ _____    ______ ____
ROOT
ATOM      1  C   UNL     1       1.602  -3.989   2.353  0.00  0.00    +0.223 C 
ENDROOT
BRANCH   1   2
ATOM      2  C   UNL     1       1.472  -2.466   2.424  0.00  0.00    +0.054 C 
BRANCH   2   3
ATOM      3  C   UNL     1       0.701  -2.085   3.660  0.00  0.00    +0.200 C 
ATOM      4  O   UNL     1      -0.339  -1.468   3.560  0.00  0.00    -0.278 OA
ATOM      5  N   UNL     1       1.166  -2.429   4.878  0.00  0.00    -0.331 N 
ATOM      6  H   UNL     1       1.997  -2.922   4.958  0.00  0.00    +0.145 HD
ATOM      7  H   UNL     1       0.669  -2.183   5.674  0.00  0.00    +0.145 HD
ENDBRANCH   2   3
BRANCH   2   8
ATOM      8  N   UNL     1       0.762  -1.980   1.234  0.00  0.00    +0.389 N 
ATOM      9  H   UNL     1      -0.185  -2.329   1.241  0.00  0.00    -0.085 HD
ATOM     10  H   UNL     1       1.234  -2.305   0.403  0.00  0.00    -0.085 HD
BRANCH   8  11
ATOM     11  C   UNL     1       0.742  -0.511   1.242  0.00  0.00    -0.082 C 
BRANCH  11  13
ATOM     12  C   UNL     1      -0.019   1.526   0.010  0.00  0.00    +0.002 C 
ATOM     13  C   UNL     1       0.002  -0.004   0.002  0.00  0.00    -0.022 C 
ENDBRANCH  11  13
ENDBRANCH   8  11
ENDBRANCH   2   8
ENDBRANCH   1   2
BRANCH   1  14
ATOM     14  O   UNL     1       0.304  -4.582   2.419  0.00  0.00    -0.487 OA
BRANCH  14  15
ATOM     15  C   UNL     1       0.241  -5.940   2.369  0.00  0.00    +0.197 A 
ATOM     16  C   UNL     1       0.131  -6.585   1.145  0.00  0.00    +0.206 A 
ATOM     17  C   UNL     1       0.068  -7.968   1.094  0.00  0.00    +0.200 A 
ATOM     18  C   UNL     1       0.114  -8.707   2.265  0.00  0.00    +0.199 A 
ATOM     19  C   UNL     1       0.223  -8.064   3.488  0.00  0.00    +0.200 A 
ATOM     20  C   UNL     1       0.292  -6.681   3.541  0.00  0.00    +0.206 A 
ATOM     21  F   UNL     1       0.404  -6.055   4.732  0.00  0.00    -0.198 F 
ATOM     22  F   UNL     1       0.267  -8.786   4.629  0.00  0.00    -0.199 F 
ATOM     23  F   UNL     1       0.052 -10.056   2.215  0.00  0.00    -0.199 F 
ATOM     24  F   UNL     1      -0.039  -8.596  -0.097  0.00  0.00    -0.199 F 
ATOM     25  F   UNL     1       0.086  -5.864   0.003  0.00  0.00    -0.198 F 
ENDBRANCH  14  15
ENDBRANCH   1  14
TORSDOF 7
