REMARK  Name = ZINC08203645
REMARK  11 active torsions:
REMARK  status: ('A' for Active; 'I' for Inactive)
REMARK    1  A    between atoms: C_1  and  C_2
REMARK    2  A    between atoms: C_5  and  N_9
REMARK    3  A    between atoms: C_10  and  C_12
REMARK    4  A    between atoms: C_12  and  N_13
REMARK    5  A    between atoms: N_13  and  C_14
REMARK    6  A    between atoms: N_13  and  C_15
REMARK    7  A    between atoms: C_15  and  C_16
REMARK    8  A    between atoms: N_18  and  C_19
REMARK    9  A    between atoms: C_20  and  C_27
REMARK   10  A    between atoms: C_22  and  C_26
REMARK   11  A    between atoms: C_24  and  C_25
REMARK                            x       y       z     vdW  Elec       q    Type
REMARK                         _______ _______ _______ _____ _____    ______ ____
ROOT
ATOM      1  N   UNL     1       1.135  -7.430  -2.161  0.00  0.00    +0.389 N 
ATOM      2  C   UNL     1       0.543  -6.314  -2.911  0.00  0.00    -0.095 C 
ATOM      3  H   UNL     1       2.079  -7.588  -2.481  0.00  0.00    -0.081 HD
ENDROOT
BRANCH   1   4
ATOM      4  C   UNL     1       1.151  -7.104  -0.729  0.00  0.00    +0.019 C 
BRANCH   4   6
ATOM      5  N   UNL     1       2.242  -5.455   0.758  0.00  0.00    -0.286 N 
ATOM      6  C   UNL     1       2.069  -5.933  -0.491  0.00  0.00    +0.201 C 
ATOM      7  O   UNL     1       2.653  -5.420  -1.422  0.00  0.00    -0.278 OA
ATOM      8  H   UNL     1       1.833  -5.908   1.512  0.00  0.00    +0.155 HD
BRANCH   5  13
ATOM      9  C   UNL     1       5.360  -0.789   1.601  0.00  0.00    +0.044 C 
ATOM     10  C   UNL     1       4.532  -2.028   1.378  0.00  0.00    -0.049 A 
ATOM     11  C   UNL     1       4.855  -2.899   0.353  0.00  0.00    +0.005 A 
ATOM     12  C   UNL     1       4.098  -4.035   0.145  0.00  0.00    +0.025 A 
ATOM     13  C   UNL     1       3.011  -4.304   0.966  0.00  0.00    +0.052 A 
ATOM     14  C   UNL     1       2.689  -3.428   1.996  0.00  0.00    +0.062 A 
ATOM     15  C   UNL     1       3.454  -2.295   2.201  0.00  0.00    +0.025 A 
ATOM     16 CL   UNL     1       1.331  -3.759   3.026  0.00  0.00    -0.082 Cl
ENDBRANCH   5  13
ENDBRANCH   4   6
ENDBRANCH   1   4
BRANCH   1  17
ATOM     17  C   UNL     1       0.336  -8.643  -2.378  0.00  0.00    +0.019 C 
BRANCH  17  18
ATOM     18  C   UNL     1       0.420  -9.048  -3.827  0.00  0.00    +0.201 C 
ATOM     19  O   UNL     1       1.080  -8.390  -4.603  0.00  0.00    -0.278 OA
ATOM     20  N   UNL     1      -0.239 -10.141  -4.261  0.00  0.00    -0.287 N 
ATOM     21  H   UNL     1      -0.831 -10.620  -3.661  0.00  0.00    +0.155 HD
BRANCH  20  22
ATOM     22  C   UNL     1      -0.069 -10.583  -5.577  0.00  0.00    +0.039 A 
ATOM     23  C   UNL     1      -0.336  -9.728  -6.639  0.00  0.00    -0.029 A 
ATOM     24  C   UNL     1      -0.167 -10.168  -7.937  0.00  0.00    +0.008 A 
ATOM     25  C   UNL     1       0.267 -11.458  -8.181  0.00  0.00    -0.050 A 
ATOM     26  C   UNL     1       0.532 -12.312  -7.126  0.00  0.00    +0.008 A 
ATOM     27  C   UNL     1       0.371 -11.877  -5.825  0.00  0.00    -0.029 A 
ATOM     28  C   UNL     1       0.668 -12.806  -4.676  0.00  0.00    +0.045 C 
ATOM     29  C   UNL     1       0.449 -11.935  -9.599  0.00  0.00    +0.044 C 
ATOM     30  C   UNL     1      -0.809  -8.322  -6.374  0.00  0.00    +0.045 C 
ENDBRANCH  20  22
ENDBRANCH  17  18
ENDBRANCH   1  17
TORSDOF 6
