REMARK  Name = ZINC37238837
REMARK  6 active torsions:
REMARK  status: ('A' for Active; 'I' for Inactive)
REMARK    1  A    between atoms: C_1  and  C_2
REMARK    2  A    between atoms: C_2  and  CA_3
REMARK    3  A    between atoms: CA_3  and  C_5
REMARK    4  A    between atoms: CA_3  and  N_7
REMARK    5  A    between atoms: C_5  and  O_6
REMARK    6  A    between atoms: N_7  and  C_8
REMARK                            x       y       z     vdW  Elec       q    Type
REMARK                         _______ _______ _______ _____ _____    ______ ____
ROOT
ATOM      1  C   UNL     1      -3.268  -0.746   1.044  0.00  0.00    -0.034 C 
ATOM      2  C   UNL     1      -4.187  -0.268   2.170  0.00  0.00    +0.030 C 
ATOM      3  C   UNL     1      -5.480  -1.091   2.119  0.00  0.00    +0.228 C 
ATOM      4  O   UNL     1      -5.159  -2.452   2.406  0.00  0.00    -0.492 OA
ATOM      5  C   UNL     1      -4.126  -3.017   1.728  0.00  0.00    +0.122 A 
ATOM      6  C   UNL     1      -3.187  -2.252   1.060  0.00  0.00    -0.019 A 
ATOM      7  C   UNL     1      -2.148  -2.871   0.386  0.00  0.00    +0.020 A 
ATOM      8  C   UNL     1      -2.045  -4.249   0.377  0.00  0.00    +0.018 A 
ATOM      9  C   UNL     1      -2.984  -5.016   1.043  0.00  0.00    +0.019 A 
ATOM     10  C   UNL     1      -4.021  -4.404   1.715  0.00  0.00    +0.047 A 
ATOM     11 BR   UNL     1      -0.622  -5.086  -0.544  0.00  0.00    -0.050 Br
ENDROOT
BRANCH   1  12
ATOM     12  N   UNL     1      -1.925  -0.183   1.236  0.00  0.00    +0.387 N 
ATOM     13  H1  UNL     1      -1.297  -0.565   0.544  0.00  0.00    -0.085 HD
ATOM     14  H2  UNL     1      -1.590  -0.418   2.159  0.00  0.00    -0.085 HD
BRANCH  12  15
ATOM     15  CA  UNL     1      -1.981   1.278   1.093  0.00  0.00    -0.045 C 
BRANCH  15  17
ATOM     16  C   UNL     1      -0.311   1.627   2.918  0.00  0.00    +0.002 C 
ATOM     17  C   UNL     1      -0.617   1.878   1.440  0.00  0.00    -0.017 C 
ENDBRANCH  15  17
BRANCH  15  18
ATOM     18  C   UNL     1      -2.343   1.635  -0.351  0.00  0.00    +0.140 C 
BRANCH  18  19
ATOM     19  O   UNL     1      -1.308   1.184  -1.227  0.00  0.00    -0.397 OA
ATOM     20  H   UNL     1      -1.470   1.377  -2.160  0.00  0.00    +0.209 HD
ENDBRANCH  18  19
ENDBRANCH  15  18
ENDBRANCH  12  15
ENDBRANCH   1  12
TORSDOF 5
