REMARK  Name = ZINC12884372
REMARK  9 active torsions:
REMARK  status: ('A' for Active; 'I' for Inactive)
REMARK    1  A    between atoms: C_1  and  C_2
REMARK    2  A    between atoms: C_4  and  C_35
REMARK    3  A    between atoms: C_13  and  C_15
REMARK    4  A    between atoms: C_15  and  C_16
REMARK    5  A    between atoms: C_16  and  S_17
REMARK    6  A    between atoms: S_17  and  C_18
REMARK    7  A    between atoms: N_21  and  C_24
REMARK    8  A    between atoms: C_24  and  C_25
REMARK    9  A    between atoms: C_25  and  C_26
REMARK                            x       y       z     vdW  Elec       q    Type
REMARK                         _______ _______ _______ _____ _____    ______ ____
ROOT
ATOM      1  C   UNL     1      -1.168   7.238   0.048  0.00  0.00    +0.044 C 
ATOM      2  C   UNL     1      -0.516   5.879   0.034  0.00  0.00    -0.050 A 
ATOM      3  C   UNL     1       0.862   5.772   0.019  0.00  0.00    +0.008 A 
ATOM      4  C   UNL     1       1.464   4.531   0.008  0.00  0.00    -0.029 A 
ATOM      5  C   UNL     1       0.687   3.375   0.012  0.00  0.00    +0.039 A 
ATOM      6  C   UNL     1      -0.700   3.495   0.026  0.00  0.00    -0.027 A 
ATOM      7  C   UNL     1      -1.296   4.736   0.037  0.00  0.00    +0.008 A 
ATOM      8  C   UNL     1      -1.233   2.091   0.018  0.00  0.00    +0.050 C 
ATOM      9  C   UNL     1      -2.111   1.817   1.246  0.00  0.00    +0.088 C 
ATOM     10  C   UNL     1      -3.567   1.990   0.733  0.00  0.00    +0.073 C 
ATOM     11  C   UNL     1      -3.421   2.368  -0.756  0.00  0.00    -0.057 C 
ATOM     12  C   UNL     1      -4.159   0.603   0.841  0.00  0.00    +0.224 C 
ATOM     13  O   UNL     1      -5.290   0.298   0.531  0.00  0.00    -0.275 OA
ATOM     14  N   UNL     1      -3.239  -0.236   1.332  0.00  0.00    -0.241 N 
ATOM     15  C   UNL     1      -2.055   0.330   1.596  0.00  0.00    +0.225 C 
ATOM     16  O   UNL     1      -1.089  -0.245   2.049  0.00  0.00    -0.275 OA
ATOM     17  C   UNL     1      -0.014   1.209   0.009  0.00  0.00    +0.211 C 
ATOM     18  O   UNL     1       0.002  -0.004   0.002  0.00  0.00    -0.277 OA
ATOM     19  N   UNL     1       1.055   2.028   0.003  0.00  0.00    -0.286 N 
ATOM     20  C   UNL     1       2.967   4.425  -0.008  0.00  0.00    +0.045 C 
ATOM     21  H   UNL     1       1.974   1.718  -0.006  0.00  0.00    +0.155 HD
ATOM     22  N   UNL     1      -2.099   1.854  -1.124  0.00  0.00    +0.394 N 
ATOM     23  H   UNL     1      -2.152   0.849  -1.326  0.00  0.00    -0.083 HD
ATOM     24  H   UNL     1      -1.742   2.351  -1.948  0.00  0.00    -0.083 HD
ENDROOT
BRANCH  11  25
ATOM     25  C   UNL     1      -4.525   1.708  -1.584  0.00  0.00    -0.004 C 
BRANCH  25  26
ATOM     26  C   UNL     1      -4.389   2.134  -3.047  0.00  0.00    +0.067 C 
BRANCH  26  27
ATOM     27  S   UNL     1      -5.699   1.352  -4.029  0.00  0.00    -0.164 S 
ATOM     28  C   UNL     1      -5.401   1.950  -5.715  0.00  0.00    +0.084 C 
ENDBRANCH  26  27
ENDBRANCH  25  26
ENDBRANCH  11  25
BRANCH  14  29
ATOM     29  C   UNL     1      -3.505  -1.658   1.561  0.00  0.00    +0.121 C 
BRANCH  29  30
ATOM     30  C   UNL     1      -3.156  -2.452   0.301  0.00  0.00    +0.054 C 
BRANCH  30  31
ATOM     31  C   UNL     1      -3.430  -3.915   0.537  0.00  0.00    -0.046 A 
ATOM     32  C   UNL     1      -2.436  -4.732   1.041  0.00  0.00    +0.004 A 
ATOM     33  C   UNL     1      -2.689  -6.073   1.261  0.00  0.00    +0.000 A 
ATOM     34  C   UNL     1      -3.933  -6.599   0.969  0.00  0.00    +0.000 A 
ATOM     35  C   UNL     1      -4.926  -5.783   0.460  0.00  0.00    +0.000 A 
ATOM     36  C   UNL     1      -4.675  -4.441   0.244  0.00  0.00    +0.004 A 
ENDBRANCH  30  31
ENDBRANCH  29  30
ENDBRANCH  14  29
TORSDOF 6
