REMARK  Name = ZINC19935249
REMARK  3 active torsions:
REMARK  status: ('A' for Active; 'I' for Inactive)
REMARK    1  A    between atoms: C_1  and  C_2
REMARK    2  A    between atoms: C_7  and  C_10
REMARK    3  A    between atoms: C_7  and  N_12
REMARK                            x       y       z     vdW  Elec       q    Type
REMARK                         _______ _______ _______ _____ _____    ______ ____
ROOT
ATOM      1  C   UNL     1      -4.306  -4.368   1.311  0.00  0.00    +0.109 C 
ATOM      2  C   UNL     1      -4.293  -2.880   1.549  0.00  0.00    +0.212 C 
ATOM      3  O   UNL     1      -4.932  -2.407   2.465  0.00  0.00    -0.276 OA
ATOM      4  N   UNL     1      -3.570  -2.075   0.745  0.00  0.00    -0.302 N 
ATOM      5  C   UNL     1      -2.695  -2.642  -0.290  0.00  0.00    +0.110 C 
ATOM      6  C   UNL     1      -1.286  -2.069  -0.112  0.00  0.00    +0.056 C 
ATOM      7  C   UNL     1      -1.356  -0.540  -0.116  0.00  0.00    +0.112 C 
ATOM      8  C   UNL     1      -2.223  -0.065   1.052  0.00  0.00    +0.056 C 
ATOM      9  C   UNL     1      -3.643  -0.615   0.887  0.00  0.00    +0.110 C 
ENDROOT
BRANCH   7  10
ATOM     10  N   UNL     1      -0.002   0.013   0.021  0.00  0.00    -0.285 NA
ATOM     11  C   UNL     1      -0.031   1.481   0.021  0.00  0.00    +0.086 C 
ATOM     12  C   UNL     1       1.401   2.020   0.019  0.00  0.00    +0.015 C 
ATOM     13  C   UNL     1       2.137   1.506   1.259  0.00  0.00    +0.002 C 
ATOM     14  C   UNL     1       2.110  -0.025   1.261  0.00  0.00    +0.015 C 
ATOM     15  C   UNL     1       0.658  -0.505   1.227  0.00  0.00    +0.086 C 
ENDBRANCH   7  10
BRANCH   7  16
ATOM     16  C   UNL     1      -1.947  -0.080  -1.384  0.00  0.00    +0.085 C 
ATOM     17  N   UNL     1      -2.403   0.274  -2.362  0.00  0.00    -0.195 NA
ENDBRANCH   7  16
TORSDOF 2
