REMARK  Name = ZINC00283403
REMARK  5 active torsions:
REMARK  status: ('A' for Active; 'I' for Inactive)
REMARK    1  A    between atoms: C_1  and  C_2
REMARK    2  A    between atoms: N_4  and  C_5
REMARK    3  A    between atoms: C_8  and  C_11
REMARK    4  A    between atoms: C_13  and  C_24
REMARK    5  A    between atoms: C_14  and  N_23
REMARK                            x       y       z     vdW  Elec       q    Type
REMARK                         _______ _______ _______ _____ _____    ______ ____
ROOT
ATOM      1  C   UNL     1      -2.757   2.354   2.516  0.00  0.00    +0.101 C 
ATOM      2  C   UNL     1      -4.228   2.187   2.253  0.00  0.00    +0.098 C 
ATOM      3  C   UNL     1      -4.678   1.950   0.997  0.00  0.00    +0.198 C 
ATOM      4  O   UNL     1      -3.833   1.861  -0.042  0.00  0.00    -0.445 OA
ATOM      5  C   UNL     1      -2.537   1.569   0.172  0.00  0.00    +0.115 C 
ATOM      6  C   UNL     1      -1.958   1.787   1.368  0.00  0.00    +0.046 C 
ATOM      7  C   UNL     1      -0.595   1.500   1.587  0.00  0.00    +0.163 C 
ATOM      8  O   UNL     1      -0.110   1.692   2.684  0.00  0.00    -0.292 OA
ATOM      9  C   UNL     1       0.272   0.958   0.482  0.00  0.00    +0.080 C 
ATOM     10  C   UNL     1      -0.282   1.436  -0.865  0.00  0.00    +0.016 C 
ATOM     11  C   UNL     1      -1.741   0.990  -0.974  0.00  0.00    +0.075 C 
ENDROOT
BRANCH   1  15
ATOM     12  C   UNL     1      -1.857   6.508   2.956  0.00  0.00    +0.033 A 
ATOM     13  C   UNL     1      -1.600   5.627   3.997  0.00  0.00    +0.023 A 
ATOM     14  C   UNL     1      -1.892   4.285   3.852  0.00  0.00    +0.006 A 
ATOM     15  C   UNL     1      -2.440   3.819   2.671  0.00  0.00    -0.034 A 
ATOM     16  C   UNL     1      -2.693   4.693   1.630  0.00  0.00    +0.006 A 
ATOM     17  C   UNL     1      -2.408   6.037   1.771  0.00  0.00    +0.023 A 
BRANCH  12  21
ATOM     18  C   UNL     1      -0.254   9.718   4.093  0.00  0.00    +0.109 C 
ATOM     19  C   UNL     1      -0.504   8.254   3.840  0.00  0.00    +0.214 C 
ATOM     20  O   UNL     1       0.248   7.422   4.303  0.00  0.00    -0.276 OA
ATOM     21  N   UNL     1      -1.562   7.869   3.099  0.00  0.00    -0.286 N 
ATOM     22  H   UNL     1      -2.119   8.534   2.666  0.00  0.00    +0.155 HD
ENDBRANCH  12  21
ENDBRANCH   1  15
BRANCH   3  23
ATOM     23  N   UNL     1      -6.025   1.799   0.783  0.00  0.00    -0.328 N 
ATOM     24  H   UNL     1      -6.358   1.629  -0.112  0.00  0.00    +0.145 HD
ATOM     25  H   UNL     1      -6.645   1.861   1.527  0.00  0.00    +0.145 HD
ENDBRANCH   3  23
BRANCH   2  26
ATOM     26  C   UNL     1      -5.160   2.280   3.337  0.00  0.00    +0.101 C 
ATOM     27  N   UNL     1      -5.899   2.353   4.197  0.00  0.00    -0.191 NA
ENDBRANCH   2  26
TORSDOF 4
