REMARK  Name = ZINC19688003
REMARK  6 active torsions:
REMARK  status: ('A' for Active; 'I' for Inactive)
REMARK    1  A    between atoms: N_6  and  C_7
REMARK    2  A    between atoms: C_7  and  C_9
REMARK    3  A    between atoms: C_9  and  N_10
REMARK    4  A    between atoms: C_16  and  C_18
REMARK    5  A    between atoms: C_18  and  C_19
REMARK    6  A    between atoms: C_19  and  N_20
REMARK                            x       y       z     vdW  Elec       q    Type
REMARK                         _______ _______ _______ _____ _____    ______ ____
ROOT
ATOM      1  N   UNL     1      -0.574  -5.029  -0.021  0.00  0.00    -0.291 NA
ATOM      2  C   UNL     1      -1.300  -4.808   1.237  0.00  0.00    +0.104 C 
ATOM      3  C   UNL     1      -2.695  -5.433   1.135  0.00  0.00    +0.123 C 
ATOM      4  N   UNL     1      -2.547  -6.843   0.741  0.00  0.00    -0.299 N 
ATOM      5  C   UNL     1      -1.718  -7.154  -0.433  0.00  0.00    +0.123 C 
ATOM      6  C   UNL     1      -0.362  -6.461  -0.269  0.00  0.00    +0.104 C 
ATOM      7  C   UNL     1      -3.155  -7.823   1.438  0.00  0.00    +0.214 C 
ATOM      8  O   UNL     1      -3.836  -7.548   2.404  0.00  0.00    -0.276 OA
ENDROOT
BRANCH   1   9
ATOM      9  C   UNL     1       0.701  -4.298  -0.029  0.00  0.00    +0.182 C 
BRANCH   9  10
ATOM     10  C   UNL     1       0.430  -2.816  -0.018  0.00  0.00    +0.252 C 
ATOM     11  O   UNL     1      -0.715  -2.407  -0.005  0.00  0.00    -0.272 OA
BRANCH  10  17
ATOM     12  C   UNL     1      -0.016   1.356   0.009  0.00  0.00    +0.092 A 
ATOM     13  C   UNL     1       1.164   1.985   0.002  0.00  0.00    +0.066 A 
ATOM     14  S   UNL     1       2.311   0.620  -0.017  0.00  0.00    -0.061 S 
ATOM     15  C   UNL     1       1.202  -0.644  -0.013  0.00  0.00    +0.163 A 
ATOM     16  N   UNL     1       0.002  -0.004   0.002  0.00  0.00    -0.342 N 
ATOM     17  N   UNL     1       1.442  -1.957  -0.023  0.00  0.00    -0.156 NA
ATOM     18  H   UNL     1      -0.826  -0.509   0.007  0.00  0.00    +0.167 HD
ENDBRANCH  10  17
ENDBRANCH   9  10
ENDBRANCH   1   9
BRANCH   7  19
ATOM     19  C   UNL     1      -2.991  -9.261   1.017  0.00  0.00    +0.076 C 
BRANCH  19  20
ATOM     20  C   UNL     1      -3.778 -10.164   1.968  0.00  0.00    -0.077 C 
BRANCH  20  21
ATOM     21  N   UNL     1      -3.617 -11.565   1.558  0.00  0.00    +0.378 N 
ATOM     22  H   UNL     1      -3.965 -11.682   0.618  0.00  0.00    -0.090 HD
ATOM     23  H   UNL     1      -2.640 -11.815   1.589  0.00  0.00    -0.090 HD
ATOM     24  H   UNL     1      -4.136 -12.161   2.185  0.00  0.00    -0.090 HD
ENDBRANCH  20  21
ENDBRANCH  19  20
ENDBRANCH   7  19
TORSDOF 6
