REMARK  Name = ZINC67409011
REMARK  13 active torsions:
REMARK  status: ('A' for Active; 'I' for Inactive)
REMARK    1  A    between atoms: C_1  and  C_2
REMARK    2  A    between atoms: C_2  and  C_4
REMARK    3  A    between atoms: C_2  and  N_12
REMARK    4  A    between atoms: C_4  and  C_5
REMARK    5  A    between atoms: C_8  and  O_11
REMARK    6  A    between atoms: N_15  and  C_16
REMARK    7  A    between atoms: C_16  and  C_17
REMARK    8  A    between atoms: C_21  and  C_23
REMARK    9  A    between atoms: N_25  and  C_26
REMARK   10  A    between atoms: C_26  and  C_27
REMARK   11  A    between atoms: C_27  and  N_28
REMARK   12  A    between atoms: N_28  and  C_29
REMARK   13  A    between atoms: N_28  and  C_30
REMARK                            x       y       z     vdW  Elec       q    Type
REMARK                         _______ _______ _______ _____ _____    ______ ____
ROOT
ATOM      1  N   UNL     1       0.711  -0.489   1.189  0.00  0.00    -0.297 N 
ATOM      2  C   UNL     1       2.054  -0.600   1.174  0.00  0.00    +0.300 C 
ATOM      3  O   UNL     1       2.677  -0.297   0.175  0.00  0.00    -0.253 OA
ATOM      4  N   UNL     1       2.706  -1.046   2.266  0.00  0.00    -0.295 N 
ATOM      5  H   UNL     1       0.213  -0.731   1.986  0.00  0.00    +0.151 HD
ATOM      6  H   UNL     1       2.208  -1.288   3.062  0.00  0.00    +0.151 HD
ENDROOT
BRANCH   1   8
ATOM      7  C   UNL     1      -0.019   1.526   0.010  0.00  0.00    +0.028 C 
ATOM      8  C   UNL     1       0.002  -0.004   0.002  0.00  0.00    +0.076 C 
BRANCH   8   9
ATOM      9  C   UNL     1      -1.433  -0.534   0.013  0.00  0.00    +0.057 C 
BRANCH   9  10
ATOM     10  C   UNL     1      -1.416  -2.035  -0.119  0.00  0.00    -0.045 A 
ATOM     11  C   UNL     1      -1.450  -2.618  -1.373  0.00  0.00    +0.007 A 
ATOM     12  C   UNL     1      -1.434  -3.994  -1.496  0.00  0.00    +0.045 A 
ATOM     13  C   UNL     1      -1.385  -4.790  -0.362  0.00  0.00    +0.117 A 
ATOM     14  C   UNL     1      -1.350  -4.203   0.895  0.00  0.00    +0.045 A 
ATOM     15  C   UNL     1      -1.360  -2.827   1.013  0.00  0.00    +0.007 A 
BRANCH  13  16
ATOM     16  O   UNL     1      -1.370  -6.144  -0.481  0.00  0.00    -0.507 OA
ATOM     17  H   UNL     1      -0.483  -6.524  -0.545  0.00  0.00    +0.292 HD
ENDBRANCH  13  16
ENDBRANCH   9  10
ENDBRANCH   8   9
ENDBRANCH   1   8
BRANCH   4  18
ATOM     18  C   UNL     1       4.166  -1.166   2.249  0.00  0.00    +0.141 C 
BRANCH  18  19
ATOM     19  C   UNL     1       4.642  -1.684   3.582  0.00  0.00    -0.030 A 
ATOM     20  C   UNL     1       4.952  -0.795   4.596  0.00  0.00    +0.005 A 
ATOM     21  C   UNL     1       5.390  -1.262   5.823  0.00  0.00    +0.001 A 
ATOM     22  C   UNL     1       5.521  -2.618   6.042  0.00  0.00    +0.013 A 
ATOM     23  C   UNL     1       5.210  -3.519   5.023  0.00  0.00    +0.037 A 
ATOM     24  C   UNL     1       4.763  -3.042   3.789  0.00  0.00    +0.018 A 
BRANCH  23  25
ATOM     25  C   UNL     1       5.348  -4.974   5.250  0.00  0.00    +0.244 C 
ATOM     26  O   UNL     1       5.076  -5.756   4.361  0.00  0.00    -0.270 OA
ATOM     27  N   UNL     1       5.775  -5.432   6.444  0.00  0.00    -0.313 N 
ATOM     28  H   UNL     1       5.992  -4.807   7.154  0.00  0.00    +0.149 HD
BRANCH  27  29
ATOM     29  C   UNL     1       5.912  -6.873   6.669  0.00  0.00    +0.086 C 
BRANCH  29  30
ATOM     30  C   UNL     1       6.409  -7.121   8.094  0.00  0.00    -0.061 C 
BRANCH  30  31
ATOM     31  N   UNL     1       6.547  -8.566   8.320  0.00  0.00    +0.377 N 
ATOM     32  C   UNL     1       7.137  -8.801   9.645  0.00  0.00    -0.097 C 
ATOM     33  C   UNL     1       5.223  -9.200   8.255  0.00  0.00    -0.097 C 
ATOM     34  H   UNL     1       7.145  -8.962   7.611  0.00  0.00    -0.083 HD
ENDBRANCH  30  31
ENDBRANCH  29  30
ENDBRANCH  27  29
ENDBRANCH  23  25
ENDBRANCH  18  19
ENDBRANCH   4  18
TORSDOF 10
