REMARK  Name = ZINC02246521
REMARK  12 active torsions:
REMARK  status: ('A' for Active; 'I' for Inactive)
REMARK    1  A    between atoms: C_1  and  C_2
REMARK    2  A    between atoms: C_2  and  N_60
REMARK    3  A    between atoms: C_3  and  C_4
REMARK    4  A    between atoms: C_3  and  N_60
REMARK    5  A    between atoms: C_5  and  C_6
REMARK    6  A    between atoms: C_5  and  N_60
REMARK    7  A    between atoms: C_6  and  C_7
REMARK    8  A    between atoms: C_7  and  N_8
REMARK    9  A    between atoms: C_9  and  C_32
REMARK   10  A    between atoms: C_15  and  C_23
REMARK   11  A    between atoms: C_17  and  C_21
REMARK   12  A    between atoms: C_18  and  N_20
REMARK                            x       y       z     vdW  Elec       q    Type
REMARK                         _______ _______ _______ _____ _____    ______ ____
ROOT
ATOM      1  N   UNL     1       1.012   4.150  -3.289  0.00  0.00    -0.312 N 
ATOM      2  C   UNL     1       2.214   4.307  -2.675  0.00  0.00    +0.022 A 
ATOM      3  C   UNL     1       2.432   3.808  -1.440  0.00  0.00    +0.068 A 
ATOM      4  C   UNL     1       1.402   3.112  -0.773  0.00  0.00    +0.141 A 
ATOM      5  C   UNL     1       0.185   2.957  -1.403  0.00  0.00    +0.072 A 
ATOM      6  C   UNL     1       0.005   3.493  -2.685  0.00  0.00    +0.259 A 
ATOM      7  O   UNL     1      -1.067   3.363  -3.255  0.00  0.00    -0.267 OA
ATOM      8  C   UNL     1      -0.941   2.222  -0.729  0.00  0.00    +0.103 C 
ATOM      9  C   UNL     1      -0.667   2.093   0.743  0.00  0.00    +0.098 C 
ATOM     10  C   UNL     1       0.574   2.292   1.247  0.00  0.00    +0.199 C 
ATOM     11  O   UNL     1       1.617   2.612   0.462  0.00  0.00    -0.441 OA
ATOM     12  C   UNL     1       3.318   5.050  -3.381  0.00  0.00    +0.064 C 
ENDROOT
BRANCH   8  13
ATOM     13  C   UNL     1      -1.074   0.849  -1.335  0.00  0.00    -0.031 A 
ATOM     14  C   UNL     1      -0.019  -0.042  -1.265  0.00  0.00    +0.008 A 
ATOM     15  C   UNL     1      -0.136  -1.302  -1.820  0.00  0.00    +0.050 A 
ATOM     16  C   UNL     1      -1.313  -1.677  -2.446  0.00  0.00    +0.166 A 
ATOM     17  C   UNL     1      -2.377  -0.781  -2.516  0.00  0.00    +0.167 A 
ATOM     18  C   UNL     1      -2.252   0.481  -1.959  0.00  0.00    +0.054 A 
ATOM     19  O   UNL     1      -3.410  -1.381  -3.176  0.00  0.00    -0.453 OA
ATOM     20  C   UNL     1      -3.117  -2.790  -3.150  0.00  0.00    +0.466 C 
ATOM     21  O   UNL     1      -1.680  -2.839  -3.062  0.00  0.00    -0.453 OA
ENDBRANCH   8  13
BRANCH  10  22
ATOM     22  N   UNL     1       0.772   2.162   2.599  0.00  0.00    -0.328 N 
ATOM     23  H   UNL     1       0.029   1.932   3.179  0.00  0.00    +0.145 HD
ATOM     24  H   UNL     1       1.656   2.301   2.975  0.00  0.00    +0.145 HD
ENDBRANCH  10  22
BRANCH   9  25
ATOM     25  C   UNL     1      -1.739   1.754   1.630  0.00  0.00    +0.101 C 
ATOM     26  N   UNL     1      -2.590   1.485   2.333  0.00  0.00    -0.191 NA
ENDBRANCH   9  25
BRANCH   1  27
ATOM     27  C   UNL     1       0.809   4.706  -4.629  0.00  0.00    +0.123 C 
BRANCH  27  28
ATOM     28  C   UNL     1       1.126   3.637  -5.677  0.00  0.00    +0.003 C 
BRANCH  28  29
ATOM     29  C   UNL     1       0.914   4.217  -7.077  0.00  0.00    -0.077 C 
BRANCH  29  30
ATOM     30  N   UNL     1       1.244   3.180  -8.078  0.00  0.00    +0.379 N 
ATOM     31  H   UNL     1       2.176   2.801  -7.870  0.00  0.00    -0.082 HD
BRANCH  30  33
ATOM     32  C   UNL     1      -1.163   2.630  -8.194  0.00  0.00    -0.017 C 
ATOM     33  C   UNL     1       0.255   2.084  -8.014  0.00  0.00    -0.082 C 
ENDBRANCH  30  33
BRANCH  30  34
ATOM     34  C   UNL     1       1.257   3.772  -9.432  0.00  0.00    -0.082 C 
ATOM     35  C   UNL     1       1.956   2.800 -10.386  0.00  0.00    -0.017 C 
ENDBRANCH  30  34
ENDBRANCH  29  30
ENDBRANCH  28  29
ENDBRANCH  27  28
ENDBRANCH   1  27
TORSDOF 9
