REMARK  Name = ZINC47877079
REMARK  13 active torsions:
REMARK  status: ('A' for Active; 'I' for Inactive)
REMARK    1  A    between atoms: C_1  and  C_2
REMARK    2  A    between atoms: C_2  and  C_3
REMARK    3  A    between atoms: C_6  and  C_9
REMARK    4  A    between atoms: C_9  and  C_11
REMARK    5  A    between atoms: C_9  and  N_28
REMARK    6  A    between atoms: C_11  and  N_12
REMARK    7  A    between atoms: N_15  and  C_16
REMARK    8  A    between atoms: C_21  and  O_22
REMARK    9  A    between atoms: O_22  and  C_23
REMARK   10  A    between atoms: C_23  and  C_24
REMARK   11  A    between atoms: C_24  and  C_25
REMARK   12  A    between atoms: N_28  and  C_29
REMARK   13  A    between atoms: N_28  and  C_30
REMARK                            x       y       z     vdW  Elec       q    Type
REMARK                         _______ _______ _______ _____ _____    ______ ____
ROOT
ATOM      1  N   UNL     1       4.081  -1.640  -6.581  0.00  0.00    -0.300 N 
ATOM      2  C   UNL     1       4.882  -0.919  -7.390  0.00  0.00    +0.304 C 
ATOM      3  O   UNL     1       4.985   0.282  -7.231  0.00  0.00    -0.253 OA
ATOM      4  N   UNL     1       5.569  -1.529  -8.376  0.00  0.00    -0.266 N 
ATOM      5  H   UNL     1       3.999  -2.598  -6.708  0.00  0.00    +0.150 HD
ATOM      6  H   UNL     1       5.542  -2.495  -8.460  0.00  0.00    +0.156 HD
ENDROOT
BRANCH   4   7
ATOM      7  C   UNL     1       6.322  -0.768  -9.281  0.00  0.00    +0.077 A 
ATOM      8  C   UNL     1       6.953   0.393  -8.857  0.00  0.00    +0.027 A 
ATOM      9  C   UNL     1       7.695   1.141  -9.750  0.00  0.00    +0.002 A 
ATOM     10  C   UNL     1       7.811   0.737 -11.067  0.00  0.00    +0.004 A 
ATOM     11  C   UNL     1       7.185  -0.418 -11.497  0.00  0.00    +0.047 A 
ATOM     12  C   UNL     1       6.444  -1.178 -10.606  0.00  0.00    +0.142 A 
BRANCH  12  13
ATOM     13  O   UNL     1       5.833  -2.317 -11.026  0.00  0.00    -0.490 OA
BRANCH  13  14
ATOM     14  C   UNL     1       6.002  -2.676 -12.399  0.00  0.00    +0.238 C 
BRANCH  14  15
ATOM     15  C   UNL     1       5.247  -3.977 -12.683  0.00  0.00    +0.136 C 
BRANCH  15  16
ATOM     16  C   UNL     1       5.426  -4.355 -14.131  0.00  0.00    +0.214 C 
ATOM     17  O   UNL     1       6.090  -3.653 -14.864  0.00  0.00    -0.276 OA
ATOM     18  N   UNL     1       4.846  -5.473 -14.612  0.00  0.00    -0.329 N 
ATOM     19  H   UNL     1       4.314  -6.034 -14.026  0.00  0.00    +0.145 HD
ATOM     20  H   UNL     1       4.960  -5.716 -15.544  0.00  0.00    +0.145 HD
ENDBRANCH  15  16
ENDBRANCH  14  15
ENDBRANCH  13  14
ENDBRANCH  12  13
ENDBRANCH   4   7
BRANCH   1  21
ATOM     21  C   UNL     1       3.334  -0.977  -5.509  0.00  0.00    +0.095 C 
BRANCH  21  22
ATOM     22  C   UNL     1       2.605  -2.027  -4.670  0.00  0.00    -0.021 C 
BRANCH  22  26
ATOM     23  C   UNL     1      -0.282  -4.037  -7.093  0.00  0.00    -0.048 A 
ATOM     24  C   UNL     1       0.940  -4.630  -6.839  0.00  0.00    +0.004 A 
ATOM     25  C   UNL     1       1.875  -3.980  -6.055  0.00  0.00    +0.002 A 
ATOM     26  C   UNL     1       1.587  -2.736  -5.525  0.00  0.00    -0.059 A 
ATOM     27  C   UNL     1       0.365  -2.142  -5.780  0.00  0.00    +0.002 A 
ATOM     28  C   UNL     1      -0.568  -2.791  -6.567  0.00  0.00    +0.004 A 
BRANCH  23  30
ATOM     29  C   UNL     1      -1.092  -4.362  -9.414  0.00  0.00    +0.009 C 
ATOM     30  C   UNL     1      -1.301  -4.746  -7.948  0.00  0.00    +0.032 C 
ENDBRANCH  23  30
ENDBRANCH  22  26
BRANCH  22  31
ATOM     31  N   UNL     1       1.927  -1.371  -3.544  0.00  0.00    +0.382 N 
ATOM     32  C   UNL     1       1.303  -2.388  -2.688  0.00  0.00    -0.096 C 
ATOM     33  C   UNL     1       2.907  -0.606  -2.761  0.00  0.00    -0.096 C 
ATOM     34  H   UNL     1       1.217  -0.747  -3.897  0.00  0.00    -0.082 HD
ENDBRANCH  22  31
ENDBRANCH  21  22
ENDBRANCH   1  21
TORSDOF 10
