REMARK  Name = ZINC64160313
REMARK  3 active torsions:
REMARK  status: ('A' for Active; 'I' for Inactive)
REMARK    1  A    between atoms: C_1  and  C_2
REMARK    2  A    between atoms: C_6  and  C_8
REMARK    3  A    between atoms: N_10  and  C_11
REMARK                            x       y       z     vdW  Elec       q    Type
REMARK                         _______ _______ _______ _____ _____    ______ ____
ROOT
ATOM      1  C   UNL     1       1.275  -0.687   2.013  0.00  0.00    +0.246 C 
ATOM      2  O   UNL     1       2.223  -1.435   1.904  0.00  0.00    -0.273 OA
ATOM      3  N   UNL     1       1.332   0.352   2.870  0.00  0.00    -0.282 N 
ATOM      4  H   UNL     1       0.600   0.988   2.911  0.00  0.00    +0.155 HD
ENDROOT
BRANCH   1  10
ATOM      5  C   UNL     1       0.003   1.517   0.006  0.00  0.00    +0.042 C 
ATOM      6  C   UNL     1       0.019   0.010  -0.008  0.00  0.00    -0.028 C 
ATOM      7  C   UNL     1       0.031  -0.789  -1.080  0.00  0.00    +0.040 C 
ATOM      8  C   UNL     1       0.026  -2.209  -0.642  0.00  0.00    +0.048 C 
ATOM      9  N   UNL     1       0.033  -2.280   0.640  0.00  0.00    -0.270 NA
ATOM     10  C   UNL     1       0.033  -0.918   1.190  0.00  0.00    +0.218 C 
ATOM     11  C   UNL     1      -0.010  -3.344  -1.636  0.00  0.00    +0.056 C 
ATOM     12  C   UNL     1       0.447  -2.880  -3.006  0.00  0.00    +0.014 C 
ATOM     13  C   UNL     1      -0.170  -1.585  -3.485  0.00  0.00    +0.080 C 
ATOM     14  C   UNL     1       0.056  -0.449  -2.517  0.00  0.00    +0.165 C 
ATOM     15  O   UNL     1       0.247   0.685  -2.900  0.00  0.00    -0.292 OA
ENDBRANCH   1  10
BRANCH   3  16
ATOM     16  C   UNL     1       2.447   0.513   3.703  0.00  0.00    +0.056 A 
ATOM     17  C   UNL     1       3.710   0.159   3.248  0.00  0.00    +0.074 A 
ATOM     18  C   UNL     1       4.812   0.318   4.071  0.00  0.00    +0.168 A 
ATOM     19  C   UNL     1       4.652   0.833   5.355  0.00  0.00    +0.168 A 
ATOM     20  C   UNL     1       3.390   1.185   5.807  0.00  0.00    +0.071 A 
ATOM     21  C   UNL     1       2.290   1.032   4.982  0.00  0.00    +0.066 A 
ATOM     22 CL   UNL     1       0.712   1.481   5.548  0.00  0.00    -0.082 Cl
ATOM     23  O   UNL     1       5.876   0.891   5.958  0.00  0.00    -0.453 OA
ATOM     24  C   UNL     1       6.727   0.027   5.183  0.00  0.00    +0.466 C 
ATOM     25  O   UNL     1       6.136   0.053   3.870  0.00  0.00    -0.453 OA
ENDBRANCH   3  16
TORSDOF 2
