REMARK  Name = ZINC03612854
REMARK  10 active torsions:
REMARK  status: ('A' for Active; 'I' for Inactive)
REMARK    1  A    between atoms: C_5  and  C_7
REMARK    2  A    between atoms: C_7  and  O_8
REMARK    3  A    between atoms: O_8  and  C_9
REMARK    4  A    between atoms: C_14  and  C_15
REMARK    5  A    between atoms: C_15  and  N_51
REMARK    6  A    between atoms: C_16  and  C_17
REMARK    7  A    between atoms: C_16  and  N_51
REMARK    8  A    between atoms: C_17  and  C_18
REMARK    9  A    between atoms: C_21  and  S_24
REMARK   10  A    between atoms: S_24  and  N_27
REMARK                            x       y       z     vdW  Elec       q    Type
REMARK                         _______ _______ _______ _____ _____    ______ ____
ROOT
ATOM      1  C   UNL     1      -2.553   3.879   0.047  0.00  0.00    -0.043 C 
ENDROOT
BRANCH   1   7
ATOM      2  C   UNL     1      -1.223   1.754   0.017  0.00  0.00    +0.122 A 
ATOM      3  C   UNL     1      -0.013   1.076   0.008  0.00  0.00    +0.047 A 
ATOM      4  C   UNL     1       1.174   1.783   0.000  0.00  0.00    +0.019 A 
ATOM      5  C   UNL     1       1.156   3.167   0.008  0.00  0.00    +0.018 A 
ATOM      6  C   UNL     1      -0.050   3.844   0.024  0.00  0.00    +0.020 A 
ATOM      7  C   UNL     1      -1.239   3.140   0.031  0.00  0.00    -0.022 A 
ATOM      8 BR   UNL     1       2.781   4.132  -0.002  0.00  0.00    -0.050 Br
BRANCH   2   9
ATOM      9  O   UNL     1      -2.392   1.060   0.019  0.00  0.00    -0.487 OA
BRANCH   9  10
ATOM     10  C   UNL     1      -2.299  -0.366   0.011  0.00  0.00    +0.267 C 
BRANCH  10  15
ATOM     11  C   UNL     1      -6.062  -0.675   0.027  0.00  0.00    +0.001 A 
ATOM     12  C   UNL     1      -6.228  -2.048   0.020  0.00  0.00    +0.003 A 
ATOM     13  C   UNL     1      -5.123  -2.878   0.010  0.00  0.00    +0.039 A 
ATOM     14  C   UNL     1      -3.849  -2.334   0.007  0.00  0.00    +0.130 A 
ATOM     15  C   UNL     1      -3.685  -0.960   0.014  0.00  0.00    +0.025 A 
ATOM     16  C   UNL     1      -4.791  -0.132   0.029  0.00  0.00    +0.010 A 
ATOM     17  F   UNL     1      -2.768  -3.144  -0.002  0.00  0.00    -0.205 F 
ENDBRANCH  10  15
ENDBRANCH   9  10
ENDBRANCH   2   9
ENDBRANCH   1   7
BRANCH   1  18
ATOM     18  N   UNL     1      -3.080   3.897   1.425  0.00  0.00    +0.382 N 
ATOM     19  H   UNL     1      -2.406   4.370   2.039  0.00  0.00    -0.085 HD
ATOM     20  H   UNL     1      -3.218   2.933   1.747  0.00  0.00    -0.085 HD
BRANCH  18  21
ATOM     21  C   UNL     1      -4.367   4.616   1.471  0.00  0.00    -0.077 C 
BRANCH  21  22
ATOM     22  C   UNL     1      -4.888   4.618   2.910  0.00  0.00    +0.016 C 
BRANCH  22  23
ATOM     23  C   UNL     1      -6.204   5.351   2.966  0.00  0.00    -0.049 A 
ATOM     24  C   UNL     1      -6.228   6.712   3.205  0.00  0.00    +0.005 A 
ATOM     25  C   UNL     1      -7.435   7.384   3.253  0.00  0.00    +0.029 A 
ATOM     26  C   UNL     1      -8.619   6.694   3.069  0.00  0.00    +0.105 A 
ATOM     27  C   UNL     1      -8.595   5.332   2.835  0.00  0.00    +0.029 A 
ATOM     28  C   UNL     1      -7.388   4.660   2.783  0.00  0.00    +0.005 A 
BRANCH  26  29
ATOM     29  S   UNL     1     -10.157   7.550   3.134  0.00  0.00    +0.056 S 
ATOM     30  O   UNL     1      -9.879   8.909   2.824  0.00  0.00    -0.153 OA
ATOM     31  O   UNL     1     -11.086   6.774   2.389  0.00  0.00    -0.153 OA
BRANCH  29  32
ATOM     32  N   UNL     1     -10.670   7.519   4.708  0.00  0.00    -0.204 NA
ATOM     33  H   UNL     1     -11.211   8.244   5.056  0.00  0.00    +0.144 HD
ATOM     34  H   UNL     1     -10.428   6.775   5.282  0.00  0.00    +0.144 HD
ENDBRANCH  29  32
ENDBRANCH  26  29
ENDBRANCH  22  23
ENDBRANCH  21  22
ENDBRANCH  18  21
ENDBRANCH   1  18
TORSDOF 10
