REMARK  Name = ZINC08872723
REMARK  5 active torsions:
REMARK  status: ('A' for Active; 'I' for Inactive)
REMARK    1  A    between atoms: C_1  and  N_59
REMARK    2  A    between atoms: N_13  and  N_14
REMARK    3  A    between atoms: C_15  and  C_16
REMARK    4  A    between atoms: N_26  and  C_27
REMARK    5  A    between atoms: C_30  and  N_33
REMARK                            x       y       z     vdW  Elec       q    Type
REMARK                         _______ _______ _______ _____ _____    ______ ____
ROOT
ATOM      1  C   UNL     1     -11.852  -2.055   0.254  0.00  0.00    -0.096 C 
ATOM      2  C   UNL     1     -10.048  -2.050   1.870  0.00  0.00    -0.060 C 
ATOM      3  C   UNL     1      -8.551  -1.786   2.049  0.00  0.00    +0.089 C 
ATOM      4  N   UNL     1      -7.788  -2.715   1.203  0.00  0.00    -0.303 N 
ATOM      5  C   UNL     1      -8.147  -2.549  -0.212  0.00  0.00    +0.089 C 
ATOM      6  C   UNL     1      -9.644  -2.813  -0.391  0.00  0.00    -0.060 C 
ATOM      7  C   UNL     1      -6.431  -2.554   1.392  0.00  0.00    +0.224 A 
ATOM      8  N   UNL     1      -5.571  -3.308   0.714  0.00  0.00    -0.181 NA
ATOM      9  C   UNL     1      -4.264  -3.153   0.896  0.00  0.00    +0.225 A 
ATOM     10  N   UNL     1      -3.816  -2.241   1.753  0.00  0.00    -0.179 NA
ATOM     11  C   UNL     1      -4.675  -1.491   2.435  0.00  0.00    +0.241 A 
ATOM     12  N   UNL     1      -5.982  -1.646   2.253  0.00  0.00    -0.180 NA
ATOM     13  N   UNL     1      -4.208  -0.545   3.331  0.00  0.00    -0.205 N 
ATOM     14  N   UNL     1      -3.371  -3.936   0.191  0.00  0.00    -0.283 N 
ATOM     15  H   UNL     1      -3.261  -0.341   3.372  0.00  0.00    +0.177 HD
ATOM     16  H   UNL     1      -3.696  -4.654  -0.374  0.00  0.00    +0.155 HD
ATOM     17  N   UNL     1     -10.399  -1.859   0.447  0.00  0.00    +0.380 N 
ATOM     18  H   UNL     1     -10.152  -0.902   0.168  0.00  0.00    -0.082 HD
ENDROOT
BRANCH  14  19
ATOM     19  C   UNL     1      -1.997  -3.694   0.292  0.00  0.00    +0.034 A 
ATOM     20  C   UNL     1      -1.532  -2.401   0.494  0.00  0.00    +0.025 A 
ATOM     21  C   UNL     1      -0.175  -2.166   0.599  0.00  0.00    +0.034 A 
ATOM     22  C   UNL     1       0.721  -3.214   0.491  0.00  0.00    +0.126 A 
ATOM     23  C   UNL     1       0.261  -4.502   0.284  0.00  0.00    +0.034 A 
ATOM     24  C   UNL     1      -1.095  -4.745   0.184  0.00  0.00    +0.025 A 
BRANCH  22  25
ATOM     25  N   UNL     1       2.174  -2.957   0.597  0.00  0.00    +0.056 N 
ATOM     26  O   UNL     1       3.033  -3.935   0.391  0.00  0.00    -0.126 OA
ATOM     27  O   UNL     1       2.610  -1.751   0.898  0.00  0.00    -0.126 OA
ENDBRANCH  22  25
ENDBRANCH  14  19
BRANCH  13  28
ATOM     28  N   UNL     1      -5.033   0.066   4.113  0.00  0.00    -0.187 NA
ATOM     29  C   UNL     1      -4.580   0.975   4.987  0.00  0.00    +0.140 C 
BRANCH  29  30
ATOM     30  C   UNL     1      -5.462   1.610   5.846  0.00  0.00    +0.020 A 
ATOM     31  C   UNL     1      -5.138   2.571   6.922  0.00  0.00    +0.093 A 
ATOM     32  N   UNL     1      -6.269   2.934   7.506  0.00  0.00    -0.360 N 
ATOM     33  H   UNL     1      -6.323   3.557   8.247  0.00  0.00    +0.165 HD
ATOM     34  C   UNL     1      -7.370   2.311   6.926  0.00  0.00    +0.047 A 
ATOM     35  C   UNL     1      -6.931   1.478   5.885  0.00  0.00    +0.008 A 
ATOM     36  C   UNL     1      -7.847   0.737   5.141  0.00  0.00    +0.010 A 
ATOM     37  C   UNL     1      -9.197   0.825   5.432  0.00  0.00    +0.001 A 
ATOM     38  C   UNL     1      -9.632   1.645   6.457  0.00  0.00    +0.002 A 
ATOM     39  C   UNL     1      -8.726   2.386   7.203  0.00  0.00    +0.026 A 
ENDBRANCH  29  30
ENDBRANCH  13  28
TORSDOF 4
