REMARK  Name = ZINC00977724
REMARK  8 active torsions:
REMARK  status: ('A' for Active; 'I' for Inactive)
REMARK    1  A    between atoms: C_1  and  O_2
REMARK    2  A    between atoms: O_2  and  C_3
REMARK    3  A    between atoms: C_3  and  C_5
REMARK    4  A    between atoms: C_5  and  N_37
REMARK    5  A    between atoms: C_6  and  C_8
REMARK    6  A    between atoms: C_6  and  C_15
REMARK    7  A    between atoms: C_6  and  N_37
REMARK    8  A    between atoms: C_20  and  N_21
REMARK                            x       y       z     vdW  Elec       q    Type
REMARK                         _______ _______ _______ _____ _____    ______ ____
ROOT
ATOM      1  C   UNL     1       1.212  -2.150   0.033  0.00  0.00    -0.006 C 
ENDROOT
BRANCH   1   2
ATOM      2  C   UNL     1       0.817  -0.696   0.058  0.00  0.00    -0.039 A 
ATOM      3  C   UNL     1       1.764   0.273   0.331  0.00  0.00    +0.004 A 
ATOM      4  C   UNL     1       1.402   1.607   0.354  0.00  0.00    +0.000 A 
ATOM      5  C   UNL     1       0.092   1.972   0.103  0.00  0.00    +0.001 A 
ATOM      6  C   UNL     1      -0.856   1.004  -0.169  0.00  0.00    +0.020 A 
ATOM      7  C   UNL     1      -0.494  -0.331  -0.192  0.00  0.00    +0.043 A 
ATOM      8 CL   UNL     1      -1.684  -1.548  -0.534  0.00  0.00    -0.083 Cl
ENDBRANCH   1   2
BRANCH   1   9
ATOM      9  C   UNL     1       1.007  -2.750   1.400  0.00  0.00    -0.035 A 
ATOM     10  C   UNL     1       1.846  -2.403   2.441  0.00  0.00    +0.019 A 
ATOM     11  C   UNL     1       1.654  -2.949   3.698  0.00  0.00    +0.018 A 
ATOM     12  C   UNL     1       0.629  -3.853   3.913  0.00  0.00    +0.017 A 
ATOM     13  C   UNL     1      -0.210  -4.208   2.875  0.00  0.00    +0.024 A 
ATOM     14  C   UNL     1      -0.023  -3.657   1.614  0.00  0.00    +0.027 A 
ATOM     15 BR   UNL     1       2.801  -2.465   5.122  0.00  0.00    -0.050 Br
BRANCH  14  16
ATOM     16  N   UNL     1      -0.870  -4.014   0.561  0.00  0.00    -0.358 N 
ATOM     17  H   UNL     1      -0.774  -3.588  -0.305  0.00  0.00    +0.142 HD
ATOM     18  H   UNL     1      -1.554  -4.689   0.697  0.00  0.00    +0.142 HD
ENDBRANCH  14  16
ENDBRANCH   1   9
BRANCH   1  19
ATOM     19  N   UNL     1       2.634  -2.259  -0.343  0.00  0.00    +0.393 N 
ATOM     20  H   UNL     1       2.867  -1.511  -1.007  0.00  0.00    -0.084 HD
ATOM     21  H   UNL     1       3.216  -2.163   0.498  0.00  0.00    -0.084 HD
BRANCH  19  22
ATOM     22  C   UNL     1       2.899  -3.567  -0.971  0.00  0.00    +0.041 C 
BRANCH  22  23
ATOM     23  C   UNL     1       4.357  -3.649  -1.345  0.00  0.00    +0.290 C 
ATOM     24  O   UNL     1       5.093  -2.720  -1.113  0.00  0.00    -0.253 OA
BRANCH  23  26
ATOM     25  C   UNL     1       6.251  -4.764  -2.267  0.00  0.00    +0.280 C 
ATOM     26  O   UNL     1       4.837  -4.755  -1.935  0.00  0.00    -0.469 OA
ENDBRANCH  23  26
ENDBRANCH  22  23
ENDBRANCH  19  22
ENDBRANCH   1  19
TORSDOF 7
