REMARK  Name = ZINC09935256
REMARK  9 active torsions:
REMARK  status: ('A' for Active; 'I' for Inactive)
REMARK    1  A    between atoms: C_1  and  O_2
REMARK    2  A    between atoms: O_2  and  C_3
REMARK    3  A    between atoms: C_5  and  N_11
REMARK    4  A    between atoms: C_7  and  O_9
REMARK    5  A    between atoms: O_9  and  C_10
REMARK    6  A    between atoms: C_20  and  C_22
REMARK    7  A    between atoms: C_22  and  C_23
REMARK    8  A    between atoms: C_23  and  O_25
REMARK    9  A    between atoms: O_25  and  C_26
REMARK                            x       y       z     vdW  Elec       q    Type
REMARK                         _______ _______ _______ _____ _____    ______ ____
ROOT
ATOM      1  N   UNL     1       0.510   1.447  -0.144  0.00  0.00    -0.327 N 
ATOM      2  C   UNL     1      -0.841   1.701  -0.069  0.00  0.00    +0.180 C 
ATOM      3  N   UNL     1      -1.734   0.654   0.046  0.00  0.00    -0.298 N 
ATOM      4  C   UNL     1      -1.287  -0.642  -0.032  0.00  0.00    +0.211 A 
ATOM      5  N   UNL     1      -2.188  -1.660  -0.045  0.00  0.00    -0.293 N 
ATOM      6  H   UNL     1      -3.138  -1.470   0.001  0.00  0.00    +0.172 HD
ATOM      7  C   UNL     1      -1.757  -2.937  -0.121  0.00  0.00    +0.253 A 
ATOM      8  O   UNL     1      -2.552  -3.863  -0.134  0.00  0.00    -0.268 OA
ATOM      9  C   UNL     1      -0.373  -3.180  -0.187  0.00  0.00    +0.094 A 
ATOM     10  C   UNL     1       0.484  -2.118  -0.171  0.00  0.00    +0.061 A 
ATOM     11  N   UNL     1       0.008  -0.877  -0.099  0.00  0.00    -0.218 NA
ATOM     12  H   UNL     1       0.830   0.533  -0.193  0.00  0.00    +0.169 HD
ATOM     13  H   UNL     1      -2.202   3.212   0.011  0.00  0.00    +0.159 HD
ATOM     14  H   UNL     1      -2.677   0.835   0.181  0.00  0.00    +0.172 HD
ATOM     15  N   UNL     1      -1.220   2.968  -0.116  0.00  0.00    -0.371 N 
ATOM     16  H   UNL     1      -0.525   3.706  -0.281  0.00  0.00    +0.159 HD
ENDROOT
BRANCH   1  19
ATOM     17  C   UNL     1       3.555   3.427   0.455  0.00  0.00    +0.126 A 
ATOM     18  C   UNL     1       2.652   2.374   0.469  0.00  0.00    +0.071 A 
ATOM     19  C   UNL     1       1.421   2.508  -0.158  0.00  0.00    +0.049 A 
ATOM     20  C   UNL     1       1.096   3.694  -0.803  0.00  0.00    +0.071 A 
ATOM     21  C   UNL     1       1.997   4.748  -0.810  0.00  0.00    +0.126 A 
ATOM     22  C   UNL     1       3.227   4.613  -0.184  0.00  0.00    +0.091 A 
BRANCH  17  24
ATOM     23  C   UNL     1       5.641   4.420   1.015  0.00  0.00    +0.277 C 
ATOM     24  O   UNL     1       4.760   3.296   1.068  0.00  0.00    -0.495 OA
ENDBRANCH  17  24
BRANCH  21  25
ATOM     25  O   UNL     1       1.677   5.911  -1.436  0.00  0.00    -0.495 OA
ATOM     26  C   UNL     1       2.655   6.952  -1.409  0.00  0.00    +0.277 C 
ENDBRANCH  21  25
ENDBRANCH   1  19
BRANCH  10  27
ATOM     27  C   UNL     1       1.971  -2.351  -0.241  0.00  0.00    +0.176 C 
BRANCH  27  28
ATOM     28  C   UNL     1       2.430  -2.239  -1.672  0.00  0.00    +0.313 C 
ATOM     29  O   UNL     1       1.632  -1.996  -2.546  0.00  0.00    -0.250 OA
BRANCH  28  30
ATOM     30  O   UNL     1       3.727  -2.410  -1.976  0.00  0.00    -0.468 OA
ATOM     31  C   UNL     1       4.097  -2.288  -3.375  0.00  0.00    +0.280 C 
ENDBRANCH  28  30
ENDBRANCH  27  28
ENDBRANCH  10  27
TORSDOF 6
