REMARK  Name = ZINC43548743
REMARK  14 active torsions:
REMARK  status: ('A' for Active; 'I' for Inactive)
REMARK    1  A    between atoms: C_1  and  C_2
REMARK    2  A    between atoms: N_9  and  C_10
REMARK    3  A    between atoms: C_12  and  O_18
REMARK    4  A    between atoms: C_15  and  O_16
REMARK    5  A    between atoms: O_16  and  C_17
REMARK    6  A    between atoms: O_18  and  C_19
REMARK    7  A    between atoms: C_21  and  C_41
REMARK    8  A    between atoms: C_24  and  O_40
REMARK    9  A    between atoms: C_26  and  C_30
REMARK   10  A    between atoms: C_30  and  C_32
REMARK   11  A    between atoms: C_30  and  C_33
REMARK   12  A    between atoms: N_35  and  C_36
REMARK   13  A    between atoms: N_35  and  C_37
REMARK   14  A    between atoms: C_37  and  C_38
REMARK                            x       y       z     vdW  Elec       q    Type
REMARK                         _______ _______ _______ _____ _____    ______ ____
ROOT
ATOM      1  C   UNL     1      -0.328   0.083  -1.399  0.00  0.00    +0.014 C 
ATOM      2  C   UNL     1       0.361  -1.211  -0.961  0.00  0.00    +0.042 C 
ATOM      3  C   UNL     1      -0.691  -2.253  -0.608  0.00  0.00    +0.057 A 
ATOM      4  C   UNL     1      -0.990  -2.514   0.689  0.00  0.00    +0.015 A 
ATOM      5  S   UNL     1      -2.237  -3.765   0.552  0.00  0.00    -0.057 S 
ATOM      6  C   UNL     1      -2.276  -3.854  -1.130  0.00  0.00    +0.163 A 
ATOM      7  N   UNL     1      -1.377  -2.966  -1.497  0.00  0.00    -0.229 NA
ATOM      8  N   UNL     1      -3.062  -4.666  -1.933  0.00  0.00    -0.291 N 
ATOM      9  C   UNL     1      -0.399  -1.890   1.905  0.00  0.00    +0.051 C 
ATOM     10  C   UNL     1       0.360  -0.617   1.488  0.00  0.00    -0.022 C 
ATOM     11  C   UNL     1       1.227  -0.938   0.264  0.00  0.00    +0.033 C 
ATOM     12  C   UNL     1       2.113  -2.143   0.578  0.00  0.00    +0.123 C 
ATOM     13  C   UNL     1       3.035  -1.795   1.749  0.00  0.00    +0.029 C 
ATOM     14  C   UNL     1       2.199  -1.419   2.973  0.00  0.00    +0.007 C 
ATOM     15  C   UNL     1       1.295  -0.227   2.643  0.00  0.00    +0.008 C 
ATOM     16  C   UNL     1      -0.620   0.518   1.184  0.00  0.00    +0.012 C 
ATOM     17  H   UNL     1      -2.917  -4.687  -2.892  0.00  0.00    +0.154 HD
ENDROOT
BRANCH   8  18
ATOM     18  C   UNL     1      -4.066  -5.455  -1.359  0.00  0.00    +0.078 A 
ATOM     19  C   UNL     1      -4.686  -5.048  -0.186  0.00  0.00    +0.072 A 
ATOM     20  C   UNL     1      -5.679  -5.832   0.379  0.00  0.00    +0.122 A 
ATOM     21  C   UNL     1      -6.054  -7.022  -0.226  0.00  0.00    +0.049 A 
ATOM     22  C   UNL     1      -5.438  -7.431  -1.395  0.00  0.00    +0.051 A 
ATOM     23  C   UNL     1      -4.448  -6.649  -1.967  0.00  0.00    +0.141 A 
BRANCH  23  24
ATOM     24  O   UNL     1      -3.846  -7.049  -3.120  0.00  0.00    -0.493 OA
ATOM     25  C   UNL     1      -4.288  -8.284  -3.688  0.00  0.00    +0.277 C 
ENDBRANCH  23  24
BRANCH  20  26
ATOM     26  O   UNL     1      -6.287  -5.433   1.528  0.00  0.00    -0.495 OA
ATOM     27  C   UNL     1      -7.303  -6.289   2.055  0.00  0.00    +0.277 C 
ENDBRANCH  20  26
ENDBRANCH   8  18
BRANCH  13  28
ATOM     28  C   UNL     1       3.910  -3.004   2.085  0.00  0.00    +0.078 C 
ATOM     29  C   UNL     1       4.833  -2.657   3.255  0.00  0.00    +0.017 C 
BRANCH  28  30
ATOM     30  C   UNL     1       4.741  -3.373   0.883  0.00  0.00    +0.219 C 
ATOM     31  O   UNL     1       4.927  -2.560   0.002  0.00  0.00    -0.275 OA
ATOM     32  N   UNL     1       5.277  -4.605   0.786  0.00  0.00    -0.301 N 
ATOM     33  C   UNL     1       4.988  -5.612   1.810  0.00  0.00    +0.132 C 
BRANCH  32  34
ATOM     34  C   UNL     1       6.150  -4.938  -0.343  0.00  0.00    +0.134 C 
BRANCH  34  35
ATOM     35  C   UNL     1       7.579  -4.619   0.016  0.00  0.00    -0.016 C 
ATOM     36  C   UNL     1       8.500  -5.545  -0.079  0.00  0.00    +0.005 C 
ENDBRANCH  34  35
ENDBRANCH  32  34
ENDBRANCH  28  30
ENDBRANCH  13  28
BRANCH  12  37
ATOM     37  O   UNL     1       1.293  -3.260   0.929  0.00  0.00    -0.391 OA
ATOM     38  H   UNL     1       1.790  -4.062   1.141  0.00  0.00    +0.210 HD
ENDBRANCH  12  37
TORSDOF 8
