REMARK  Name = ZINC43606744
REMARK  8 active torsions:
REMARK  status: ('A' for Active; 'I' for Inactive)
REMARK    1  A    between atoms: C_1  and  C_2
REMARK    2  A    between atoms: C_2  and  C_4
REMARK    3  A    between atoms: C_2  and  N_16
REMARK    4  A    between atoms: N_9  and  C_10
REMARK    5  A    between atoms: C_10  and  C_11
REMARK    6  A    between atoms: N_16  and  C_17
REMARK    7  A    between atoms: C_17  and  C_19
REMARK    8  A    between atoms: C_17  and  C_25
REMARK                            x       y       z     vdW  Elec       q    Type
REMARK                         _______ _______ _______ _____ _____    ______ ____
ROOT
ATOM      1  C   UNL     1       0.009   1.540   0.016  0.00  0.00    -0.004 C 
ATOM      2  C   UNL     1       0.084   0.013  -0.046  0.00  0.00    +0.015 C 
ENDROOT
BRANCH   2   3
ATOM      3  C   UNL     1      -1.310  -0.559  -0.052  0.00  0.00    +0.206 C 
ATOM      4  O   UNL     1      -1.661  -1.310   0.832  0.00  0.00    -0.277 OA
ATOM      5  N   UNL     1      -2.167  -0.235  -1.041  0.00  0.00    -0.242 N 
ATOM      6  C   UNL     1      -3.414  -0.746  -1.046  0.00  0.00    +0.306 C 
ATOM      7  O   UNL     1      -3.766  -1.500  -0.160  0.00  0.00    -0.252 OA
ATOM      8  N   UNL     1      -4.271  -0.422  -2.035  0.00  0.00    -0.294 N 
ATOM      9  H   UNL     1      -1.886   0.366  -1.748  0.00  0.00    +0.159 HD
ATOM     10  H   UNL     1      -3.990   0.179  -2.743  0.00  0.00    +0.151 HD
BRANCH   8  11
ATOM     11  C   UNL     1      -5.626  -0.978  -2.041  0.00  0.00    +0.148 C 
BRANCH  11  12
ATOM     12  C   UNL     1      -6.375  -0.463  -3.243  0.00  0.00    +0.007 A 
ATOM     13  C   UNL     1      -6.464  -0.996  -4.486  0.00  0.00    +0.013 A 
ATOM     14  C   UNL     1      -7.217  -0.343  -5.444  0.00  0.00    +0.008 A 
ATOM     15  C   UNL     1      -7.845   0.811  -5.111  0.00  0.00    +0.045 A 
ATOM     16  S   UNL     1      -7.381   1.003  -3.398  0.00  0.00    -0.100 S 
ENDBRANCH  11  12
ENDBRANCH   8  11
ENDBRANCH   2   3
BRANCH   2  17
ATOM     17  N   UNL     1       0.814  -0.489   1.126  0.00  0.00    +0.396 N 
ATOM     18  H   UNL     1       1.704  -0.019   1.195  0.00  0.00    -0.083 HD
ATOM     19  H   UNL     1       0.274  -0.311   1.960  0.00  0.00    -0.083 HD
BRANCH  17  20
ATOM     20  C   UNL     1       1.033  -1.935   0.984  0.00  0.00    +0.028 C 
BRANCH  20  21
ATOM     21  C   UNL     1       1.649  -2.476   2.249  0.00  0.00    -0.054 A 
ATOM     22  C   UNL     1       2.617  -1.746   2.913  0.00  0.00    +0.002 A 
ATOM     23  C   UNL     1       3.182  -2.243   4.073  0.00  0.00    +0.000 A 
ATOM     24  C   UNL     1       2.779  -3.469   4.569  0.00  0.00    +0.000 A 
ATOM     25  C   UNL     1       1.810  -4.198   3.904  0.00  0.00    +0.000 A 
ATOM     26  C   UNL     1       1.242  -3.699   2.747  0.00  0.00    +0.002 A 
ENDBRANCH  20  21
BRANCH  20  27
ATOM     27  C   UNL     1       1.961  -2.190  -0.176  0.00  0.00    +0.095 A 
ATOM     28  C   UNL     1       1.841  -3.184  -1.074  0.00  0.00    +0.043 A 
ATOM     29  C   UNL     1       2.918  -3.049  -1.980  0.00  0.00    +0.041 A 
ATOM     30  C   UNL     1       3.632  -1.981  -1.581  0.00  0.00    +0.195 A 
ATOM     31  O   UNL     1       3.044  -1.461  -0.491  0.00  0.00    -0.469 OA
ENDBRANCH  20  27
ENDBRANCH  17  20
ENDBRANCH   2  17
TORSDOF 7
