REMARK  Name = ZINC43283151
REMARK  7 active torsions:
REMARK  status: ('A' for Active; 'I' for Inactive)
REMARK    1  A    between atoms: C_1  and  C_2
REMARK    2  A    between atoms: C_2  and  C_3
REMARK    3  A    between atoms: C_3  and  C_5
REMARK    4  A    between atoms: C_3  and  N_20
REMARK    5  A    between atoms: C_5  and  C_7
REMARK    6  A    between atoms: C_5  and  O_13
REMARK    7  A    between atoms: O_13  and  C_14
REMARK                            x       y       z     vdW  Elec       q    Type
REMARK                         _______ _______ _______ _____ _____    ______ ____
ROOT
ATOM      1  C   UNL     1       0.655  -2.000   1.358  0.00  0.00    +0.141 C 
ENDROOT
BRANCH   1   2
ATOM      2  C   UNL     1      -0.789  -2.263   1.696  0.00  0.00    +0.018 A 
ATOM      3  C   UNL     1      -1.360  -2.454   2.911  0.00  0.00    +0.015 A 
ATOM      4  C   UNL     1      -2.721  -2.683   2.984  0.00  0.00    +0.023 A 
ATOM      5  C   UNL     1      -3.446  -2.709   1.837  0.00  0.00    +0.055 A 
ATOM      6  S   UNL     1      -2.194  -2.397   0.603  0.00  0.00    -0.084 S 
ATOM      7 BR   UNL     1      -5.301  -2.995   1.606  0.00  0.00    -0.043 Br
ENDBRANCH   1   2
BRANCH   1   8
ATOM      8  C   UNL     1       0.885  -0.491   1.242  0.00  0.00    -0.041 C 
BRANCH   8   9
ATOM      9  N   UNL     1       2.317  -0.228   1.047  0.00  0.00    +0.382 N 
ATOM     10  H   UNL     1       2.606  -0.585   0.149  0.00  0.00    -0.090 HD
ATOM     11  H   UNL     1       2.483   0.767   1.083  0.00  0.00    -0.090 HD
ATOM     12  H   UNL     1       2.845  -0.683   1.776  0.00  0.00    -0.090 HD
ENDBRANCH   8   9
BRANCH   8  14
ATOM     13  C   UNL     1       0.228   1.578   0.005  0.00  0.00    +0.002 C 
ATOM     14  C   UNL     1       0.099   0.054   0.047  0.00  0.00    -0.017 C 
ENDBRANCH   8  14
ENDBRANCH   1   8
BRANCH   1  15
ATOM     15  O   UNL     1       0.975  -2.627   0.114  0.00  0.00    -0.370 OA
BRANCH  15  16
ATOM     16  C   UNL     1       1.393  -3.988   0.241  0.00  0.00    +0.123 C 
ATOM     17  C   UNL     1       2.917  -4.045   0.387  0.00  0.00    +0.059 C 
ATOM     18  C   UNL     1       3.362  -5.508   0.442  0.00  0.00    +0.162 C 
ATOM     19  O   UNL     1       2.921  -6.184  -0.737  0.00  0.00    -0.380 OA
ATOM     20  C   UNL     1       1.502  -6.204  -0.902  0.00  0.00    +0.162 C 
ATOM     21  C   UNL     1       0.982  -4.768  -1.012  0.00  0.00    +0.059 C 
ENDBRANCH  15  16
ENDBRANCH   1  15
TORSDOF 6
