REMARK  Name = ZINC24228502
REMARK  14 active torsions:
REMARK  status: ('A' for Active; 'I' for Inactive)
REMARK    1  A    between atoms: C_1  and  C_2
REMARK    2  A    between atoms: C_2  and  C_4
REMARK    3  A    between atoms: C_2  and  N_32
REMARK    4  A    between atoms: C_7  and  S_16
REMARK    5  A    between atoms: N_8  and  C_9
REMARK    6  A    between atoms: S_16  and  C_17
REMARK    7  A    between atoms: C_17  and  C_19
REMARK    8  A    between atoms: C_17  and  C_20
REMARK    9  A    between atoms: N_22  and  C_23
REMARK   10  A    between atoms: C_28  and  C_29
REMARK   11  A    between atoms: C_29  and  C_30
REMARK   12  A    between atoms: C_29  and  C_31
REMARK   13  A    between atoms: N_32  and  C_33
REMARK   14  A    between atoms: N_32  and  C_34
REMARK                            x       y       z     vdW  Elec       q    Type
REMARK                         _______ _______ _______ _____ _____    ______ ____
ROOT
ATOM      1  C   UNL     1       0.734  -0.529  -1.214  0.00  0.00    +0.125 A 
ATOM      2  N   UNL     1       2.019  -0.520  -1.430  0.00  0.00    -0.135 NA
ATOM      3  N   UNL     1       2.276  -0.999  -2.594  0.00  0.00    -0.122 NA
ATOM      4  C   UNL     1       1.159  -1.345  -3.192  0.00  0.00    +0.197 A 
ATOM      5  N   UNL     1       0.138  -1.061  -2.327  0.00  0.00    -0.275 N 
ENDROOT
BRANCH   5   6
ATOM      6  C   UNL     1      -1.233  -1.268  -2.537  0.00  0.00    +0.050 A 
ATOM      7  C   UNL     1      -1.929  -2.173  -1.747  0.00  0.00    +0.028 A 
ATOM      8  C   UNL     1      -3.279  -2.375  -1.955  0.00  0.00    +0.022 A 
ATOM      9  C   UNL     1      -3.939  -1.676  -2.951  0.00  0.00    +0.041 A 
ATOM     10  C   UNL     1      -3.247  -0.774  -3.741  0.00  0.00    +0.022 A 
ATOM     11  C   UNL     1      -1.898  -0.565  -3.532  0.00  0.00    +0.028 A 
ATOM     12 CL   UNL     1      -5.636  -1.933  -3.212  0.00  0.00    -0.084 Cl
ENDBRANCH   5   6
BRANCH   1  14
ATOM     13  C   UNL     1       0.018   1.479   0.052  0.00  0.00    -0.005 C 
ATOM     14  C   UNL     1       0.034  -0.051   0.032  0.00  0.00    -0.003 C 
BRANCH  14  15
ATOM     15  N   UNL     1       0.746  -0.548   1.216  0.00  0.00    +0.382 N 
ATOM     16  C   UNL     1       0.063  -0.082   2.430  0.00  0.00    -0.096 C 
ATOM     17  C   UNL     1       0.761  -2.017   1.197  0.00  0.00    -0.096 C 
ATOM     18  H   UNL     1       1.694  -0.202   1.209  0.00  0.00    -0.082 HD
ENDBRANCH  14  15
ENDBRANCH   1  14
BRANCH   4  19
ATOM     19  S   UNL     1       1.005  -2.047  -4.800  0.00  0.00    -0.073 S 
BRANCH  19  20
ATOM     20  C   UNL     1       2.716  -2.166  -5.393  0.00  0.00    +0.137 C 
ATOM     21  C   UNL     1       3.489  -3.157  -4.521  0.00  0.00    +0.029 C 
BRANCH  20  22
ATOM     22  C   UNL     1       2.720  -2.644  -6.822  0.00  0.00    +0.230 C 
ATOM     23  O   UNL     1       1.752  -3.219  -7.272  0.00  0.00    -0.274 OA
ATOM     24  N   UNL     1       3.800  -2.433  -7.600  0.00  0.00    -0.284 N 
ATOM     25  H   UNL     1       4.542  -1.905  -7.266  0.00  0.00    +0.155 HD
BRANCH  24  26
ATOM     26  C   UNL     1       3.852  -2.976  -8.888  0.00  0.00    +0.037 A 
ATOM     27  C   UNL     1       3.106  -4.107  -9.197  0.00  0.00    +0.023 A 
ATOM     28  C   UNL     1       3.159  -4.640 -10.470  0.00  0.00    +0.002 A 
ATOM     29  C   UNL     1       3.954  -4.050 -11.436  0.00  0.00    +0.000 A 
ATOM     30  C   UNL     1       4.697  -2.925 -11.132  0.00  0.00    +0.006 A 
ATOM     31  C   UNL     1       4.644  -2.383  -9.862  0.00  0.00    -0.024 A 
BRANCH  31  32
ATOM     32  C   UNL     1       5.449  -1.152  -9.533  0.00  0.00    +0.015 C 
ATOM     33  C   UNL     1       6.920  -1.400  -9.872  0.00  0.00    +0.012 C 
ATOM     34  C   UNL     1       4.929   0.031 -10.352  0.00  0.00    +0.012 C 
ENDBRANCH  31  32
ENDBRANCH  24  26
ENDBRANCH  20  22
ENDBRANCH  19  20
ENDBRANCH   4  19
TORSDOF 8
