REMARK  Name = ZINC39737847
REMARK  12 active torsions:
REMARK  status: ('A' for Active; 'I' for Inactive)
REMARK    1  A    between atoms: C_1  and  C_2
REMARK    2  A    between atoms: C_2  and  O_3
REMARK    3  A    between atoms: O_3  and  C_4
REMARK    4  A    between atoms: C_4  and  C_6
REMARK    5  A    between atoms: C_7  and  C_36
REMARK    6  A    between atoms: C_8  and  C_33
REMARK    7  A    between atoms: C_9  and  N_11
REMARK    8  A    between atoms: C_12  and  C_14
REMARK    9  A    between atoms: C_17  and  S_20
REMARK   10  A    between atoms: S_20  and  N_23
REMARK   11  A    between atoms: C_25  and  C_32
REMARK   12  A    between atoms: C_28  and  C_31
REMARK                            x       y       z     vdW  Elec       q    Type
REMARK                         _______ _______ _______ _____ _____    ______ ____
ROOT
ATOM      1  N   UNL     1       3.520  -2.811   5.896  0.00  0.00    -0.275 N 
ATOM      2  C   UNL     1       3.838  -1.639   6.481  0.00  0.00    +0.249 C 
ATOM      3  O   UNL     1       3.509  -0.592   5.960  0.00  0.00    -0.270 OA
ATOM      4  H   UNL     1       3.783  -3.648   6.311  0.00  0.00    +0.156 HD
ENDROOT
BRANCH   1   8
ATOM      5  C   UNL     1       1.495  -2.370   2.465  0.00  0.00    +0.102 A 
ATOM      6  C   UNL     1       1.712  -3.685   2.784  0.00  0.00    -0.015 A 
ATOM      7  C   UNL     1       2.408  -3.927   3.959  0.00  0.00    +0.069 A 
ATOM      8  C   UNL     1       2.821  -2.821   4.705  0.00  0.00    +0.085 A 
ATOM      9  S   UNL     1       2.277  -1.507   3.813  0.00  0.00    -0.066 S 
ATOM     10  C   UNL     1       1.221  -4.808   1.906  0.00  0.00    +0.046 C 
BRANCH   7  11
ATOM     11  C   UNL     1       2.699  -5.296   4.404  0.00  0.00    +0.244 C 
ATOM     12  O   UNL     1       3.728  -5.843   4.054  0.00  0.00    -0.270 OA
ATOM     13  N   UNL     1       1.826  -5.947   5.198  0.00  0.00    -0.325 N 
ATOM     14  H   UNL     1       1.006  -5.510   5.477  0.00  0.00    +0.145 HD
ATOM     15  H   UNL     1       2.018  -6.851   5.492  0.00  0.00    +0.145 HD
ENDBRANCH   7  11
BRANCH   5  16
ATOM     16  C   UNL     1       0.801  -1.815   1.305  0.00  0.00    +0.346 C 
ATOM     17  O   UNL     1       0.321  -2.558   0.470  0.00  0.00    -0.244 OA
BRANCH  16  18
ATOM     18  O   UNL     1       0.693  -0.477   1.160  0.00  0.00    -0.461 OA
BRANCH  18  20
ATOM     19  C   UNL     1      -0.019   1.526   0.010  0.00  0.00    +0.048 C 
ATOM     20  C   UNL     1       0.002  -0.004   0.002  0.00  0.00    +0.229 C 
ENDBRANCH  18  20
ENDBRANCH  16  18
ENDBRANCH   5  16
ENDBRANCH   1   8
BRANCH   2  21
ATOM     21  C   UNL     1       4.586  -1.629   7.755  0.00  0.00    +0.037 A 
ATOM     22  C   UNL     1       4.971  -2.830   8.352  0.00  0.00    +0.015 A 
ATOM     23  C   UNL     1       5.670  -2.813   9.542  0.00  0.00    +0.029 A 
ATOM     24  C   UNL     1       5.989  -1.609  10.143  0.00  0.00    +0.106 A 
ATOM     25  C   UNL     1       5.610  -0.414   9.556  0.00  0.00    +0.029 A 
ATOM     26  C   UNL     1       4.917  -0.417   8.364  0.00  0.00    +0.015 A 
BRANCH  24  27
ATOM     27  S   UNL     1       6.881  -1.596  11.662  0.00  0.00    +0.061 S 
ATOM     28  O   UNL     1       6.581  -0.361  12.299  0.00  0.00    -0.153 OA
ATOM     29  O   UNL     1       6.642  -2.851  12.284  0.00  0.00    -0.153 OA
BRANCH  27  30
ATOM     30  N   UNL     1       8.493  -1.554  11.283  0.00  0.00    -0.176 NA
ATOM     31  C   UNL     1       9.251  -2.799  11.098  0.00  0.00    +0.112 C 
ATOM     32  C   UNL     1       9.948  -2.754   9.735  0.00  0.00    +0.002 C 
ATOM     33  C   UNL     1      10.795  -1.483   9.642  0.00  0.00    +0.009 C 
ATOM     34  C   UNL     1       9.890  -0.255   9.762  0.00  0.00    +0.002 C 
ATOM     35  C   UNL     1       9.190  -0.271  11.119  0.00  0.00    +0.112 C 
ATOM     36  C   UNL     1       8.840  -0.283   8.649  0.00  0.00    +0.009 C 
ATOM     37  C   UNL     1      10.849  -3.981   9.582  0.00  0.00    +0.009 C 
ENDBRANCH  27  30
ENDBRANCH  24  27
ENDBRANCH   2  21
TORSDOF 8
