REMARK  Name = ZINC51052390
REMARK  11 active torsions:
REMARK  status: ('A' for Active; 'I' for Inactive)
REMARK    1  A    between atoms: C_1  and  C_2
REMARK    2  A    between atoms: C_2  and  C_3
REMARK    3  A    between atoms: C_3  and  C_4
REMARK    4  A    between atoms: C_4  and  C_6
REMARK    5  A    between atoms: C_4  and  N_7
REMARK    6  A    between atoms: C_8  and  C_10
REMARK    7  A    between atoms: N_15  and  C_17
REMARK    8  A    between atoms: C_17  and  C_18
REMARK    9  A    between atoms: C_18  and  C_19
REMARK   10  A    between atoms: N_24  and  C_25
REMARK   11  A    between atoms: C_25  and  C_26
REMARK                            x       y       z     vdW  Elec       q    Type
REMARK                         _______ _______ _______ _____ _____    ______ ____
ROOT
ATOM      1  C   UNL     1      -2.345  -4.283  -1.025  0.00  0.00    +0.058 C 
ATOM      2  C   UNL     1      -3.295  -3.357  -0.261  0.00  0.00    +0.009 C 
ATOM      3  C   UNL     1      -4.711  -3.937  -0.316  0.00  0.00    -0.018 C 
ATOM      4  C   UNL     1      -4.698  -5.356   0.257  0.00  0.00    -0.079 C 
ATOM      5  N   UNL     1      -3.792  -6.198  -0.533  0.00  0.00    +0.381 N 
ATOM      6  C   UNL     1      -2.419  -5.690  -0.427  0.00  0.00    -0.066 C 
ATOM      7  H   UNL     1      -4.080  -6.186  -1.500  0.00  0.00    -0.082 HD
ENDROOT
BRANCH   1   9
ATOM      8  N   UNL     1      -0.631  -2.534  -1.375  0.00  0.00    -0.313 N 
ATOM      9  C   UNL     1      -0.935  -3.763  -0.912  0.00  0.00    +0.215 C 
ATOM     10  O   UNL     1      -0.074  -4.449  -0.404  0.00  0.00    -0.276 OA
ATOM     11  H   UNL     1      -1.320  -1.985  -1.781  0.00  0.00    +0.149 HD
BRANCH   8  12
ATOM     12  C   UNL     1       0.739  -2.027  -1.265  0.00  0.00    +0.070 C 
ATOM     13  C   UNL     1       1.562  -2.520  -2.457  0.00  0.00    +0.028 C 
BRANCH  12  14
ATOM     14  C   UNL     1       0.718  -0.497  -1.257  0.00  0.00    +0.022 C 
BRANCH  14  16
ATOM     15  C   UNL     1      -0.019   1.526   0.010  0.00  0.00    +0.004 C 
ATOM     16  C   UNL     1       0.002  -0.004   0.002  0.00  0.00    -0.002 C 
ENDBRANCH  14  16
ENDBRANCH  12  14
ENDBRANCH   8  12
ENDBRANCH   1   9
BRANCH   5  17
ATOM     17  C   UNL     1      -3.842  -7.577  -0.027  0.00  0.00    -0.070 C 
BRANCH  17  18
ATOM     18  C   UNL     1      -5.240  -8.155  -0.261  0.00  0.00    +0.078 C 
BRANCH  18  19
ATOM     19  C   UNL     1      -5.291  -9.569   0.258  0.00  0.00    +0.219 C 
ATOM     20  O   UNL     1      -4.308 -10.065   0.764  0.00  0.00    -0.275 OA
ATOM     21  N   UNL     1      -6.431 -10.281   0.159  0.00  0.00    -0.240 N 
ATOM     22  C   UNL     1      -6.477 -11.546   0.622  0.00  0.00    +0.306 C 
ATOM     23  O   UNL     1      -5.491 -12.044   1.130  0.00  0.00    -0.252 OA
ATOM     24  N   UNL     1      -7.617 -12.259   0.523  0.00  0.00    -0.292 N 
ATOM     25  H   UNL     1      -7.218  -9.884  -0.246  0.00  0.00    +0.159 HD
ATOM     26  H   UNL     1      -8.403 -11.862   0.118  0.00  0.00    +0.151 HD
BRANCH  24  27
ATOM     27  C   UNL     1      -7.667 -13.634   1.027  0.00  0.00    +0.180 C 
BRANCH  27  28
ATOM     28  C   UNL     1      -9.043 -14.203   0.797  0.00  0.00    +0.122 A 
ATOM     29  C   UNL     1      -9.444 -14.874  -0.297  0.00  0.00    +0.046 A 
ATOM     30  C   UNL     1     -10.799 -15.222  -0.091  0.00  0.00    +0.041 A 
ATOM     31  C   UNL     1     -11.145 -14.742   1.117  0.00  0.00    +0.195 A 
ATOM     32  O   UNL     1     -10.076 -14.131   1.653  0.00  0.00    -0.466 OA
ENDBRANCH  27  28
ENDBRANCH  24  27
ENDBRANCH  18  19
ENDBRANCH  17  18
ENDBRANCH   5  17
TORSDOF 9
