REMARK  Name = ZINC56157807
REMARK  5 active torsions:
REMARK  status: ('A' for Active; 'I' for Inactive)
REMARK    1  A    between atoms: C_1  and  C_2
REMARK    2  A    between atoms: C_2  and  C_4
REMARK    3  A    between atoms: C_2  and  N_11
REMARK    4  A    between atoms: N_11  and  C_12
REMARK    5  A    between atoms: C_16  and  N_18
REMARK                            x       y       z     vdW  Elec       q    Type
REMARK                         _______ _______ _______ _____ _____    ______ ____
ROOT
ATOM      1  C   UNL     1       2.186  -0.651   0.897  0.00  0.00    +0.029 A 
ATOM      2  C   UNL     1       2.858  -0.276  -0.260  0.00  0.00    +0.023 A 
ATOM      3  C   UNL     1       4.231  -0.412  -0.338  0.00  0.00    +0.004 A 
ATOM      4  C   UNL     1       4.940  -0.921   0.733  0.00  0.00    +0.024 A 
ATOM      5  C   UNL     1       4.274  -1.297   1.893  0.00  0.00    +0.040 A 
ATOM      6  C   UNL     1       2.896  -1.157   1.977  0.00  0.00    +0.046 A 
ENDROOT
BRANCH   5   7
ATOM      7  N   UNL     1       4.993  -1.813   2.977  0.00  0.00    -0.254 N 
ATOM      8  C   UNL     1       6.433  -2.112   2.979  0.00  0.00    +0.134 C 
ATOM      9  C   UNL     1       6.696  -2.647   4.400  0.00  0.00    +0.125 C 
ATOM     10  N   UNL     1       5.377  -2.592   5.048  0.00  0.00    -0.297 N 
ATOM     11  C   UNL     1       4.480  -2.107   4.179  0.00  0.00    +0.307 C 
ATOM     12  O   UNL     1       3.307  -1.950   4.455  0.00  0.00    -0.252 OA
ATOM     13  H   UNL     1       5.187  -2.862   5.960  0.00  0.00    +0.150 HD
ENDBRANCH   5   7
BRANCH   1  14
ATOM     14  N   UNL     1       0.799  -0.513   0.976  0.00  0.00    -0.333 N 
ATOM     15  H   UNL     1       0.331  -0.771   1.785  0.00  0.00    +0.147 HD
BRANCH  14  17
ATOM     16  C   UNL     1       0.058   1.550  -0.109  0.00  0.00    +0.038 C 
ATOM     17  C   UNL     1       0.050   0.021  -0.165  0.00  0.00    +0.154 C 
BRANCH  17  18
ATOM     18  C   UNL     1      -1.372  -0.476  -0.109  0.00  0.00    +0.236 C 
ATOM     19  O   UNL     1      -1.861  -0.797   0.953  0.00  0.00    -0.274 OA
ATOM     20  N   UNL     1      -2.099  -0.564  -1.240  0.00  0.00    -0.300 N 
ATOM     21  C   UNL     1      -1.601  -0.316  -2.601  0.00  0.00    +0.108 C 
ATOM     22  C   UNL     1      -2.789  -0.510  -3.567  0.00  0.00    +0.020 C 
ATOM     23  C   UNL     1      -4.021  -0.301  -2.647  0.00  0.00    +0.020 C 
ATOM     24  C   UNL     1      -3.525  -0.929  -1.318  0.00  0.00    +0.108 C 
ENDBRANCH  17  18
ENDBRANCH  14  17
ENDBRANCH   1  14
TORSDOF 4
