REMARK  Name = ZINC59087421
REMARK  15 active torsions:
REMARK  status: ('A' for Active; 'I' for Inactive)
REMARK    1  A    between atoms: C_1  and  C_2
REMARK    2  A    between atoms: C_2  and  C_3
REMARK    3  A    between atoms: C_8  and  N_9
REMARK    4  A    between atoms: N_9  and  C_10
REMARK    5  A    between atoms: C_10  and  N_12
REMARK    6  A    between atoms: N_12  and  C_13
REMARK    7  A    between atoms: N_12  and  C_23
REMARK    8  A    between atoms: C_13  and  C_14
REMARK    9  A    between atoms: C_19  and  O_20
REMARK   10  A    between atoms: O_20  and  C_21
REMARK   11  A    between atoms: C_21  and  C_22
REMARK   12  A    between atoms: C_25  and  C_31
REMARK   13  A    between atoms: C_25  and  C_32
REMARK   14  A    between atoms: C_27  and  C_29
REMARK   15  A    between atoms: C_27  and  C_30
REMARK                            x       y       z     vdW  Elec       q    Type
REMARK                         _______ _______ _______ _____ _____    ______ ____
ROOT
ATOM      1  N   UNL     1      -0.765   0.268  -4.508  0.00  0.00    -0.305 N 
ENDROOT
BRANCH   1   2
ATOM      2  C   UNL     1       0.549   0.798  -4.123  0.00  0.00    +0.073 C 
ATOM      3  C   UNL     1       0.378   1.758  -2.944  0.00  0.00    +0.009 C 
ATOM      4  C   UNL     1       1.740   2.309  -2.523  0.00  0.00    -0.072 C 
ATOM      5  N   UNL     1       2.698   1.250  -2.245  0.00  0.00    +0.386 N 
ATOM      6  C   UNL     1       2.802   0.164  -3.207  0.00  0.00    -0.072 C 
ATOM      7  C   UNL     1       1.447  -0.355  -3.676  0.00  0.00    +0.009 C 
ATOM      8  C   UNL     1       3.524  -1.011  -2.504  0.00  0.00    -0.010 C 
ATOM      9  C   UNL     1       3.657   0.556  -4.414  0.00  0.00    -0.010 C 
ATOM     10  C   UNL     1       2.258   3.294  -3.571  0.00  0.00    -0.010 C 
ATOM     11  C   UNL     1       1.528   3.103  -1.213  0.00  0.00    -0.010 C 
ATOM     12  H   UNL     1       3.623   1.674  -2.137  0.00  0.00    -0.084 HD
ATOM     13  H   UNL     1       2.478   0.850  -1.330  0.00  0.00    -0.084 HD
ENDBRANCH   1   2
BRANCH   1  14
ATOM     14  C   UNL     1      -1.450  -0.520  -3.655  0.00  0.00    +0.138 C 
ATOM     15  S   UNL     1      -2.957  -1.182  -4.124  0.00  0.00    -0.018 S 
BRANCH  14  16
ATOM     16  N   UNL     1      -0.948  -0.787  -2.433  0.00  0.00    -0.297 N 
ATOM     17  H   UNL     1      -0.127  -0.360  -2.143  0.00  0.00    +0.154 HD
BRANCH  16  23
ATOM     18  C   UNL     1      -0.882  -2.539  -0.772  0.00  0.00    -0.026 A 
ATOM     19  C   UNL     1      -1.540  -3.415   0.069  0.00  0.00    +0.005 A 
ATOM     20  C   UNL     1      -2.922  -3.441   0.099  0.00  0.00    +0.000 A 
ATOM     21  C   UNL     1      -3.650  -2.591  -0.713  0.00  0.00    +0.002 A 
ATOM     22  C   UNL     1      -2.999  -1.713  -1.556  0.00  0.00    +0.023 A 
ATOM     23  C   UNL     1      -1.611  -1.680  -1.584  0.00  0.00    +0.036 A 
BRANCH  18  25
ATOM     24  C   UNL     1       1.135  -1.422   0.141  0.00  0.00    +0.009 C 
ATOM     25  C   UNL     1       0.624  -2.511  -0.804  0.00  0.00    +0.033 C 
ENDBRANCH  18  25
ENDBRANCH  16  23
ENDBRANCH  14  16
ENDBRANCH   1  14
BRANCH   1  26
ATOM     26  C   UNL     1      -1.332   0.596  -5.818  0.00  0.00    +0.145 C 
BRANCH  26  27
ATOM     27  C   UNL     1      -2.111   1.882  -5.721  0.00  0.00    +0.011 A 
ATOM     28  C   UNL     1      -3.468   1.850  -5.460  0.00  0.00    +0.009 A 
ATOM     29  C   UNL     1      -4.183   3.030  -5.371  0.00  0.00    +0.001 A 
ATOM     30  C   UNL     1      -3.544   4.244  -5.543  0.00  0.00    +0.004 A 
ATOM     31  C   UNL     1      -2.188   4.280  -5.804  0.00  0.00    +0.046 A 
ATOM     32  C   UNL     1      -1.467   3.098  -5.888  0.00  0.00    +0.125 A 
BRANCH  32  33
ATOM     33  O   UNL     1      -0.131   3.132  -6.139  0.00  0.00    -0.492 OA
BRANCH  33  34
ATOM     34  C   UNL     1       0.461   4.419  -6.324  0.00  0.00    +0.225 C 
ATOM     35  C   UNL     1       1.935   4.253  -6.700  0.00  0.00    +0.048 C 
ENDBRANCH  33  34
ENDBRANCH  32  33
ENDBRANCH  26  27
ENDBRANCH   1  26
TORSDOF 9
