REMARK  Name = ZINC36637419
REMARK  12 active torsions:
REMARK  status: ('A' for Active; 'I' for Inactive)
REMARK    1  A    between atoms: C_1  and  C_2
REMARK    2  A    between atoms: N_11  and  C_12
REMARK    3  A    between atoms: C_12  and  C_13
REMARK    4  A    between atoms: C_13  and  N_14
REMARK    5  A    between atoms: N_14  and  C_15
REMARK    6  A    between atoms: N_14  and  C_16
REMARK    7  A    between atoms: C_17  and  C_19
REMARK    8  A    between atoms: C_22  and  S_25
REMARK    9  A    between atoms: S_25  and  N_28
REMARK   10  A    between atoms: N_28  and  C_29
REMARK   11  A    between atoms: N_28  and  C_30
REMARK   12  A    between atoms: C_30  and  C_31
REMARK                            x       y       z     vdW  Elec       q    Type
REMARK                         _______ _______ _______ _____ _____    ______ ____
ROOT
ATOM      1  C   UNL     1       3.348  -0.245   1.248  0.00  0.00    +0.046 C 
ATOM      2  C   UNL     1       2.493  -1.428   0.870  0.00  0.00    -0.024 A 
ATOM      3  C   UNL     1       2.567  -1.938  -0.400  0.00  0.00    +0.005 A 
ATOM      4  C   UNL     1       1.798  -3.025  -0.790  0.00  0.00    +0.001 A 
ATOM      5  C   UNL     1       0.937  -3.608   0.122  0.00  0.00    +0.017 A 
ATOM      6  C   UNL     1       0.857  -3.104   1.396  0.00  0.00    +0.041 A 
ATOM      7  C   UNL     1       1.629  -2.002   1.830  0.00  0.00    +0.083 A 
ATOM      8  N   UNL     1       1.442  -1.626   3.114  0.00  0.00    -0.224 NA
ATOM      9  C   UNL     1       0.603  -2.243   3.914  0.00  0.00    +0.168 A 
ATOM     10  S   UNL     1      -0.074  -3.512   2.853  0.00  0.00    -0.052 S 
ATOM     11  N   UNL     1       0.310  -1.972   5.240  0.00  0.00    -0.248 N 
ATOM     12  C   UNL     1       0.926  -0.954   5.872  0.00  0.00    +0.252 C 
ATOM     13  O   UNL     1       1.676  -0.221   5.257  0.00  0.00    -0.270 OA
ENDROOT
BRANCH  12  14
ATOM     14  C   UNL     1       0.690  -0.727   7.313  0.00  0.00    +0.037 A 
ATOM     15  C   UNL     1       0.841  -1.776   8.222  0.00  0.00    +0.015 A 
ATOM     16  C   UNL     1       0.619  -1.558   9.566  0.00  0.00    +0.029 A 
ATOM     17  C   UNL     1       0.247  -0.302  10.014  0.00  0.00    +0.106 A 
ATOM     18  C   UNL     1       0.095   0.742   9.118  0.00  0.00    +0.029 A 
ATOM     19  C   UNL     1       0.320   0.538   7.772  0.00  0.00    +0.015 A 
BRANCH  17  20
ATOM     20  S   UNL     1      -0.036  -0.032  11.732  0.00  0.00    +0.061 S 
ATOM     21  O   UNL     1       0.791  -0.954  12.429  0.00  0.00    -0.153 OA
ATOM     22  O   UNL     1       0.043   1.371  11.941  0.00  0.00    -0.153 OA
BRANCH  20  23
ATOM     23  N   UNL     1      -1.602  -0.470  12.045  0.00  0.00    -0.175 NA
ATOM     24  C   UNL     1      -1.924  -1.865  12.359  0.00  0.00    +0.132 C 
BRANCH  23  25
ATOM     25  C   UNL     1      -2.665   0.536  12.009  0.00  0.00    +0.144 C 
BRANCH  25  26
ATOM     26  C   UNL     1      -3.441   0.402  10.723  0.00  0.00    -0.032 A 
ATOM     27  C   UNL     1      -3.128   1.203   9.641  0.00  0.00    +0.005 A 
ATOM     28  C   UNL     1      -3.839   1.080   8.462  0.00  0.00    +0.000 A 
ATOM     29  C   UNL     1      -4.862   0.155   8.365  0.00  0.00    +0.000 A 
ATOM     30  C   UNL     1      -5.175  -0.646   9.447  0.00  0.00    +0.000 A 
ATOM     31  C   UNL     1      -4.460  -0.526  10.625  0.00  0.00    +0.005 A 
ENDBRANCH  25  26
ENDBRANCH  23  25
ENDBRANCH  20  23
ENDBRANCH  17  20
ENDBRANCH  12  14
BRANCH  11  32
ATOM     32  C   UNL     1      -0.669  -2.793   5.956  0.00  0.00    +0.097 C 
BRANCH  32  33
ATOM     33  C   UNL     1      -0.047  -4.149   6.295  0.00  0.00    -0.060 C 
BRANCH  33  34
ATOM     34  N   UNL     1      -0.986  -4.928   7.114  0.00  0.00    +0.377 N 
ATOM     35  C   UNL     1      -0.447  -6.277   7.328  0.00  0.00    -0.097 C 
ATOM     36  C   UNL     1      -1.170  -4.263   8.412  0.00  0.00    -0.097 C 
ATOM     37  H   UNL     1      -1.874  -4.991   6.640  0.00  0.00    -0.083 HD
ENDBRANCH  33  34
ENDBRANCH  32  33
ENDBRANCH  11  32
TORSDOF 8
