REMARK  Name = ZINC08437647
REMARK  12 active torsions:
REMARK  status: ('A' for Active; 'I' for Inactive)
REMARK    1  A    between atoms: C_1  and  C_2
REMARK    2  A    between atoms: C_2  and  O_3
REMARK    3  A    between atoms: O_3  and  C_4
REMARK    4  A    between atoms: C_6  and  C_15
REMARK    5  A    between atoms: C_9  and  O_10
REMARK    6  A    between atoms: O_10  and  C_11
REMARK    7  A    between atoms: C_11  and  C_12
REMARK    8  A    between atoms: C_18  and  C_29
REMARK    9  A    between atoms: C_24  and  N_28
REMARK   10  A    between atoms: C_25  and  C_26
REMARK   11  A    between atoms: C_32  and  O_35
REMARK   12  A    between atoms: O_35  and  C_36
REMARK                            x       y       z     vdW  Elec       q    Type
REMARK                         _______ _______ _______ _____ _____    ______ ____
ROOT
ATOM      1  C   UNL     1       0.782  -4.980  -0.011  0.00  0.00    +0.102 C 
ATOM      2  C   UNL     1       0.617  -5.926  -1.172  0.00  0.00    +0.054 A 
ATOM      3  C   UNL     1       0.720  -5.671  -2.543  0.00  0.00    +0.100 A 
ATOM      4  N   UNL     1       0.496  -6.802  -3.185  0.00  0.00    -0.171 NA
ATOM      5  N   UNL     1       0.245  -7.806  -2.236  0.00  0.00    -0.246 N 
ATOM      6  H   UNL     1       0.050  -8.736  -2.429  0.00  0.00    +0.192 HD
ATOM      7  C   UNL     1       0.325  -7.250  -1.010  0.00  0.00    +0.223 A 
ATOM      8  O   UNL     1       0.162  -7.819   0.210  0.00  0.00    -0.423 OA
ATOM      9  C   UNL     1       0.562  -7.114   1.288  0.00  0.00    +0.200 C 
ATOM     10  C   UNL     1       0.869  -5.797   1.254  0.00  0.00    +0.098 C 
ENDROOT
BRANCH   1  13
ATOM     11  C   UNL     1      -1.301  -1.831   0.119  0.00  0.00    +0.162 A 
ATOM     12  C   UNL     1      -0.212  -2.685   0.051  0.00  0.00    +0.054 A 
ATOM     13  C   UNL     1      -0.404  -4.054   0.062  0.00  0.00    -0.031 A 
ATOM     14  C   UNL     1      -1.683  -4.574   0.140  0.00  0.00    +0.008 A 
ATOM     15  C   UNL     1      -2.774  -3.729   0.207  0.00  0.00    +0.050 A 
ATOM     16  C   UNL     1      -2.588  -2.356   0.202  0.00  0.00    +0.163 A 
BRANCH  11  17
ATOM     17  O   UNL     1      -1.114  -0.484   0.108  0.00  0.00    -0.489 OA
BRANCH  17  19
ATOM     18  C   UNL     1       0.245   1.512   0.022  0.00  0.00    +0.048 C 
ATOM     19  C   UNL     1       0.234  -0.018   0.021  0.00  0.00    +0.226 C 
ENDBRANCH  17  19
ENDBRANCH  11  17
BRANCH  16  20
ATOM     20  O   UNL     1      -3.660  -1.522   0.274  0.00  0.00    -0.479 OA
BRANCH  20  21
ATOM     21  C   UNL     1      -4.950  -2.131   0.358  0.00  0.00    +0.324 C 
BRANCH  21  22
ATOM     22  C   UNL     1      -6.007  -1.059   0.429  0.00  0.00    +0.248 C 
ATOM     23  O   UNL     1      -5.687   0.111   0.410  0.00  0.00    -0.272 OA
ATOM     24  N   UNL     1      -7.308  -1.400   0.514  0.00  0.00    -0.327 N 
ATOM     25  H   UNL     1      -7.564  -2.336   0.529  0.00  0.00    +0.145 HD
ATOM     26  H   UNL     1      -7.989  -0.710   0.560  0.00  0.00    +0.145 HD
ENDBRANCH  21  22
ENDBRANCH  20  21
ENDBRANCH  16  20
ENDBRANCH   1  13
BRANCH   3  27
ATOM     27  C   UNL     1       1.027  -4.359  -3.166  0.00  0.00    +0.003 A 
ATOM     28  C   UNL     1       2.018  -3.543  -2.623  0.00  0.00    +0.013 A 
ATOM     29  C   UNL     1       2.301  -2.325  -3.204  0.00  0.00    +0.046 A 
ATOM     30  C   UNL     1       1.599  -1.911  -4.329  0.00  0.00    +0.120 A 
ATOM     31  C   UNL     1       0.612  -2.721  -4.871  0.00  0.00    +0.046 A 
ATOM     32  C   UNL     1       0.329  -3.944  -4.298  0.00  0.00    +0.013 A 
BRANCH  30  33
ATOM     33  O   UNL     1       1.880  -0.710  -4.899  0.00  0.00    -0.495 OA
ATOM     34  C   UNL     1       1.121  -0.347  -6.053  0.00  0.00    +0.277 C 
ENDBRANCH  30  33
ENDBRANCH   3  27
BRANCH   9  35
ATOM     35  N   UNL     1       0.667  -7.771   2.488  0.00  0.00    -0.328 N 
ATOM     36  H   UNL     1       0.455  -8.716   2.544  0.00  0.00    +0.145 HD
ATOM     37  H   UNL     1       0.953  -7.291   3.281  0.00  0.00    +0.145 HD
ENDBRANCH   9  35
BRANCH  10  38
ATOM     38  C   UNL     1       1.290  -5.154   2.463  0.00  0.00    +0.101 C 
ATOM     39  N   UNL     1       1.623  -4.645   3.422  0.00  0.00    -0.191 NA
ENDBRANCH  10  38
TORSDOF 10
