REMARK  Name = ZINC03646668
REMARK  6 active torsions:
REMARK  status: ('A' for Active; 'I' for Inactive)
REMARK    1  A    between atoms: C_1  and  C_2
REMARK    2  A    between atoms: C_7  and  C_34
REMARK    3  A    between atoms: C_10  and  C_12
REMARK    4  A    between atoms: C_12  and  N_13
REMARK    5  A    between atoms: C_15  and  C_22
REMARK    6  A    between atoms: N_30  and  C_33
REMARK                            x       y       z     vdW  Elec       q    Type
REMARK                         _______ _______ _______ _____ _____    ______ ____
ROOT
ATOM      1  N   UNL     1       2.554   0.781   4.271  0.00  0.00    -0.337 N 
ATOM      2  C   UNL     1       3.618   1.598   4.089  0.00  0.00    +0.095 A 
ATOM      3  C   UNL     1       3.472   2.725   4.871  0.00  0.00    +0.001 A 
ATOM      4  C   UNL     1       2.193   2.565   5.591  0.00  0.00    +0.007 A 
ATOM      5  C   UNL     1       1.665   1.335   5.171  0.00  0.00    +0.050 A 
ATOM      6  C   UNL     1       0.444   0.907   5.682  0.00  0.00    +0.026 A 
ATOM      7  C   UNL     1      -0.235   1.692   6.589  0.00  0.00    +0.002 A 
ATOM      8  C   UNL     1       0.287   2.909   7.000  0.00  0.00    +0.001 A 
ATOM      9  C   UNL     1       1.500   3.345   6.511  0.00  0.00    +0.010 A 
ENDROOT
BRANCH   3  10
ATOM     10  C   UNL     1       4.369   3.817   4.964  0.00  0.00    +0.023 C 
ATOM     11  C   UNL     1       4.899   4.374   3.818  0.00  0.00    +0.047 C 
ATOM     12  C   UNL     1       4.481   4.127   2.420  0.00  0.00    +0.009 A 
ATOM     13  C   UNL     1       3.502   3.322   1.845  0.00  0.00    +0.010 A 
ATOM     14  C   UNL     1       3.350   3.304   0.473  0.00  0.00    +0.001 A 
ATOM     15  C   UNL     1       4.169   4.084  -0.327  0.00  0.00    +0.002 A 
ATOM     16  C   UNL     1       5.143   4.885   0.234  0.00  0.00    +0.024 A 
ATOM     17  C   UNL     1       5.311   4.917   1.614  0.00  0.00    +0.044 A 
ATOM     18  N   UNL     1       6.196   5.620   2.422  0.00  0.00    -0.270 N 
ATOM     19  C   UNL     1       5.996   5.345   3.723  0.00  0.00    +0.251 C 
ATOM     20  O   UNL     1       6.618   5.816   4.658  0.00  0.00    -0.270 OA
ATOM     21  C   UNL     1       7.214   6.546   1.922  0.00  0.00    +0.138 C 
ENDBRANCH   3  10
BRANCH   1  22
ATOM     22  C   UNL     1       2.368  -0.509   3.602  0.00  0.00    +0.217 C 
BRANCH  22  30
ATOM     23  C   UNL     1       0.538   0.479  -0.002  0.00  0.00    +0.028 C 
ATOM     24  C   UNL     1       1.056  -0.960   0.052  0.00  0.00    +0.073 C 
ATOM     25  C   UNL     1      -0.066  -1.924  -0.347  0.00  0.00    +0.022 C 
ATOM     26  C   UNL     1       0.415  -3.365  -0.157  0.00  0.00    +0.004 C 
ATOM     27  C   UNL     1       0.754  -3.602   1.317  0.00  0.00    +0.022 C 
ATOM     28  C   UNL     1       1.884  -2.656   1.734  0.00  0.00    +0.073 C 
ATOM     29  N   UNL     1       1.491  -1.275   1.420  0.00  0.00    -0.294 N 
ATOM     30  C   UNL     1       1.524  -0.318   2.368  0.00  0.00    +0.236 C 
ATOM     31  O   UNL     1       0.876   0.697   2.228  0.00  0.00    -0.274 OA
ATOM     32  C   UNL     1       2.137  -2.791   3.237  0.00  0.00    +0.028 C 
ENDBRANCH  22  30
ENDBRANCH   1  22
TORSDOF 3
