REMARK  Name = ZINC45654565
REMARK  7 active torsions:
REMARK  status: ('A' for Active; 'I' for Inactive)
REMARK    1  A    between atoms: C_1  and  C_2
REMARK    2  A    between atoms: C_2  and  C_3
REMARK    3  A    between atoms: C_2  and  N_4
REMARK    4  A    between atoms: C_7  and  N_10
REMARK    5  A    between atoms: N_10  and  C_11
REMARK    6  A    between atoms: C_14  and  S_18
REMARK    7  A    between atoms: S_18  and  N_21
REMARK                            x       y       z     vdW  Elec       q    Type
REMARK                         _______ _______ _______ _____ _____    ______ ____
ROOT
ATOM      1  C   UNL     1      -4.418  -4.089  -0.634  0.00  0.00    +0.042 A 
ATOM      2  C   UNL     1      -4.413  -4.245  -2.014  0.00  0.00    +0.026 A 
ATOM      3  C   UNL     1      -5.300  -5.118  -2.612  0.00  0.00    +0.030 A 
ATOM      4  C   UNL     1      -6.193  -5.837  -1.839  0.00  0.00    +0.106 A 
ATOM      5  C   UNL     1      -6.202  -5.685  -0.465  0.00  0.00    +0.045 A 
ATOM      6  C   UNL     1      -5.313  -4.817   0.141  0.00  0.00    +0.041 A 
ATOM      7 BR   UNL     1      -5.321  -4.614   2.021  0.00  0.00    -0.048 Br
ENDROOT
BRANCH   4   8
ATOM      8  S   UNL     1      -7.323  -6.949  -2.607  0.00  0.00    +0.056 S 
ATOM      9  O   UNL     1      -8.420  -7.093  -1.716  0.00  0.00    -0.153 OA
ATOM     10  O   UNL     1      -7.484  -6.505  -3.947  0.00  0.00    -0.153 OA
BRANCH   8  11
ATOM     11  N   UNL     1      -6.579  -8.427  -2.685  0.00  0.00    -0.204 NA
ATOM     12  H   UNL     1      -5.681  -8.537  -2.337  0.00  0.00    +0.144 HD
ATOM     13  H   UNL     1      -7.042  -9.183  -3.079  0.00  0.00    +0.144 HD
ENDBRANCH   8  11
ENDBRANCH   4   8
BRANCH   1  14
ATOM     14  N   UNL     1      -3.522  -3.207  -0.025  0.00  0.00    -0.342 N 
ATOM     15  H   UNL     1      -3.524  -3.102   0.939  0.00  0.00    +0.146 HD
BRANCH  14  19
ATOM     16  N   UNL     1      -1.376  -0.512   0.012  0.00  0.00    +0.382 N 
ATOM     17  C   UNL     1      -2.083  -0.102  -1.228  0.00  0.00    -0.077 C 
ATOM     18  C   UNL     1      -3.236  -1.131  -1.335  0.00  0.00    +0.002 C 
ATOM     19  C   UNL     1      -2.579  -2.440  -0.843  0.00  0.00    +0.052 C 
ATOM     20  C   UNL     1      -1.374  -1.992   0.004  0.00  0.00    -0.056 C 
ATOM     21  H   UNL     1      -1.868  -0.170   0.824  0.00  0.00    -0.081 HD
BRANCH  16  23
ATOM     22  C   UNL     1      -0.019   1.526   0.010  0.00  0.00    -0.014 C 
ATOM     23  C   UNL     1       0.002  -0.004   0.002  0.00  0.00    -0.075 C 
ATOM     24  C   UNL     1       0.742  -0.511   1.242  0.00  0.00    -0.014 C 
ENDBRANCH  16  23
ENDBRANCH  14  19
ENDBRANCH   1  14
TORSDOF 5
