REMARK  Name = ZINC38547731
REMARK  9 active torsions:
REMARK  status: ('A' for Active; 'I' for Inactive)
REMARK    1  A    between atoms: C_1  and  C_2
REMARK    2  A    between atoms: C_6  and  N_8
REMARK    3  A    between atoms: N_8  and  C_9
REMARK    4  A    between atoms: C_9  and  C_11
REMARK    5  A    between atoms: C_9  and  C_16
REMARK    6  A    between atoms: C_17  and  C_30
REMARK    7  A    between atoms: C_18  and  C_29
REMARK    8  A    between atoms: C_20  and  N_21
REMARK    9  A    between atoms: C_22  and  C_24
REMARK                            x       y       z     vdW  Elec       q    Type
REMARK                         _______ _______ _______ _____ _____    ______ ____
ROOT
ATOM      1  C   UNL     1       0.065  -4.104   2.466  0.00  0.00    +0.141 C 
ENDROOT
BRANCH   1   2
ATOM      2  C   UNL     1       0.789  -4.551   3.710  0.00  0.00    +0.009 A 
ATOM      3  C   UNL     1       1.800  -5.492   3.637  0.00  0.00    -0.033 A 
ATOM      4  C   UNL     1       2.430  -5.871   4.774  0.00  0.00    -0.008 A 
ATOM      5  S   UNL     1       1.596  -4.888   6.009  0.00  0.00    -0.078 S 
ATOM      6  C   UNL     1       0.464  -4.031   4.927  0.00  0.00    +0.078 A 
ATOM      7  C   UNL     1       3.548  -6.867   4.952  0.00  0.00    +0.052 C 
ATOM      8  C   UNL     1       2.193  -6.088   2.310  0.00  0.00    +0.045 C 
BRANCH   6   9
ATOM      9  N   UNL     1      -0.505  -3.077   5.245  0.00  0.00    -0.273 N 
ATOM     10  C   UNL     1      -0.609  -2.617   6.508  0.00  0.00    +0.284 C 
ATOM     11  O   UNL     1       0.142  -3.033   7.371  0.00  0.00    -0.266 OA
ATOM     12  H   UNL     1      -1.103  -2.745   4.557  0.00  0.00    +0.156 HD
BRANCH  10  13
ATOM     13  C   UNL     1      -1.626  -1.615   6.842  0.00  0.00    +0.189 A 
ATOM     14  C   UNL     1      -1.835  -1.064   8.073  0.00  0.00    +0.054 A 
ATOM     15  C   UNL     1      -2.899  -0.159   7.935  0.00  0.00    +0.042 A 
ATOM     16  C   UNL     1      -3.289  -0.198   6.642  0.00  0.00    +0.196 A 
ATOM     17  O   UNL     1      -2.516  -1.073   5.985  0.00  0.00    -0.458 OA
ENDBRANCH  10  13
ENDBRANCH   6   9
ENDBRANCH   1   2
BRANCH   1  18
ATOM     18  C   UNL     1      -1.316  -4.707   2.445  0.00  0.00    +0.014 A 
ATOM     19  C   UNL     1      -1.764  -5.793   1.769  0.00  0.00    +0.013 A 
ATOM     20  C   UNL     1      -3.088  -6.167   1.902  0.00  0.00    +0.008 A 
ATOM     21  C   UNL     1      -3.899  -5.438   2.706  0.00  0.00    +0.045 A 
ATOM     22  S   UNL     1      -2.786  -4.180   3.312  0.00  0.00    -0.099 S 
ENDBRANCH   1  18
BRANCH   1  23
ATOM     23  N   UNL     1      -0.039  -2.643   2.460  0.00  0.00    -0.319 N 
ATOM     24  H   UNL     1       0.058  -2.147   3.288  0.00  0.00    +0.148 HD
BRANCH  23  30
ATOM     25  C   UNL     1      -0.697   1.534   0.216  0.00  0.00    +0.063 C 
ATOM     26  C   UNL     1      -0.599   0.031   0.162  0.00  0.00    +0.014 A 
ATOM     27  C   UNL     1      -0.748  -0.618  -1.048  0.00  0.00    +0.021 A 
ATOM     28  C   UNL     1      -0.656  -2.002  -1.093  0.00  0.00    +0.005 A 
ATOM     29  C   UNL     1      -0.418  -2.687   0.086  0.00  0.00    +0.041 A 
ATOM     30  C   UNL     1      -0.279  -1.968   1.269  0.00  0.00    +0.097 A 
ATOM     31  N   UNL     1      -0.367  -0.647   1.269  0.00  0.00    -0.347 N 
ATOM     32  H   UNL     1      -0.263  -0.166   2.105  0.00  0.00    +0.167 HD
ENDBRANCH  23  30
ENDBRANCH   1  23
TORSDOF 6
