REMARK  Name = ZINC44854566
REMARK  5 active torsions:
REMARK  status: ('A' for Active; 'I' for Inactive)
REMARK    1  A    between atoms: C_4  and  N_7
REMARK    2  A    between atoms: C_8  and  N_37
REMARK    3  A    between atoms: C_10  and  C_32
REMARK    4  A    between atoms: N_19  and  C_22
REMARK    5  A    between atoms: C_26  and  C_28
REMARK                            x       y       z     vdW  Elec       q    Type
REMARK                         _______ _______ _______ _____ _____    ______ ____
ROOT
ATOM      1  N   UNL     1       3.447  -0.734   0.316  0.00  0.00    -0.216 N 
ATOM      2  C   UNL     1       3.897  -1.883   0.860  0.00  0.00    +0.131 A 
ATOM      3  C   UNL     1       5.212  -2.052   0.449  0.00  0.00    +0.087 A 
ATOM      4  C   UNL     1       6.224  -3.021   0.660  0.00  0.00    +0.095 A 
ATOM      5  N   UNL     1       7.406  -2.833   0.078  0.00  0.00    -0.213 NA
ATOM      6  C   UNL     1       7.656  -1.775  -0.685  0.00  0.00    +0.220 A 
ATOM      7  N   UNL     1       6.774  -0.828  -0.933  0.00  0.00    -0.193 NA
ATOM      8  C   UNL     1       5.535  -0.895  -0.404  0.00  0.00    +0.189 A 
ATOM      9  N   UNL     1       4.456  -0.147  -0.456  0.00  0.00    -0.144 NA
ATOM     10  N   UNL     1       8.913  -1.661  -1.251  0.00  0.00    -0.297 N 
ATOM     11  C   UNL     1       9.936  -2.689  -1.015  0.00  0.00    +0.127 C 
ATOM     12  C   UNL     1      10.432  -3.207  -2.371  0.00  0.00    +0.124 C 
ATOM     13  N   UNL     1      10.768  -2.055  -3.219  0.00  0.00    -0.327 N 
ATOM     14  C   UNL     1       9.745  -1.027  -3.455  0.00  0.00    +0.124 C 
ATOM     15  C   UNL     1       9.248  -0.511  -2.104  0.00  0.00    +0.127 C 
ENDROOT
BRANCH   1  19
ATOM     16  C   UNL     1      -0.382   0.824   0.840  0.00  0.00    +0.000 A 
ATOM     17  C   UNL     1       0.701   1.677   0.730  0.00  0.00    +0.002 A 
ATOM     18  C   UNL     1       1.971   1.164   0.556  0.00  0.00    +0.028 A 
ATOM     19  C   UNL     1       2.161  -0.211   0.493  0.00  0.00    +0.067 A 
ATOM     20  C   UNL     1       1.071  -1.065   0.604  0.00  0.00    +0.028 A 
ATOM     21  C   UNL     1      -0.197  -0.545   0.778  0.00  0.00    +0.002 A 
ENDBRANCH   1  19
BRANCH  13  22
ATOM     22  C   UNL     1      12.038  -1.940  -3.791  0.00  0.00    +0.030 A 
ATOM     23  C   UNL     1      12.952  -2.979  -3.672  0.00  0.00    +0.023 A 
ATOM     24  C   UNL     1      14.206  -2.861  -4.239  0.00  0.00    +0.002 A 
ATOM     25  C   UNL     1      14.552  -1.711  -4.923  0.00  0.00    +0.012 A 
ATOM     26  C   UNL     1      13.645  -0.674  -5.043  0.00  0.00    +0.057 A 
ATOM     27  C   UNL     1      12.386  -0.788  -4.484  0.00  0.00    +0.035 A 
BRANCH  26  28
ATOM     28  C   UNL     1      14.027   0.578  -5.790  0.00  0.00    +0.417 C 
ATOM     29  F   UNL     1      15.336   0.456  -6.265  0.00  0.00    -0.166 F 
ATOM     30  F   UNL     1      13.154   0.763  -6.868  0.00  0.00    -0.166 F 
ATOM     31  F   UNL     1      13.943   1.678  -4.929  0.00  0.00    -0.166 F 
ENDBRANCH  26  28
ENDBRANCH  13  22
BRANCH   4  32
ATOM     32  C   UNL     1       5.975  -4.202   1.500  0.00  0.00    +0.038 A 
ATOM     33  C   UNL     1       4.885  -5.056   1.505  0.00  0.00    +0.017 A 
ATOM     34  C   UNL     1       4.937  -6.087   2.416  0.00  0.00    +0.008 A 
ATOM     35  C   UNL     1       6.018  -6.197   3.224  0.00  0.00    +0.046 A 
ATOM     36  S   UNL     1       7.002  -4.912   2.773  0.00  0.00    -0.095 S 
ENDBRANCH   4  32
BRANCH   2  37
ATOM     37  N   UNL     1       3.180  -2.736   1.679  0.00  0.00    -0.342 N 
ATOM     38  H   UNL     1       2.280  -2.501   1.954  0.00  0.00    +0.144 HD
ATOM     39  H   UNL     1       3.577  -3.569   1.977  0.00  0.00    +0.144 HD
ENDBRANCH   2  37
TORSDOF 5
