REMARK  Name = ZINC65356908
REMARK  12 active torsions:
REMARK  status: ('A' for Active; 'I' for Inactive)
REMARK    1  A    between atoms: C_1  and  C_2
REMARK    2  A    between atoms: C_4  and  C_12
REMARK    3  A    between atoms: C_12  and  C_14
REMARK    4  A    between atoms: C_12  and  O_28
REMARK    5  A    between atoms: C_14  and  N_15
REMARK    6  A    between atoms: N_15  and  C_16
REMARK    7  A    between atoms: C_16  and  C_17
REMARK    8  A    between atoms: C_17  and  C_18
REMARK    9  A    between atoms: C_21  and  O_26
REMARK   10  A    between atoms: C_22  and  O_24
REMARK   11  A    between atoms: O_24  and  C_25
REMARK   12  A    between atoms: O_26  and  C_27
REMARK                            x       y       z     vdW  Elec       q    Type
REMARK                         _______ _______ _______ _____ _____    ______ ____
ROOT
ATOM      1  C   UNL     1       1.430  -0.856  -3.578  0.00  0.00    -0.046 C 
ENDROOT
BRANCH   1   2
ATOM      2  N   UNL     1       1.192  -0.418  -4.959  0.00  0.00    +0.381 N 
ATOM      3  H   UNL     1       0.284  -0.738  -5.262  0.00  0.00    -0.086 HD
ATOM      4  H   UNL     1       1.226   0.590  -5.004  0.00  0.00    -0.086 HD
BRANCH   2   5
ATOM      5  C   UNL     1       2.227  -0.982  -5.837  0.00  0.00    -0.078 C 
BRANCH   5   6
ATOM      6  C   UNL     1       1.978  -0.526  -7.276  0.00  0.00    +0.016 C 
BRANCH   6   7
ATOM      7  C   UNL     1       3.040  -1.104  -8.176  0.00  0.00    -0.045 A 
ATOM      8  C   UNL     1       4.213  -0.407  -8.396  0.00  0.00    +0.007 A 
ATOM      9  C   UNL     1       5.190  -0.933  -9.221  0.00  0.00    +0.049 A 
ATOM     10  C   UNL     1       4.994  -2.163  -9.829  0.00  0.00    +0.161 A 
ATOM     11  C   UNL     1       3.813  -2.865  -9.607  0.00  0.00    +0.162 A 
ATOM     12  C   UNL     1       2.841  -2.334  -8.776  0.00  0.00    +0.053 A 
BRANCH  11  13
ATOM     13  O   UNL     1       3.617  -4.072 -10.202  0.00  0.00    -0.491 OA
ATOM     14  C   UNL     1       2.381  -4.736  -9.929  0.00  0.00    +0.277 C 
ENDBRANCH  11  13
BRANCH  10  15
ATOM     15  O   UNL     1       5.954  -2.682 -10.641  0.00  0.00    -0.491 OA
ATOM     16  C   UNL     1       7.139  -1.905 -10.823  0.00  0.00    +0.277 C 
ENDBRANCH  10  15
ENDBRANCH   6   7
ENDBRANCH   5   6
ENDBRANCH   2   5
ENDBRANCH   1   2
BRANCH   1  17
ATOM     17  C   UNL     1       0.353  -0.268  -2.664  0.00  0.00    +0.126 C 
BRANCH  17  20
ATOM     18  C   UNL     1       2.221   1.183  -0.448  0.00  0.00    +0.035 C 
ATOM     19  C   UNL     1       0.974   0.364  -0.112  0.00  0.00    +0.105 C 
ATOM     20  C   UNL     1       0.670  -0.608  -1.230  0.00  0.00    -0.012 C 
ATOM     21  C   UNL     1       0.742  -1.843  -0.683  0.00  0.00    +0.002 A 
ATOM     22  C   UNL     1       0.552  -3.188  -1.238  0.00  0.00    +0.010 A 
ATOM     23  C   UNL     1       0.693  -4.259  -0.425  0.00  0.00    +0.001 A 
ATOM     24  C   UNL     1       1.014  -4.117   0.932  0.00  0.00    +0.002 A 
ATOM     25  C   UNL     1       1.204  -2.914   1.514  0.00  0.00    +0.026 A 
ATOM     26  C   UNL     1       1.081  -1.719   0.752  0.00  0.00    +0.043 A 
ATOM     27  N   UNL     1       1.213  -0.456   1.081  0.00  0.00    -0.378 N 
ATOM     28  H   UNL     1       1.432  -0.119   1.965  0.00  0.00    +0.160 HD
ENDBRANCH  17  20
BRANCH  17  29
ATOM     29  O   UNL     1      -0.919  -0.818  -3.013  0.00  0.00    -0.389 OA
ATOM     30  H   UNL     1      -0.968  -1.780  -2.930  0.00  0.00    +0.210 HD
ENDBRANCH  17  29
ENDBRANCH   1  17
TORSDOF 9
