REMARK  Name = ZINC04725072
REMARK  2 active torsions:
REMARK  status: ('A' for Active; 'I' for Inactive)
REMARK    1  A    between atoms: C_12  and  C_18
REMARK    2  A    between atoms: N_20  and  C_21
REMARK                            x       y       z     vdW  Elec       q    Type
REMARK                         _______ _______ _______ _____ _____    ______ ____
ROOT
ATOM      1  C   UNL     1       3.893   0.086   6.148  0.00  0.00    +0.002 A 
ATOM      2  C   UNL     1       5.017  -0.710   6.315  0.00  0.00    +0.001 A 
ATOM      3  C   UNL     1       5.637  -1.250   5.203  0.00  0.00    +0.017 A 
ATOM      4  C   UNL     1       5.131  -0.991   3.953  0.00  0.00    +0.041 A 
ATOM      5  C   UNL     1       3.989  -0.185   3.745  0.00  0.00    +0.080 A 
ATOM      6  C   UNL     1       3.382   0.350   4.904  0.00  0.00    +0.029 A 
ATOM      7  N   UNL     1       3.617  -0.019   2.457  0.00  0.00    -0.225 NA
ATOM      8  C   UNL     1       4.263  -0.576   1.459  0.00  0.00    +0.165 A 
ATOM      9  S   UNL     1       5.577  -1.452   2.296  0.00  0.00    -0.052 S 
ATOM     10  N   UNL     1       3.999  -0.500   0.103  0.00  0.00    -0.268 N 
ATOM     11  C   UNL     1       2.990   0.318  -0.357  0.00  0.00    +0.167 C 
ATOM     12  C   UNL     1       1.282   1.968   0.044  0.00  0.00    +0.176 C 
ATOM     13  C   UNL     1       1.577   2.491  -1.363  0.00  0.00    +0.130 C 
ATOM     14  C   UNL     1       1.990   1.336  -2.242  0.00  0.00    +0.222 C 
ATOM     15  O   UNL     1       1.713   1.334  -3.422  0.00  0.00    -0.275 OA
ATOM     16  N   UNL     1       2.668   0.304  -1.698  0.00  0.00    -0.260 N 
ATOM     17  H   UNL     1       4.523  -1.022  -0.524  0.00  0.00    +0.157 HD
ATOM     18  H   UNL     1       2.931  -0.448  -2.252  0.00  0.00    +0.157 HD
ATOM     19  N   UNL     1       2.385   1.081   0.558  0.00  0.00    -0.349 N 
ATOM     20  H   UNL     1       2.656   1.065   1.548  0.00  0.00    +0.163 HD
ENDROOT
BRANCH  12  21
ATOM     21  C   UNL     1      -0.016   1.204   0.032  0.00  0.00    +0.240 C 
ATOM     22  O   UNL     1      -0.006  -0.009  -0.011  0.00  0.00    -0.273 OA
ATOM     23  N   UNL     1      -1.189   1.867   0.063  0.00  0.00    -0.283 N 
ATOM     24  H   UNL     1      -1.198   2.832   0.156  0.00  0.00    +0.155 HD
BRANCH  23  25
ATOM     25  C   UNL     1      -2.395   1.163  -0.039  0.00  0.00    +0.052 A 
ATOM     26  C   UNL     1      -2.458  -0.169   0.350  0.00  0.00    +0.025 A 
ATOM     27  C   UNL     1      -3.650  -0.859   0.254  0.00  0.00    +0.002 A 
ATOM     28  C   UNL     1      -4.778  -0.230  -0.241  0.00  0.00    +0.002 A 
ATOM     29  C   UNL     1      -4.718   1.094  -0.635  0.00  0.00    +0.022 A 
ATOM     30  C   UNL     1      -3.529   1.793  -0.536  0.00  0.00    +0.062 A 
ATOM     31 CL   UNL     1      -3.454   3.455  -1.031  0.00  0.00    -0.082 Cl
ENDBRANCH  23  25
ENDBRANCH  12  21
TORSDOF 2
