REMARK  Name = ZINC38550585
REMARK  10 active torsions:
REMARK  status: ('A' for Active; 'I' for Inactive)
REMARK    1  A    between atoms: C_1  and  C_2
REMARK    2  A    between atoms: C_4  and  C_16
REMARK    3  A    between atoms: C_5  and  N_7
REMARK    4  A    between atoms: C_8  and  C_10
REMARK    5  A    between atoms: C_16  and  C_18
REMARK    6  A    between atoms: C_16  and  N_28
REMARK    7  A    between atoms: C_21  and  O_26
REMARK    8  A    between atoms: C_23  and  O_24
REMARK    9  A    between atoms: O_24  and  C_25
REMARK   10  A    between atoms: O_26  and  C_27
REMARK                            x       y       z     vdW  Elec       q    Type
REMARK                         _______ _______ _______ _____ _____    ______ ____
ROOT
ATOM      1  C   UNL     1      -1.784  -3.225   0.166  0.00  0.00    +0.138 C 
ENDROOT
BRANCH   1   2
ATOM      2  N   UNL     1      -2.956  -2.539   0.717  0.00  0.00    -0.319 N 
ATOM      3  C   UNL     1      -3.483  -1.432   0.064  0.00  0.00    +0.097 A 
ATOM      4  C   UNL     1      -3.037  -1.106  -1.213  0.00  0.00    +0.041 A 
ATOM      5  C   UNL     1      -3.570  -0.002  -1.851  0.00  0.00    +0.005 A 
ATOM      6  C   UNL     1      -4.537   0.744  -1.188  0.00  0.00    +0.018 A 
ATOM      7  C   UNL     1      -4.933   0.364   0.078  0.00  0.00    +0.084 A 
ATOM      8  N   UNL     1      -4.411  -0.699   0.660  0.00  0.00    -0.350 N 
ATOM      9  H   UNL     1      -3.363  -2.858   1.538  0.00  0.00    +0.148 HD
ATOM     10  H   UNL     1      -4.710  -0.946   1.549  0.00  0.00    +0.166 HD
ENDBRANCH   1   2
BRANCH   1  14
ATOM     11  C   UNL     1       1.394  -0.218  -2.440  0.00  0.00    +0.051 C 
ATOM     12  C   UNL     1       0.788  -0.888  -1.233  0.00  0.00    -0.011 A 
ATOM     13  C   UNL     1      -0.246  -1.760  -1.172  0.00  0.00    +0.018 A 
ATOM     14  C   UNL     1      -0.638  -2.254   0.059  0.00  0.00    +0.006 A 
ATOM     15  C   UNL     1       0.032  -1.845   1.173  0.00  0.00    +0.077 A 
ATOM     16  S   UNL     1       1.254  -0.741   0.484  0.00  0.00    -0.078 S 
BRANCH  15  17
ATOM     17  N   UNL     1      -0.179  -2.202   2.506  0.00  0.00    -0.276 N 
ATOM     18  C   UNL     1       0.525  -1.599   3.484  0.00  0.00    +0.249 C 
ATOM     19  O   UNL     1       1.277  -0.682   3.216  0.00  0.00    -0.270 OA
ATOM     20  H   UNL     1      -0.832  -2.884   2.728  0.00  0.00    +0.156 HD
BRANCH  18  21
ATOM     21  C   UNL     1       0.384  -2.053   4.884  0.00  0.00    +0.037 A 
ATOM     22  C   UNL     1      -0.554  -3.034   5.211  0.00  0.00    +0.013 A 
ATOM     23  C   UNL     1      -0.681  -3.453   6.520  0.00  0.00    +0.001 A 
ATOM     24  C   UNL     1       0.118  -2.903   7.506  0.00  0.00    +0.000 A 
ATOM     25  C   UNL     1       1.049  -1.930   7.188  0.00  0.00    +0.001 A 
ATOM     26  C   UNL     1       1.190  -1.506   5.883  0.00  0.00    +0.013 A 
ENDBRANCH  18  21
ENDBRANCH  15  17
ENDBRANCH   1  14
BRANCH   1  27
ATOM     27  C   UNL     1      -2.115  -3.765  -1.202  0.00  0.00    +0.019 A 
ATOM     28  C   UNL     1      -3.427  -3.787  -1.636  0.00  0.00    +0.013 A 
ATOM     29  C   UNL     1      -3.734  -4.280  -2.890  0.00  0.00    +0.046 A 
ATOM     30  C   UNL     1      -2.725  -4.756  -3.715  0.00  0.00    +0.124 A 
ATOM     31  C   UNL     1      -1.409  -4.736  -3.281  0.00  0.00    +0.091 A 
ATOM     32  C   UNL     1      -1.103  -4.234  -2.026  0.00  0.00    +0.129 A 
BRANCH  32  33
ATOM     33  O   UNL     1       0.188  -4.207  -1.600  0.00  0.00    -0.495 OA
ATOM     34  C   UNL     1       1.188  -4.612  -2.536  0.00  0.00    +0.277 C 
ENDBRANCH  32  33
BRANCH  30  35
ATOM     35  O   UNL     1      -3.027  -5.243  -4.948  0.00  0.00    -0.495 OA
ATOM     36  C   UNL     1      -4.404  -5.234  -5.329  0.00  0.00    +0.277 C 
ENDBRANCH  30  35
ENDBRANCH   1  27
TORSDOF 7
