REMARK  Name = ZINC58341333
REMARK  7 active torsions:
REMARK  status: ('A' for Active; 'I' for Inactive)
REMARK    1  A    between atoms: C_1  and  O_2
REMARK    2  A    between atoms: O_2  and  C_3
REMARK    3  A    between atoms: C_8  and  C_9
REMARK    4  A    between atoms: C_9  and  N_10
REMARK    5  A    between atoms: C_11  and  C_13
REMARK    6  A    between atoms: C_13  and  N_14
REMARK    7  A    between atoms: C_24  and  C_26
REMARK                            x       y       z     vdW  Elec       q    Type
REMARK                         _______ _______ _______ _____ _____    ______ ____
ROOT
ATOM      1  N   UNL     1      -4.264  -4.506   1.492  0.00  0.00    +0.395 N 
ATOM      2  C   UNL     1      -5.740  -4.593   1.315  0.00  0.00    -0.064 C 
ATOM      3  C   UNL     1      -6.169  -3.298   0.620  0.00  0.00    -0.015 C 
ATOM      4  C   UNL     1      -7.680  -3.105   0.711  0.00  0.00    -0.002 C 
ATOM      5  C   UNL     1      -8.066  -2.980   2.190  0.00  0.00    +0.000 C 
ATOM      6  C   UNL     1      -7.734  -4.301   2.882  0.00  0.00    +0.002 C 
ATOM      7  C   UNL     1      -6.267  -4.666   2.759  0.00  0.00    -0.026 C 
ATOM      8  C   UNL     1      -5.361  -3.655   3.491  0.00  0.00    -0.004 C 
ATOM      9  C   UNL     1      -3.994  -3.883   2.803  0.00  0.00    +0.020 C 
ATOM     10  H   UNL     1      -3.863  -5.432   1.466  0.00  0.00    -0.080 HD
ENDROOT
BRANCH   9  11
ATOM     11  C   UNL     1      -3.292  -2.564   2.608  0.00  0.00    +0.197 C 
ATOM     12  O   UNL     1      -3.856  -1.655   2.037  0.00  0.00    -0.278 OA
ATOM     13  N   UNL     1      -2.037  -2.395   3.070  0.00  0.00    -0.331 N 
ATOM     14  H   UNL     1      -1.586  -3.122   3.527  0.00  0.00    +0.145 HD
ATOM     15  H   UNL     1      -1.584  -1.546   2.945  0.00  0.00    +0.145 HD
ENDBRANCH   9  11
BRANCH   1  16
ATOM     16  C   UNL     1      -3.684  -3.683   0.422  0.00  0.00    +0.020 C 
BRANCH  16  18
ATOM     17  N   UNL     1      -1.431  -3.035  -0.366  0.00  0.00    -0.313 N 
ATOM     18  C   UNL     1      -2.180  -3.722   0.518  0.00  0.00    +0.197 C 
ATOM     19  O   UNL     1      -1.645  -4.371   1.392  0.00  0.00    -0.278 OA
ATOM     20  H   UNL     1      -1.859  -2.515  -1.065  0.00  0.00    +0.149 HD
BRANCH  17  21
ATOM     21  C   UNL     1       0.031  -3.072  -0.273  0.00  0.00    +0.143 C 
BRANCH  21  27
ATOM     22  C   UNL     1       0.688  -0.849  -1.229  0.00  0.00    +0.125 A 
ATOM     23  C   UNL     1       1.241  -0.075  -2.238  0.00  0.00    +0.046 A 
ATOM     24  C   UNL     1       1.725  -0.678  -3.383  0.00  0.00    +0.004 A 
ATOM     25  C   UNL     1       1.658  -2.052  -3.523  0.00  0.00    +0.001 A 
ATOM     26  C   UNL     1       1.107  -2.825  -2.519  0.00  0.00    +0.009 A 
ATOM     27  C   UNL     1       0.626  -2.228  -1.370  0.00  0.00    +0.011 A 
BRANCH  22  29
ATOM     28  C   UNL     1       0.307   1.165  -0.025  0.00  0.00    +0.277 C 
ATOM     29  O   UNL     1       0.211  -0.258  -0.101  0.00  0.00    -0.495 OA
ENDBRANCH  22  29
ENDBRANCH  21  27
ENDBRANCH  17  21
ENDBRANCH  16  18
ENDBRANCH   1  16
TORSDOF 6
