REMARK  Name = ZINC22851879
REMARK  8 active torsions:
REMARK  status: ('A' for Active; 'I' for Inactive)
REMARK    1  A    between atoms: C_1  and  O_2
REMARK    2  A    between atoms: O_2  and  C_3
REMARK    3  A    between atoms: C_6  and  N_9
REMARK    4  A    between atoms: N_12  and  C_15
REMARK    5  A    between atoms: C_15  and  C_17
REMARK    6  A    between atoms: C_15  and  C_24
REMARK    7  A    between atoms: C_25  and  O_37
REMARK    8  A    between atoms: C_30  and  C_32
REMARK                            x       y       z     vdW  Elec       q    Type
REMARK                         _______ _______ _______ _____ _____    ______ ____
ROOT
ATOM      1  C   UNL     1       3.501   2.017   1.237  0.00  0.00    +0.131 C 
ENDROOT
BRANCH   1   2
ATOM      2  C   UNL     1       3.970   1.654  -0.148  0.00  0.00    +0.076 A 
ATOM      3  C   UNL     1       5.138   1.124  -0.532  0.00  0.00    +0.228 A 
ATOM      4  N   UNL     1       5.385   0.857  -1.856  0.00  0.00    -0.173 N 
ATOM      5  C   UNL     1       4.396   1.165  -2.750  0.00  0.00    +0.200 A 
ATOM      6  S   UNL     1       3.117   1.825  -1.708  0.00  0.00    -0.047 S 
ATOM      7  N   UNL     1       4.782   0.859  -3.957  0.00  0.00    -0.197 NA
ATOM      8  C   UNL     1       6.020   0.346  -3.909  0.00  0.00    +0.218 A 
ATOM      9  N   UNL     1       6.428   0.324  -2.658  0.00  0.00    -0.138 NA
BRANCH   8  10
ATOM     10  C   UNL     1       6.800  -0.120  -5.074  0.00  0.00    +0.173 A 
ATOM     11  C   UNL     1       6.388  -0.102  -6.370  0.00  0.00    +0.053 A 
ATOM     12  C   UNL     1       7.442  -0.636  -7.138  0.00  0.00    +0.042 A 
ATOM     13  C   UNL     1       8.434  -0.950  -6.283  0.00  0.00    +0.196 A 
ATOM     14  O   UNL     1       8.046  -0.632  -5.038  0.00  0.00    -0.460 OA
ENDBRANCH   8  10
BRANCH   3  15
ATOM     15  O   UNL     1       6.088   0.843   0.400  0.00  0.00    -0.492 OA
ATOM     16  H   UNL     1       7.050   0.408   0.092  0.00  0.00    +0.294 HD
ENDBRANCH   3  15
ENDBRANCH   1   2
BRANCH   1  17
ATOM     17  C   UNL     1       3.421   3.516   1.363  0.00  0.00    -0.007 A 
ATOM     18  C   UNL     1       2.232   4.170   1.096  0.00  0.00    +0.007 A 
ATOM     19  C   UNL     1       2.159   5.545   1.212  0.00  0.00    +0.000 A 
ATOM     20  C   UNL     1       3.273   6.268   1.595  0.00  0.00    +0.001 A 
ATOM     21  C   UNL     1       4.462   5.615   1.863  0.00  0.00    +0.020 A 
ATOM     22  C   UNL     1       4.535   4.238   1.752  0.00  0.00    +0.046 A 
ATOM     23 CL   UNL     1       6.025   3.417   2.095  0.00  0.00    -0.083 Cl
ENDBRANCH   1  17
BRANCH   1  27
ATOM     24  N   UNL     1       0.309  -0.325   2.712  0.00  0.00    -0.327 N 
ATOM     25  C   UNL     1       0.745  -0.549   1.327  0.00  0.00    +0.120 C 
ATOM     26  C   UNL     1       2.161   0.001   1.145  0.00  0.00    +0.104 C 
ATOM     27  N   UNL     1       2.173   1.434   1.472  0.00  0.00    -0.288 NA
ATOM     28  C   UNL     1       1.737   1.659   2.857  0.00  0.00    +0.104 C 
ATOM     29  C   UNL     1       0.320   1.108   3.039  0.00  0.00    +0.120 C 
BRANCH  24  33
ATOM     30  C   UNL     1      -3.459  -1.978   3.379  0.00  0.00    +0.120 A 
ATOM     31  C   UNL     1      -2.797  -1.324   4.408  0.00  0.00    +0.047 A 
ATOM     32  C   UNL     1      -1.549  -0.775   4.188  0.00  0.00    +0.027 A 
ATOM     33  C   UNL     1      -0.956  -0.880   2.936  0.00  0.00    +0.030 A 
ATOM     34  C   UNL     1      -1.622  -1.531   1.906  0.00  0.00    +0.027 A 
ATOM     35  C   UNL     1      -2.867  -2.083   2.129  0.00  0.00    +0.047 A 
BRANCH  30  37
ATOM     36  C   UNL     1      -5.312  -3.177   2.493  0.00  0.00    +0.277 C 
ATOM     37  O   UNL     1      -4.689  -2.517   3.597  0.00  0.00    -0.495 OA
ENDBRANCH  30  37
ENDBRANCH  24  33
ENDBRANCH   1  27
TORSDOF 7
