REMARK  Name = ZINC12879872
REMARK  5 active torsions:
REMARK  status: ('A' for Active; 'I' for Inactive)
REMARK    1  A    between atoms: C_1  and  C_2
REMARK    2  A    between atoms: C_16  and  C_18
REMARK    3  A    between atoms: C_18  and  C_19
REMARK    4  A    between atoms: N_24  and  C_27
REMARK    5  A    between atoms: C_30  and  C_33
REMARK                            x       y       z     vdW  Elec       q    Type
REMARK                         _______ _______ _______ _____ _____    ______ ____
ROOT
ATOM      1  C   UNL     1      -2.244   7.695   3.467  0.00  0.00    +0.047 C 
ATOM      2  C   UNL     1      -1.094   6.792   3.102  0.00  0.00    -0.011 A 
ATOM      3  C   UNL     1       0.173   7.319   2.947  0.00  0.00    +0.046 A 
ATOM      4  C   UNL     1       1.235   6.498   2.611  0.00  0.00    +0.020 A 
ATOM      5  C   UNL     1       1.025   5.142   2.428  0.00  0.00    +0.006 A 
ATOM      6  C   UNL     1      -0.237   4.613   2.580  0.00  0.00    -0.027 A 
ATOM      7  C   UNL     1      -1.313   5.429   2.917  0.00  0.00    +0.040 A 
ATOM      8  N   UNL     1      -2.482   4.671   3.014  0.00  0.00    -0.286 N 
ATOM      9  C   UNL     1      -2.264   3.366   2.758  0.00  0.00    +0.211 C 
ATOM     10  O   UNL     1      -3.091   2.479   2.768  0.00  0.00    -0.277 OA
ATOM     11  C   UNL     1      -0.797   3.224   2.459  0.00  0.00    +0.050 C 
ATOM     12  C   UNL     1      -0.116   2.257   3.436  0.00  0.00    +0.088 C 
ATOM     13  C   UNL     1      -0.043   0.910   2.665  0.00  0.00    +0.074 C 
ATOM     14  C   UNL     1      -0.705   1.196   1.300  0.00  0.00    -0.049 C 
ATOM     15  C   UNL     1       1.442   0.702   2.466  0.00  0.00    +0.228 C 
ATOM     16  O   UNL     1       1.946  -0.237   1.889  0.00  0.00    -0.275 OA
ATOM     17  N   UNL     1       2.111   1.717   3.025  0.00  0.00    -0.210 N 
ATOM     18  C   UNL     1       1.337   2.644   3.600  0.00  0.00    +0.229 C 
ATOM     19  O   UNL     1       1.737   3.639   4.165  0.00  0.00    -0.275 OA
ATOM     20 CL   UNL     1       0.435   9.019   3.178  0.00  0.00    -0.083 Cl
ATOM     21  H   UNL     1      -3.350   5.041   3.239  0.00  0.00    +0.155 HD
ATOM     22  N   UNL     1      -0.582   2.647   1.142  0.00  0.00    +0.394 N 
ATOM     23  H   UNL     1       0.355   2.889   0.798  0.00  0.00    -0.083 HD
ATOM     24  H   UNL     1      -1.289   2.994   0.483  0.00  0.00    -0.083 HD
ENDROOT
BRANCH  17  25
ATOM     25  C   UNL     1       3.507   1.802   3.008  0.00  0.00    +0.044 A 
ATOM     26  C   UNL     1       4.175   1.997   1.804  0.00  0.00    +0.025 A 
ATOM     27  C   UNL     1       5.549   2.087   1.784  0.00  0.00    +0.015 A 
ATOM     28  C   UNL     1       6.272   1.971   2.974  0.00  0.00    +0.037 A 
ATOM     29  C   UNL     1       5.597   1.770   4.181  0.00  0.00    +0.015 A 
ATOM     30  C   UNL     1       4.223   1.687   4.194  0.00  0.00    +0.025 A 
BRANCH  28  31
ATOM     31  C   UNL     1       7.746   2.061   2.956  0.00  0.00    +0.242 C 
ATOM     32  O   UNL     1       8.374   1.959   3.993  0.00  0.00    -0.270 OA
ATOM     33  N   UNL     1       8.395   2.254   1.791  0.00  0.00    -0.325 N 
ATOM     34  H   UNL     1       7.894   2.335   0.965  0.00  0.00    +0.145 HD
ATOM     35  H   UNL     1       9.363   2.313   1.780  0.00  0.00    +0.145 HD
ENDBRANCH  28  31
ENDBRANCH  17  25
BRANCH  14  36
ATOM     36  C   UNL     1       0.028   0.449   0.185  0.00  0.00    +0.080 C 
BRANCH  36  37
ATOM     37  C   UNL     1      -0.685   0.674  -1.123  0.00  0.00    +0.209 C 
ATOM     38  O   UNL     1      -1.681   1.364  -1.160  0.00  0.00    -0.276 OA
ATOM     39  N   UNL     1      -0.215   0.108  -2.253  0.00  0.00    -0.329 N 
ATOM     40  H   UNL     1       0.582  -0.444  -2.223  0.00  0.00    +0.145 HD
ATOM     41  H   UNL     1      -0.674   0.252  -3.095  0.00  0.00    +0.145 HD
ENDBRANCH  36  37
ENDBRANCH  14  36
TORSDOF 4
