REMARK  Name = ZINC43225819
REMARK  11 active torsions:
REMARK  status: ('A' for Active; 'I' for Inactive)
REMARK    1  A    between atoms: C_1  and  C_2
REMARK    2  A    between atoms: C_3  and  C_29
REMARK    3  A    between atoms: C_5  and  C_18
REMARK    4  A    between atoms: N_6  and  C_7
REMARK    5  A    between atoms: C_7  and  C_9
REMARK    6  A    between atoms: C_7  and  C_10
REMARK    7  A    between atoms: N_12  and  C_13
REMARK    8  A    between atoms: C_13  and  C_14
REMARK    9  A    between atoms: C_14  and  N_15
REMARK   10  A    between atoms: N_15  and  C_16
REMARK   11  A    between atoms: N_15  and  C_17
REMARK                            x       y       z     vdW  Elec       q    Type
REMARK                         _______ _______ _______ _____ _____    ______ ____
ROOT
ATOM      1  C   UNL     1       0.185   1.496   0.075  0.00  0.00    +0.064 C 
ATOM      2  C   UNL     1       0.091  -0.007   0.030  0.00  0.00    +0.029 A 
ATOM      3  C   UNL     1      -0.005  -0.777  -1.109  0.00  0.00    +0.058 A 
ATOM      4  C   UNL     1      -0.069  -2.131  -0.689  0.00  0.00    +0.041 A 
ATOM      5  C   UNL     1      -0.010  -2.131   0.667  0.00  0.00    +0.051 A 
ATOM      6  N   UNL     1       0.094  -0.831   1.098  0.00  0.00    -0.332 N 
ENDROOT
BRANCH   5   7
ATOM      7  C   UNL     1      -0.045  -3.329   1.534  0.00  0.00    +0.002 A 
ATOM      8  C   UNL     1      -0.584  -3.246   2.818  0.00  0.00    +0.014 A 
ATOM      9  C   UNL     1      -0.617  -4.364   3.628  0.00  0.00    +0.050 A 
ATOM     10  C   UNL     1      -0.114  -5.569   3.164  0.00  0.00    +0.162 A 
ATOM     11  C   UNL     1       0.423  -5.658   1.886  0.00  0.00    +0.163 A 
ATOM     12  C   UNL     1       0.456  -4.545   1.066  0.00  0.00    +0.059 A 
ATOM     13  O   UNL     1       0.913  -6.852   1.442  0.00  0.00    -0.488 OA
ATOM     14  C   UNL     1       2.099  -7.320   2.087  0.00  0.00    +0.232 C 
ATOM     15  C   UNL     1       1.759  -8.063   3.369  0.00  0.00    +0.082 C 
ATOM     16  C   UNL     1       1.122  -7.158   4.412  0.00  0.00    +0.232 C 
ATOM     17  O   UNL     1      -0.145  -6.677   3.960  0.00  0.00    -0.488 OA
ENDBRANCH   5   7
BRANCH   3  18
ATOM     18  C   UNL     1      -0.036  -0.287  -2.498  0.00  0.00    +0.243 C 
ATOM     19  O   UNL     1       0.027   0.907  -2.723  0.00  0.00    -0.270 OA
ATOM     20  N   UNL     1      -0.134  -1.161  -3.519  0.00  0.00    -0.325 N 
ATOM     21  H   UNL     1      -0.184  -2.113  -3.339  0.00  0.00    +0.145 HD
ATOM     22  H   UNL     1      -0.154  -0.839  -4.433  0.00  0.00    +0.145 HD
ENDBRANCH   3  18
BRANCH   6  23
ATOM     23  C   UNL     1       0.188  -0.406   2.497  0.00  0.00    +0.170 C 
ATOM     24  C   UNL     1       1.415   0.491   2.675  0.00  0.00    +0.041 C 
BRANCH  23  25
ATOM     25  C   UNL     1      -1.054   0.358   2.875  0.00  0.00    +0.236 C 
ATOM     26  O   UNL     1      -1.932   0.532   2.056  0.00  0.00    -0.274 OA
ATOM     27  N   UNL     1      -1.189   0.850   4.122  0.00  0.00    -0.315 N 
ATOM     28  H   UNL     1      -0.487   0.711   4.777  0.00  0.00    +0.149 HD
BRANCH  27  29
ATOM     29  C   UNL     1      -2.396   1.594   4.490  0.00  0.00    +0.086 C 
BRANCH  29  30
ATOM     30  C   UNL     1      -2.297   2.038   5.951  0.00  0.00    -0.061 C 
BRANCH  30  31
ATOM     31  N   UNL     1      -3.508   2.783   6.319  0.00  0.00    +0.377 N 
ATOM     32  C   UNL     1      -3.468   3.106   7.752  0.00  0.00    -0.097 C 
ATOM     33  C   UNL     1      -3.574   4.026   5.539  0.00  0.00    -0.097 C 
ATOM     34  H   UNL     1      -4.322   2.220   6.124  0.00  0.00    -0.083 HD
ENDBRANCH  30  31
ENDBRANCH  29  30
ENDBRANCH  27  29
ENDBRANCH  23  25
ENDBRANCH   6  23
TORSDOF 7
