REMARK  Name = ZINC58118287
REMARK  11 active torsions:
REMARK  status: ('A' for Active; 'I' for Inactive)
REMARK    1  A    between atoms: C_1  and  C_2
REMARK    2  A    between atoms: N_5  and  C_8
REMARK    3  A    between atoms: C_8  and  C_9
REMARK    4  A    between atoms: C_8  and  C_22
REMARK    5  A    between atoms: C_9  and  N_10
REMARK    6  A    between atoms: C_11  and  C_13
REMARK    7  A    between atoms: C_13  and  C_14
REMARK    8  A    between atoms: C_13  and  N_18
REMARK    9  A    between atoms: C_14  and  C_15
REMARK   10  A    between atoms: C_15  and  S_16
REMARK   11  A    between atoms: S_16  and  C_17
REMARK                            x       y       z     vdW  Elec       q    Type
REMARK                         _______ _______ _______ _____ _____    ______ ____
ROOT
ATOM      1  N   UNL     1       2.729  -5.799   1.138  0.00  0.00    -0.315 N 
ATOM      2  C   UNL     1       3.381  -6.416   2.144  0.00  0.00    +0.233 C 
ATOM      3  O   UNL     1       3.845  -5.765   3.056  0.00  0.00    -0.274 OA
ATOM      4  H   UNL     1       2.358  -6.319   0.409  0.00  0.00    +0.149 HD
ENDROOT
BRANCH   1   5
ATOM      5  C   UNL     1       2.582  -4.341   1.147  0.00  0.00    +0.094 C 
BRANCH   5   6
ATOM      6  C   UNL     1       1.718  -3.909  -0.039  0.00  0.00    -0.013 C 
BRANCH   6  11
ATOM      7  C   UNL     1      -0.284   1.426   0.188  0.00  0.00    +0.007 C 
ATOM      8  C   UNL     1      -0.184  -0.099   0.126  0.00  0.00    -0.018 C 
ATOM      9  C   UNL     1       0.566  -0.512  -1.144  0.00  0.00    -0.015 C 
ATOM     10  C   UNL     1       0.732  -2.033  -1.160  0.00  0.00    -0.078 C 
ATOM     11  N   UNL     1       1.494  -2.458   0.021  0.00  0.00    +0.386 N 
ATOM     12  C   UNL     1       0.747  -2.130   1.241  0.00  0.00    -0.078 C 
ATOM     13  C   UNL     1       0.582  -0.613   1.349  0.00  0.00    -0.015 C 
ATOM     14  H   UNL     1       2.384  -1.983   0.034  0.00  0.00    -0.081 HD
ENDBRANCH   6  11
BRANCH   6  15
ATOM     15  C   UNL     1       2.421  -4.256  -1.326  0.00  0.00    -0.022 A 
ATOM     16  C   UNL     1       2.215  -5.309  -2.155  0.00  0.00    +0.009 A 
ATOM     17  C   UNL     1       2.988  -5.426  -3.294  0.00  0.00    +0.008 A 
ATOM     18  C   UNL     1       3.930  -4.486  -3.550  0.00  0.00    +0.045 A 
ATOM     19  S   UNL     1       3.738  -3.384  -2.158  0.00  0.00    -0.103 S 
ENDBRANCH   6  15
ENDBRANCH   5   6
ENDBRANCH   1   5
BRANCH   2  20
ATOM     20  C   UNL     1       3.533  -7.915   2.135  0.00  0.00    +0.161 C 
BRANCH  20  21
ATOM     21  N   UNL     1       3.825  -8.385   3.491  0.00  0.00    -0.288 N 
ATOM     22  C   UNL     1       4.928  -7.950   4.133  0.00  0.00    +0.298 C 
ATOM     23  O   UNL     1       5.680  -7.167   3.585  0.00  0.00    -0.253 OA
ATOM     24  N   UNL     1       5.196  -8.382   5.381  0.00  0.00    -0.313 N 
ATOM     25  H   UNL     1       3.224  -9.009   3.928  0.00  0.00    +0.151 HD
ATOM     26  H   UNL     1       4.596  -9.006   5.818  0.00  0.00    +0.146 HD
ATOM     27  H   UNL     1       5.990  -8.068   5.842  0.00  0.00    +0.146 HD
ENDBRANCH  20  21
BRANCH  20  28
ATOM     28  C   UNL     1       4.681  -8.306   1.202  0.00  0.00    +0.042 C 
BRANCH  28  29
ATOM     29  C   UNL     1       4.756  -9.831   1.095  0.00  0.00    +0.071 C 
BRANCH  29  30
ATOM     30  S   UNL     1       6.117 -10.293  -0.010  0.00  0.00    -0.164 S 
ATOM     31  C   UNL     1       6.070 -12.107  -0.028  0.00  0.00    +0.084 C 
ENDBRANCH  29  30
ENDBRANCH  28  29
ENDBRANCH  20  28
ENDBRANCH   2  20
TORSDOF 9
