REMARK  Name = ZINC37272604
REMARK  6 active torsions:
REMARK  status: ('A' for Active; 'I' for Inactive)
REMARK    1  A    between atoms: C_1  and  C_2
REMARK    2  A    between atoms: C_5  and  C_22
REMARK    3  A    between atoms: N_8  and  C_10
REMARK    4  A    between atoms: C_10  and  C_11
REMARK    5  A    between atoms: N_13  and  C_14
REMARK    6  A    between atoms: C_17  and  N_21
REMARK                            x       y       z     vdW  Elec       q    Type
REMARK                         _______ _______ _______ _____ _____    ______ ____
ROOT
ATOM      1  C   UNL     1       2.972  -2.037   2.240  0.00  0.00    +0.201 C 
ATOM      2  O   UNL     1       3.315  -1.390   1.274  0.00  0.00    -0.278 OA
ATOM      3  N   UNL     1       3.874  -2.366   3.186  0.00  0.00    -0.286 N 
ATOM      4  H   UNL     1       3.585  -2.814   3.997  0.00  0.00    +0.155 HD
ENDROOT
BRANCH   3   5
ATOM      5  C   UNL     1       5.229  -2.061   2.998  0.00  0.00    +0.048 A 
ATOM      6  C   UNL     1       5.736  -1.914   1.714  0.00  0.00    +0.026 A 
ATOM      7  C   UNL     1       7.071  -1.613   1.529  0.00  0.00    +0.024 A 
ATOM      8  C   UNL     1       7.907  -1.459   2.627  0.00  0.00    +0.026 A 
ATOM      9  C   UNL     1       7.400  -1.606   3.912  0.00  0.00    +0.039 A 
ATOM     10  C   UNL     1       6.063  -1.901   4.097  0.00  0.00    +0.041 A 
ATOM     11 BR   UNL     1       5.371  -2.094   5.846  0.00  0.00    -0.048 Br
BRANCH   8  12
ATOM     12  N   UNL     1       9.259  -1.155   2.440  0.00  0.00    -0.358 N 
ATOM     13  H   UNL     1       9.613  -1.052   1.542  0.00  0.00    +0.142 HD
ATOM     14  H   UNL     1       9.843  -1.047   3.207  0.00  0.00    +0.142 HD
ENDBRANCH   8  12
ENDBRANCH   3   5
BRANCH   1  15
ATOM     15  C   UNL     1       1.536  -2.474   2.383  0.00  0.00    +0.019 C 
BRANCH  15  21
ATOM     16  C   UNL     1      -0.036   1.510   0.012  0.00  0.00    +0.005 C 
ATOM     17  C   UNL     1      -0.005  -0.020  -0.001  0.00  0.00    -0.031 C 
ATOM     18  C   UNL     1      -1.438  -0.560   0.006  0.00  0.00    +0.003 C 
ATOM     19  C   UNL     1      -1.395  -2.090   0.072  0.00  0.00    -0.031 C 
ATOM     20  C   UNL     1      -0.607  -2.520   1.310  0.00  0.00    -0.075 C 
ATOM     21  N   UNL     1       0.761  -1.994   1.231  0.00  0.00    +0.386 N 
ATOM     22  C   UNL     1       0.733  -0.527   1.240  0.00  0.00    -0.075 C 
ATOM     23  C   UNL     1      -0.713  -2.636  -1.184  0.00  0.00    +0.005 C 
ATOM     24  H   UNL     1       1.195  -2.316   0.379  0.00  0.00    -0.081 HD
ENDBRANCH  15  21
ENDBRANCH   1  15
TORSDOF 4
