REMARK  Name = ZINC36200653
REMARK  9 active torsions:
REMARK  status: ('A' for Active; 'I' for Inactive)
REMARK    1  A    between atoms: C_1  and  O_2
REMARK    2  A    between atoms: O_2  and  C_3
REMARK    3  A    between atoms: C_6  and  C_13
REMARK    4  A    between atoms: C_7  and  O_11
REMARK    5  A    between atoms: C_8  and  O_9
REMARK    6  A    between atoms: O_9  and  C_10
REMARK    7  A    between atoms: O_11  and  C_12
REMARK    8  A    between atoms: C_13  and  C_15
REMARK    9  A    between atoms: C_13  and  N_22
REMARK                            x       y       z     vdW  Elec       q    Type
REMARK                         _______ _______ _______ _____ _____    ______ ____
ROOT
ATOM      1  C   UNL     1       0.658  -0.617   1.007  0.00  0.00    +0.165 A 
ATOM      2  C   UNL     1       1.344   0.137   1.946  0.00  0.00    +0.050 A 
ATOM      3  C   UNL     1       1.969  -0.484   3.011  0.00  0.00    +0.009 A 
ATOM      4  C   UNL     1       1.914  -1.859   3.144  0.00  0.00    -0.012 A 
ATOM      5  C   UNL     1       1.230  -2.620   2.209  0.00  0.00    +0.167 A 
ATOM      6  C   UNL     1       0.594  -1.999   1.140  0.00  0.00    +0.204 A 
ENDROOT
BRANCH   1   8
ATOM      7  C   UNL     1       0.150   1.418  -0.114  0.00  0.00    +0.277 C 
ATOM      8  O   UNL     1       0.043  -0.005  -0.041  0.00  0.00    -0.491 OA
ENDBRANCH   1   8
BRANCH   6   9
ATOM      9  O   UNL     1      -0.083  -2.743   0.223  0.00  0.00    -0.488 OA
ATOM     10  C   UNL     1       0.657  -3.213  -0.905  0.00  0.00    +0.277 C 
ENDBRANCH   6   9
BRANCH   5  11
ATOM     11  O   UNL     1       1.177  -3.973   2.340  0.00  0.00    -0.491 OA
ATOM     12  C   UNL     1       0.028  -4.517   2.994  0.00  0.00    +0.277 C 
ENDBRANCH   5  11
BRANCH   4  13
ATOM     13  C   UNL     1       2.598  -2.531   4.306  0.00  0.00    -0.010 C 
BRANCH  13  14
ATOM     14  C   UNL     1       2.918  -1.504   5.363  0.00  0.00    -0.056 A 
ATOM     15  C   UNL     1       4.072  -0.750   5.267  0.00  0.00    +0.002 A 
ATOM     16  C   UNL     1       4.366   0.191   6.235  0.00  0.00    +0.001 A 
ATOM     17  C   UNL     1       3.505   0.379   7.300  0.00  0.00    +0.015 A 
ATOM     18  C   UNL     1       2.349  -0.375   7.396  0.00  0.00    +0.018 A 
ATOM     19  C   UNL     1       2.053  -1.313   6.424  0.00  0.00    +0.017 A 
ATOM     20 BR   UNL     1       1.172  -0.119   8.854  0.00  0.00    -0.050 Br
ENDBRANCH  13  14
BRANCH  13  21
ATOM     21  N   UNL     1       3.842  -3.162   3.844  0.00  0.00    +0.385 N 
ATOM     22  H   UNL     1       4.300  -3.611   4.623  0.00  0.00    -0.089 HD
ATOM     23  H   UNL     1       3.628  -3.849   3.137  0.00  0.00    -0.089 HD
ATOM     24  H   UNL     1       4.452  -2.458   3.456  0.00  0.00    -0.089 HD
ENDBRANCH  13  21
ENDBRANCH   4  13
TORSDOF 6
