REMARK  Name = ZINC61672314
REMARK  4 active torsions:
REMARK  status: ('A' for Active; 'I' for Inactive)
REMARK    1  A    between atoms: C_1  and  N_2
REMARK    2  A    between atoms: N_2  and  C_3
REMARK    3  A    between atoms: C_3  and  C_5
REMARK    4  A    between atoms: C_3  and  C_18
REMARK                            x       y       z     vdW  Elec       q    Type
REMARK                         _______ _______ _______ _____ _____    ______ ____
ROOT
ATOM      1  C   UNL     1       0.523  -2.052  -1.429  0.00  0.00    -0.045 A 
ATOM      2  C   UNL     1       0.190  -2.912  -0.401  0.00  0.00    +0.031 A 
ATOM      3  C   UNL     1       0.019  -4.263  -0.659  0.00  0.00    +0.067 A 
ATOM      4  C   UNL     1       0.185  -4.750  -1.957  0.00  0.00    +0.068 A 
ATOM      5  C   UNL     1       0.520  -3.880  -2.983  0.00  0.00    +0.043 A 
ATOM      6  C   UNL     1       0.682  -2.533  -2.718  0.00  0.00    +0.022 A 
ATOM      7 BR   UNL     1       1.130  -1.345  -4.119  0.00  0.00    -0.050 Br
ATOM      8  N   UNL     1      -0.046  -6.122  -1.905  0.00  0.00    -0.306 N 
ATOM      9  H   UNL     1      -0.004  -6.734  -2.657  0.00  0.00    +0.170 HD
ATOM     10  C   UNL     1      -0.340  -6.455  -0.634  0.00  0.00    +0.325 A 
ATOM     11  O   UNL     1      -0.595  -7.580  -0.245  0.00  0.00    -0.247 OA
ATOM     12  N   UNL     1      -0.308  -5.355   0.142  0.00  0.00    -0.306 N 
ATOM     13  H   UNL     1      -0.483  -5.328   1.095  0.00  0.00    +0.170 HD
ENDROOT
BRANCH   1  14
ATOM     14  C   UNL     1       0.708  -0.583  -1.149  0.00  0.00    -0.037 C 
BRANCH  14  15
ATOM     15  C   UNL     1       2.201  -0.268  -1.043  0.00  0.00    -0.017 C 
ATOM     16  C   UNL     1       2.784  -0.962   0.192  0.00  0.00    +0.030 C 
ATOM     17  C   UNL     1       4.260  -0.578   0.334  0.00  0.00    +0.160 C 
ATOM     18  O   UNL     1       4.374   0.844   0.427  0.00  0.00    -0.380 OA
ATOM     19  C   UNL     1       3.887   1.544  -0.720  0.00  0.00    +0.160 C 
ATOM     20  C   UNL     1       2.397   1.245  -0.905  0.00  0.00    +0.030 C 
ENDBRANCH  14  15
BRANCH  14  22
ATOM     21  C   UNL     1      -1.407  -0.423  -0.028  0.00  0.00    -0.100 C 
ATOM     22  N   UNL     1       0.043  -0.238   0.115  0.00  0.00    +0.382 N 
ATOM     23  H   UNL     1       0.238   0.725   0.346  0.00  0.00    -0.085 HD
ATOM     24  H   UNL     1       0.388  -0.837   0.850  0.00  0.00    -0.085 HD
ENDBRANCH  14  22
ENDBRANCH   1  14
TORSDOF 3
