REMARK  Name = ZINC67400744
REMARK  9 active torsions:
REMARK  status: ('A' for Active; 'I' for Inactive)
REMARK    1  A    between atoms: C_6  and  C_7
REMARK    2  A    between atoms: C_7  and  C_9
REMARK    3  A    between atoms: C_7  and  O_28
REMARK    4  A    between atoms: N_12  and  C_15
REMARK    5  A    between atoms: C_15  and  C_16
REMARK    6  A    between atoms: C_16  and  C_18
REMARK    7  A    between atoms: C_16  and  O_27
REMARK    8  A    between atoms: C_18  and  O_19
REMARK    9  A    between atoms: O_19  and  C_20
REMARK                            x       y       z     vdW  Elec       q    Type
REMARK                         _______ _______ _______ _____ _____    ______ ____
ROOT
ATOM      1  C   UNL     1      -1.298  -1.198  -1.634  0.00  0.00    +0.019 C 
ATOM      2  C   UNL     1      -1.550   0.013  -2.537  0.00  0.00    -0.012 C 
ATOM      3  C   UNL     1      -2.072  -0.468  -3.892  0.00  0.00    -0.078 C 
ATOM      4  N   UNL     1      -3.326  -1.208  -3.703  0.00  0.00    +0.381 N 
ATOM      5  C   UNL     1      -3.078  -2.409  -2.898  0.00  0.00    -0.078 C 
ATOM      6  C   UNL     1      -2.595  -2.003  -1.504  0.00  0.00    -0.012 C 
ATOM      7  H   UNL     1      -3.994  -0.619  -3.230  0.00  0.00    -0.082 HD
ENDROOT
BRANCH   1   8
ATOM      8  C   UNL     1      -0.852  -0.721  -0.250  0.00  0.00    +0.147 C 
BRANCH   8  14
ATOM      9  C   UNL     1       0.383   1.453  -0.372  0.00  0.00    +0.007 A 
ATOM     10  C   UNL     1       1.552   2.180  -0.490  0.00  0.00    +0.020 A 
ATOM     11  C   UNL     1       2.764   1.525  -0.617  0.00  0.00    +0.041 A 
ATOM     12  C   UNL     1       2.804   0.142  -0.625  0.00  0.00    +0.020 A 
ATOM     13  C   UNL     1       1.634  -0.584  -0.506  0.00  0.00    +0.007 A 
ATOM     14  C   UNL     1       0.424   0.071  -0.380  0.00  0.00    -0.019 A 
ATOM     15 CL   UNL     1       4.233   2.437  -0.766  0.00  0.00    -0.084 Cl
ENDBRANCH   8  14
BRANCH   8  16
ATOM     16  O   UNL     1      -0.627  -1.852   0.594  0.00  0.00    -0.387 OA
ATOM     17  H   UNL     1       0.053  -2.457   0.268  0.00  0.00    +0.210 HD
ENDBRANCH   8  16
ENDBRANCH   1   8
BRANCH   4  18
ATOM     18  C   UNL     1      -3.863  -1.600  -5.013  0.00  0.00    -0.044 C 
BRANCH  18  19
ATOM     19  C   UNL     1      -4.271  -0.348  -5.793  0.00  0.00    +0.135 C 
BRANCH  19  20
ATOM     20  O   UNL     1      -5.274   0.362  -5.064  0.00  0.00    -0.390 OA
ATOM     21  H   UNL     1      -6.079  -0.149  -4.904  0.00  0.00    +0.210 HD
ENDBRANCH  19  20
BRANCH  19  22
ATOM     22  C   UNL     1      -4.825  -0.756  -7.159  0.00  0.00    +0.258 C 
BRANCH  22  23
ATOM     23  O   UNL     1      -5.097   0.415  -7.932  0.00  0.00    -0.489 OA
BRANCH  23  24
ATOM     24  C   UNL     1      -5.598   0.227  -9.181  0.00  0.00    +0.121 A 
ATOM     25  C   UNL     1      -5.830  -1.058  -9.650  0.00  0.00    +0.048 A 
ATOM     26  C   UNL     1      -6.340  -1.248 -10.920  0.00  0.00    +0.042 A 
ATOM     27  C   UNL     1      -6.619  -0.156 -11.725  0.00  0.00    +0.124 A 
ATOM     28  C   UNL     1      -6.389   1.127 -11.258  0.00  0.00    +0.042 A 
ATOM     29  C   UNL     1      -5.885   1.319  -9.986  0.00  0.00    +0.048 A 
ATOM     30  F   UNL     1      -7.117  -0.343 -12.966  0.00  0.00    -0.205 F 
ENDBRANCH  23  24
ENDBRANCH  22  23
ENDBRANCH  19  22
ENDBRANCH  18  19
ENDBRANCH   4  18
TORSDOF 9
