REMARK  Name = ZINC39708370
REMARK  6 active torsions:
REMARK  status: ('A' for Active; 'I' for Inactive)
REMARK    1  A    between atoms: C_3  and  N_14
REMARK    2  A    between atoms: C_6  and  C_7
REMARK    3  A    between atoms: N_9  and  C_10
REMARK    4  A    between atoms: C_10  and  C_11
REMARK    5  A    between atoms: N_14  and  S_15
REMARK    6  A    between atoms: S_15  and  C_18
REMARK                            x       y       z     vdW  Elec       q    Type
REMARK                         _______ _______ _______ _____ _____    ______ ____
ROOT
ATOM      1  N   UNL     1       3.576   2.133  -0.021  0.00  0.00    -0.216 N 
ATOM      2  H   UNL     1       3.701   2.865  -0.646  0.00  0.00    +0.174 HD
ENDROOT
BRANCH   1   5
ATOM      3  C   UNL     1      -0.002   1.337  -0.110  0.00  0.00    +0.015 A 
ATOM      4  C   UNL     1       1.169   2.059  -0.095  0.00  0.00    +0.025 A 
ATOM      5  C   UNL     1       2.394   1.401  -0.037  0.00  0.00    +0.048 A 
ATOM      6  C   UNL     1       2.439   0.010   0.005  0.00  0.00    +0.025 A 
ATOM      7  C   UNL     1       1.271  -0.718  -0.011  0.00  0.00    +0.015 A 
ATOM      8  C   UNL     1       0.039  -0.060  -0.069  0.00  0.00    +0.037 A 
BRANCH   8   9
ATOM      9  C   UNL     1      -1.214  -0.837  -0.085  0.00  0.00    +0.245 C 
ATOM     10  O   UNL     1      -2.285  -0.263  -0.135  0.00  0.00    -0.270 OA
ATOM     11  N   UNL     1      -1.173  -2.184  -0.044  0.00  0.00    -0.301 N 
ATOM     12  H   UNL     1      -0.319  -2.642  -0.004  0.00  0.00    +0.150 HD
BRANCH  11  13
ATOM     13  C   UNL     1      -2.418  -2.956  -0.061  0.00  0.00    +0.229 C 
BRANCH  13  14
ATOM     14  C   UNL     1      -2.097  -4.427  -0.008  0.00  0.00    +0.373 C 
ATOM     15  O   UNL     1      -0.936  -4.797   0.039  0.00  0.00    -0.245 OA
ATOM     16  O   UNL     1      -2.999  -5.248  -0.012  0.00  0.00    -0.245 OA
ENDBRANCH  13  14
ENDBRANCH  11  13
ENDBRANCH   8   9
ENDBRANCH   1   5
BRANCH   1  17
ATOM     17  S   UNL     1       4.769   1.758   1.064  0.00  0.00    +0.072 S 
ATOM     18  O   UNL     1       5.022   0.366   0.924  0.00  0.00    -0.150 OA
ATOM     19  O   UNL     1       5.786   2.737   0.905  0.00  0.00    -0.150 OA
BRANCH  17  20
ATOM     20  C   UNL     1       4.097   1.987   2.677  0.00  0.00    +0.110 A 
ATOM     21  C   UNL     1       4.113   3.320   3.266  0.00  0.00    +0.031 A 
ATOM     22  C   UNL     1       3.614   3.565   4.497  0.00  0.00    +0.027 A 
ATOM     23  C   UNL     1       3.039   2.468   5.273  0.00  0.00    +0.056 A 
ATOM     24  N   UNL     1       2.489   2.363   6.456  0.00  0.00    -0.268 N 
ATOM     25  C   UNL     1       2.128   1.050   6.652  0.00  0.00    +0.308 C 
ATOM     26  O   UNL     1       1.592   0.616   7.650  0.00  0.00    -0.252 OA
ATOM     27  N   UNL     1       2.465   0.305   5.547  0.00  0.00    -0.267 N 
ATOM     28  C   UNL     1       3.023   1.098   4.668  0.00  0.00    +0.058 A 
ATOM     29  C   UNL     1       3.579   0.923   3.328  0.00  0.00    +0.054 A 
ATOM     30  H   UNL     1       2.315  -0.647   5.438  0.00  0.00    +0.156 HD
ATOM     31  H   UNL     1       2.358   3.087   7.088  0.00  0.00    +0.156 HD
ENDBRANCH  17  20
ENDBRANCH   1  17
TORSDOF 6
