REMARK  Name = ZINC63993637
REMARK  12 active torsions:
REMARK  status: ('A' for Active; 'I' for Inactive)
REMARK    1  A    between atoms: C_1  and  O_2
REMARK    2  A    between atoms: O_2  and  C_3
REMARK    3  A    between atoms: C_3  and  C_4
REMARK    4  A    between atoms: N_6  and  C_7
REMARK    5  A    between atoms: C_11  and  N_33
REMARK    6  A    between atoms: N_15  and  C_22
REMARK    7  A    between atoms: C_16  and  C_18
REMARK    8  A    between atoms: C_18  and  O_20
REMARK    9  A    between atoms: O_20  and  C_21
REMARK   10  A    between atoms: C_22  and  C_23
REMARK   11  A    between atoms: C_23  and  C_24
REMARK   12  A    between atoms: N_33  and  C_34
REMARK                            x       y       z     vdW  Elec       q    Type
REMARK                         _______ _______ _______ _____ _____    ______ ____
ROOT
ATOM      1  C   UNL     1       1.169  -4.307   1.857  0.00  0.00    +0.138 C 
ATOM      2  C   UNL     1      -0.087  -4.850   2.498  0.00  0.00    +0.015 A 
ATOM      3  C   UNL     1      -1.422  -4.643   2.206  0.00  0.00    +0.033 A 
ATOM      4  C   UNL     1      -2.380  -5.290   2.984  0.00  0.00    +0.044 A 
ATOM      5  C   UNL     1      -1.956  -6.114   4.016  0.00  0.00    +0.107 A 
ATOM      6  N   UNL     1      -0.675  -6.286   4.263  0.00  0.00    -0.348 N 
ATOM      7  C   UNL     1       0.274  -5.686   3.544  0.00  0.00    +0.105 A 
ATOM      8  N   UNL     1       1.658  -5.766   3.679  0.00  0.00    -0.301 N 
ATOM      9  C   UNL     1       2.317  -4.936   2.664  0.00  0.00    +0.208 C 
ATOM     10  H   UNL     1      -0.412  -6.869   4.993  0.00  0.00    +0.167 HD
ENDROOT
BRANCH   1  13
ATOM     11  C   UNL     1       0.633  -2.085   1.012  0.00  0.00    +0.239 C 
ATOM     12  O   UNL     1       0.084  -2.609   0.067  0.00  0.00    -0.273 OA
ATOM     13  N   UNL     1       1.208  -2.846   1.964  0.00  0.00    -0.304 N 
ATOM     14  H   UNL     1       1.647  -2.427   2.721  0.00  0.00    +0.149 HD
BRANCH  11  15
ATOM     15  C   UNL     1       0.673  -0.582   1.123  0.00  0.00    +0.255 C 
BRANCH  15  17
ATOM     16  C   UNL     1      -0.017   1.425   0.010  0.00  0.00    +0.194 C 
ATOM     17  O   UNL     1       0.002  -0.004   0.002  0.00  0.00    -0.374 OA
ENDBRANCH  15  17
ENDBRANCH  11  15
ENDBRANCH   1  13
BRANCH   9  18
ATOM     18  C   UNL     1       3.143  -3.861   3.322  0.00  0.00    +0.330 C 
ATOM     19  O   UNL     1       2.975  -3.599   4.489  0.00  0.00    -0.249 OA
BRANCH  18  20
ATOM     20  O   UNL     1       4.067  -3.195   2.611  0.00  0.00    -0.467 OA
ATOM     21  C   UNL     1       4.814  -2.189   3.299  0.00  0.00    +0.280 C 
ENDBRANCH  18  20
ENDBRANCH   9  18
BRANCH   4  22
ATOM     22  N   UNL     1      -3.746  -5.112   2.728  0.00  0.00    -0.340 N 
ATOM     23  H   UNL     1      -4.032  -4.534   2.004  0.00  0.00    +0.146 HD
BRANCH  22  24
ATOM     24  C   UNL     1      -4.741  -5.799   3.554  0.00  0.00    +0.075 C 
ATOM     25  C   UNL     1      -4.982  -7.207   3.002  0.00  0.00    +0.050 C 
ATOM     26  C   UNL     1      -6.080  -7.889   3.823  0.00  0.00    +0.161 C 
ATOM     27  O   UNL     1      -7.268  -7.096   3.779  0.00  0.00    -0.380 OA
ATOM     28  C   UNL     1      -7.115  -5.785   4.326  0.00  0.00    +0.161 C 
ATOM     29  C   UNL     1      -6.059  -5.019   3.525  0.00  0.00    +0.050 C 
ENDBRANCH  22  24
ENDBRANCH   4  22
BRANCH   8  30
ATOM     30  C   UNL     1       2.357  -6.565   4.689  0.00  0.00    +0.112 C 
BRANCH  30  31
ATOM     31  C   UNL     1       2.624  -7.967   4.136  0.00  0.00    +0.052 C 
BRANCH  31  32
ATOM     32  C   UNL     1       3.342  -8.788   5.175  0.00  0.00    -0.040 C 
ATOM     33  C   UNL     1       2.786  -9.644   6.063  0.00  0.00    -0.001 A 
ATOM     34  C   UNL     1       1.398 -10.049   6.318  0.00  0.00    +0.010 A 
ATOM     35  C   UNL     1       1.146 -10.945   7.298  0.00  0.00    +0.001 A 
ATOM     36  C   UNL     1       2.174 -11.496   8.075  0.00  0.00    +0.002 A 
ATOM     37  C   UNL     1       3.473 -11.173   7.901  0.00  0.00    +0.026 A 
ATOM     38  C   UNL     1       3.853 -10.240   6.897  0.00  0.00    +0.043 A 
ATOM     39  N   UNL     1       5.024  -9.772   6.539  0.00  0.00    -0.380 N 
ATOM     40  C   UNL     1       4.832  -8.829   5.432  0.00  0.00    +0.144 C 
ATOM     41  H   UNL     1       5.876 -10.012   6.937  0.00  0.00    +0.160 HD
ENDBRANCH  31  32
ENDBRANCH  30  31
ENDBRANCH   8  30
TORSDOF 10
