REMARK  Name = ZINC56764849
REMARK  11 active torsions:
REMARK  status: ('A' for Active; 'I' for Inactive)
REMARK    1  A    between atoms: C_1  and  C_2
REMARK    2  A    between atoms: C_2  and  N_3
REMARK    3  A    between atoms: N_3  and  C_4
REMARK    4  A    between atoms: N_3  and  C_6
REMARK    5  A    between atoms: C_4  and  C_5
REMARK    6  A    between atoms: C_6  and  C_8
REMARK    7  A    between atoms: C_6  and  C_9
REMARK    8  A    between atoms: C_9  and  N_10
REMARK    9  A    between atoms: N_13  and  C_14
REMARK   10  A    between atoms: C_17  and  N_21
REMARK   11  A    between atoms: C_22  and  C_24
REMARK                            x       y       z     vdW  Elec       q    Type
REMARK                         _______ _______ _______ _____ _____    ______ ____
ROOT
ATOM      1  C   UNL     1      -4.278  -2.057   3.321  0.00  0.00    +0.036 A 
ATOM      2  C   UNL     1      -5.055  -1.097   3.957  0.00  0.00    +0.025 A 
ATOM      3  C   UNL     1      -6.166  -1.477   4.682  0.00  0.00    +0.026 A 
ATOM      4  C   UNL     1      -6.507  -2.820   4.778  0.00  0.00    +0.052 A 
ATOM      5  C   UNL     1      -5.729  -3.781   4.142  0.00  0.00    +0.064 A 
ATOM      6  C   UNL     1      -4.621  -3.399   3.412  0.00  0.00    +0.045 A 
ATOM      7 CL   UNL     1      -6.155  -5.460   4.261  0.00  0.00    -0.082 Cl
ENDROOT
BRANCH   1  11
ATOM      8  N   UNL     1      -1.670  -2.040   0.819  0.00  0.00    -0.301 N 
ATOM      9  C   UNL     1      -2.809  -2.347   1.471  0.00  0.00    +0.304 C 
ATOM     10  O   UNL     1      -3.528  -3.235   1.054  0.00  0.00    -0.253 OA
ATOM     11  N   UNL     1      -3.151  -1.670   2.585  0.00  0.00    -0.269 N 
ATOM     12  H   UNL     1      -1.096  -1.332   1.151  0.00  0.00    +0.150 HD
ATOM     13  H   UNL     1      -2.616  -0.914   2.876  0.00  0.00    +0.156 HD
BRANCH   8  14
ATOM     14  C   UNL     1      -1.298  -2.776  -0.392  0.00  0.00    +0.090 C 
BRANCH  14  15
ATOM     15  C   UNL     1       0.083  -2.317  -0.865  0.00  0.00    -0.054 C 
ATOM     16  C   UNL     1       0.454  -3.057  -2.152  0.00  0.00    -0.012 C 
BRANCH  15  17
ATOM     17  N   UNL     1       0.056  -0.871  -1.122  0.00  0.00    +0.382 N 
ATOM     18  H   UNL     1      -0.263  -0.388  -0.296  0.00  0.00    -0.081 HD
BRANCH  17  20
ATOM     19  C   UNL     1       2.335  -0.604  -0.267  0.00  0.00    -0.017 C 
ATOM     20  C   UNL     1       1.407  -0.410  -1.468  0.00  0.00    -0.082 C 
ENDBRANCH  17  20
BRANCH  17  21
ATOM     21  C   UNL     1      -0.858  -0.589  -2.237  0.00  0.00    -0.082 C 
ATOM     22  C   UNL     1      -0.976   0.925  -2.429  0.00  0.00    -0.017 C 
ENDBRANCH  17  21
ENDBRANCH  15  17
ENDBRANCH  14  15
ENDBRANCH   8  14
ENDBRANCH   1  11
BRANCH   4  23
ATOM     23  N   UNL     1      -7.634  -3.206   5.514  0.00  0.00    -0.278 N 
ATOM     24  C   UNL     1      -8.716  -2.404   5.561  0.00  0.00    +0.284 C 
ATOM     25  O   UNL     1      -8.748  -1.386   4.895  0.00  0.00    -0.266 OA
ATOM     26  H   UNL     1      -7.636  -4.051   5.991  0.00  0.00    +0.155 HD
BRANCH  24  27
ATOM     27  C   UNL     1      -9.855  -2.757   6.414  0.00  0.00    +0.189 A 
ATOM     28  C   UNL     1     -11.009  -2.040   6.550  0.00  0.00    +0.054 A 
ATOM     29  C   UNL     1     -11.815  -2.742   7.460  0.00  0.00    +0.042 A 
ATOM     30  C   UNL     1     -11.127  -3.842   7.835  0.00  0.00    +0.196 A 
ATOM     31  O   UNL     1      -9.948  -3.851   7.199  0.00  0.00    -0.458 OA
ENDBRANCH  24  27
ENDBRANCH   4  23
TORSDOF 8
