REMARK  Name = ZINC39404354
REMARK  9 active torsions:
REMARK  status: ('A' for Active; 'I' for Inactive)
REMARK    1  A    between atoms: C_2  and  C_3
REMARK    2  A    between atoms: C_3  and  S_4
REMARK    3  A    between atoms: S_4  and  C_5
REMARK    4  A    between atoms: C_11  and  C_13
REMARK    5  A    between atoms: C_13  and  S_14
REMARK    6  A    between atoms: S_14  and  C_15
REMARK    7  A    between atoms: N_21  and  N_22
REMARK    8  A    between atoms: C_23  and  C_24
REMARK    9  A    between atoms: C_27  and  O_30
REMARK                            x       y       z     vdW  Elec       q    Type
REMARK                         _______ _______ _______ _____ _____    ______ ____
ROOT
ATOM      1  C   UNL     1     -11.065  -6.644  -0.024  0.00  0.00    +0.303 C 
ATOM      2  N   UNL     1     -10.594  -8.013  -0.301  0.00  0.00    -0.213 NA
ATOM      3  C   UNL     1     -10.912  -8.236  -1.546  0.00  0.00    +0.227 C 
ATOM      4  N   UNL     1     -11.537  -7.154  -2.093  0.00  0.00    -0.249 N 
ATOM      5  N   UNL     1     -11.664  -6.213  -1.297  0.00  0.00    -0.171 NA
ATOM      6  N   UNL     1     -10.651  -9.410  -2.219  0.00  0.00    -0.206 N 
ATOM      7  H   UNL     1     -10.917  -9.506  -3.146  0.00  0.00    +0.177 HD
ATOM      8  H   UNL     1     -11.852  -7.125  -3.011  0.00  0.00    +0.192 HD
ENDROOT
BRANCH   6   9
ATOM      9  N   UNL     1     -10.001 -10.464  -1.563  0.00  0.00    -0.188 NA
ATOM     10  C   UNL     1      -9.755 -11.569  -2.197  0.00  0.00    +0.138 C 
BRANCH  10  11
ATOM     11  C   UNL     1      -9.071 -12.678  -1.508  0.00  0.00    -0.005 A 
ATOM     12  C   UNL     1      -8.691 -12.544  -0.170  0.00  0.00    +0.013 A 
ATOM     13  C   UNL     1      -8.052 -13.583   0.471  0.00  0.00    +0.046 A 
ATOM     14  C   UNL     1      -7.785 -14.763  -0.211  0.00  0.00    +0.117 A 
ATOM     15  C   UNL     1      -8.160 -14.901  -1.542  0.00  0.00    +0.046 A 
ATOM     16  C   UNL     1      -8.805 -13.870  -2.189  0.00  0.00    +0.013 A 
BRANCH  14  17
ATOM     17  O   UNL     1      -7.155 -15.785   0.424  0.00  0.00    -0.507 OA
ATOM     18  H   UNL     1      -7.754 -16.405   0.863  0.00  0.00    +0.292 HD
ENDBRANCH  14  17
ENDBRANCH  10  11
ENDBRANCH   6   9
BRANCH   1  19
ATOM     19  S   UNL     1      -9.674  -5.569   0.422  0.00  0.00    -0.100 S 
BRANCH  19  20
ATOM     20  C   UNL     1      -8.563  -5.673  -1.008  0.00  0.00    +0.169 C 
BRANCH  20  27
ATOM     21  C   UNL     1      -2.999  -2.535  -1.381  0.00  0.00    +0.160 A 
ATOM     22  N   UNL     1      -3.874  -2.524  -0.386  0.00  0.00    -0.133 NA
ATOM     23  N   UNL     1      -4.944  -3.190  -0.431  0.00  0.00    -0.125 NA
ATOM     24  C   UNL     1      -5.259  -3.940  -1.474  0.00  0.00    +0.189 A 
ATOM     25  S   UNL     1      -3.835  -3.638  -2.517  0.00  0.00    -0.024 S 
ATOM     26  N   UNL     1      -6.380  -4.735  -1.698  0.00  0.00    -0.263 N 
ATOM     27  C   UNL     1      -7.349  -4.813  -0.764  0.00  0.00    +0.229 C 
ATOM     28  O   UNL     1      -7.244  -4.191   0.272  0.00  0.00    -0.275 OA
ATOM     29  H   UNL     1      -6.465  -5.232  -2.527  0.00  0.00    +0.157 HD
BRANCH  21  30
ATOM     30  S   UNL     1      -1.457  -1.697  -1.543  0.00  0.00    -0.093 S 
BRANCH  30  31
ATOM     31  C   UNL     1      -1.293  -0.775   0.010  0.00  0.00    +0.103 C 
BRANCH  31  33
ATOM     32  C   UNL     1      -0.016   1.306   0.009  0.00  0.00    +0.005 C 
ATOM     33  C   UNL     1       0.002  -0.004   0.002  0.00  0.00    -0.023 C 
ENDBRANCH  31  33
ENDBRANCH  30  31
ENDBRANCH  21  30
ENDBRANCH  20  27
ENDBRANCH  19  20
ENDBRANCH   1  19
TORSDOF 9
