REMARK  Name = ZINC43548314
REMARK  11 active torsions:
REMARK  status: ('A' for Active; 'I' for Inactive)
REMARK    1  A    between atoms: C_1  and  C_2
REMARK    2  A    between atoms: N_9  and  C_10
REMARK    3  A    between atoms: C_12  and  C_32
REMARK    4  A    between atoms: C_15  and  O_31
REMARK    5  A    between atoms: C_17  and  C_21
REMARK    6  A    between atoms: C_21  and  C_23
REMARK    7  A    between atoms: C_21  and  C_24
REMARK    8  A    between atoms: N_26  and  C_27
REMARK    9  A    between atoms: C_27  and  C_28
REMARK   10  A    between atoms: C_28  and  O_29
REMARK   11  A    between atoms: O_29  and  C_30
REMARK                            x       y       z     vdW  Elec       q    Type
REMARK                         _______ _______ _______ _____ _____    ______ ____
ROOT
ATOM      1  C   UNL     1       1.215   2.604   1.348  0.00  0.00    +0.014 C 
ATOM      2  C   UNL     1       0.786   1.154   1.583  0.00  0.00    +0.039 C 
ATOM      3  C   UNL     1      -0.460   1.128   2.453  0.00  0.00    +0.031 A 
ATOM      4  C   UNL     1      -0.595   0.207   3.439  0.00  0.00    +0.013 A 
ATOM      5  S   UNL     1      -2.179   0.602   4.125  0.00  0.00    -0.059 S 
ATOM      6  C   UNL     1      -2.540   1.899   3.111  0.00  0.00    +0.136 A 
ATOM      7  N   UNL     1      -1.485   1.970   2.330  0.00  0.00    -0.340 N 
ATOM      8  N   UNL     1      -3.674   2.697   3.103  0.00  0.00    -0.328 N 
ATOM      9  C   UNL     1      -4.749   2.452   4.068  0.00  0.00    +0.127 C 
ATOM     10  C   UNL     1       0.372  -0.859   3.824  0.00  0.00    +0.051 C 
ATOM     11  C   UNL     1       1.427  -0.991   2.723  0.00  0.00    -0.022 C 
ATOM     12  C   UNL     1       1.915   0.396   2.292  0.00  0.00    +0.033 C 
ATOM     13  C   UNL     1       3.058   0.198   1.283  0.00  0.00    +0.123 C 
ATOM     14  C   UNL     1       2.509  -0.534   0.056  0.00  0.00    +0.029 C 
ATOM     15  C   UNL     1       1.956  -1.899   0.464  0.00  0.00    +0.007 C 
ATOM     16  C   UNL     1       0.852  -1.719   1.510  0.00  0.00    +0.008 C 
ATOM     17  C   UNL     1       2.622  -1.779   3.263  0.00  0.00    +0.012 C 
ATOM     18  H   UNL     1      -3.755   3.418   2.459  0.00  0.00    +0.148 HD
ATOM     19  H   UNL     1      -1.452   2.655   1.644  0.00  0.00    +0.167 HD
ENDROOT
BRANCH  14  20
ATOM     20  C   UNL     1       3.633  -0.728  -0.964  0.00  0.00    +0.077 C 
ATOM     21  C   UNL     1       3.132  -1.604  -2.115  0.00  0.00    +0.017 C 
BRANCH  20  22
ATOM     22  C   UNL     1       4.806  -1.398  -0.297  0.00  0.00    +0.216 C 
ATOM     23  O   UNL     1       4.628  -2.125   0.657  0.00  0.00    -0.276 OA
ATOM     24  N   UNL     1       6.055  -1.190  -0.762  0.00  0.00    -0.313 N 
ATOM     25  H   UNL     1       6.197  -0.610  -1.525  0.00  0.00    +0.149 HD
BRANCH  24  26
ATOM     26  C   UNL     1       7.195  -1.842  -0.113  0.00  0.00    +0.132 C 
BRANCH  26  27
ATOM     27  C   UNL     1       8.486  -1.442  -0.830  0.00  0.00    +0.178 C 
BRANCH  27  28
ATOM     28  O   UNL     1       8.708  -0.040  -0.665  0.00  0.00    -0.381 OA
ATOM     29  C   UNL     1       9.895   0.440  -1.300  0.00  0.00    +0.194 C 
ENDBRANCH  27  28
ENDBRANCH  26  27
ENDBRANCH  24  26
ENDBRANCH  20  22
ENDBRANCH  14  20
BRANCH  13  30
ATOM     30  O   UNL     1       3.579   1.470   0.893  0.00  0.00    -0.391 OA
ATOM     31  H   UNL     1       4.364   1.418   0.330  0.00  0.00    +0.210 HD
ENDBRANCH  13  30
TORSDOF 6
