REMARK  Name = ZINC20168016
REMARK  10 active torsions:
REMARK  status: ('A' for Active; 'I' for Inactive)
REMARK    1  A    between atoms: C_1  and  C_2
REMARK    2  A    between atoms: C_2  and  O_3
REMARK    3  A    between atoms: O_3  and  C_4
REMARK    4  A    between atoms: C_4  and  C_6
REMARK    5  A    between atoms: C_7  and  C_32
REMARK    6  A    between atoms: C_8  and  C_29
REMARK    7  A    between atoms: C_10  and  N_11
REMARK    8  A    between atoms: C_12  and  C_14
REMARK    9  A    between atoms: C_14  and  N_15
REMARK   10  A    between atoms: C_21  and  C_23
REMARK                            x       y       z     vdW  Elec       q    Type
REMARK                         _______ _______ _______ _____ _____    ______ ____
ROOT
ATOM      1  N   UNL     1       1.102  -3.891  -0.027  0.00  0.00    -0.281 N 
ATOM      2  C   UNL     1       2.438  -4.066  -0.041  0.00  0.00    +0.201 C 
ATOM      3  O   UNL     1       3.176  -3.103  -0.043  0.00  0.00    -0.278 OA
ATOM      4  H   UNL     1       0.433  -4.765  -0.025  0.00  0.00    +0.155 HD
ENDROOT
BRANCH   1   9
ATOM      5  C   UNL     1      -0.773  -2.231  -0.002  0.00  0.00    +0.091 A 
ATOM      6  C   UNL     1      -1.055  -0.873   0.013  0.00  0.00    -0.015 A 
ATOM      7  C   UNL     1       0.002  -0.004   0.002  0.00  0.00    +0.079 A 
ATOM      8  S   UNL     1       1.409  -1.098  -0.017  0.00  0.00    -0.068 S 
ATOM      9  C   UNL     1       0.572  -2.616  -0.016  0.00  0.00    +0.087 A 
ATOM     10  C   UNL     1      -2.476  -0.372   0.036  0.00  0.00    +0.046 C 
BRANCH   7  11
ATOM     11  C   UNL     1      -0.018   1.460   0.010  0.00  0.00    +0.248 C 
ATOM     12  O   UNL     1      -1.080   2.054   0.018  0.00  0.00    -0.270 OA
ATOM     13  N   UNL     1       1.140   2.150   0.003  0.00  0.00    -0.325 N 
ATOM     14  H   UNL     1       1.125   3.250   0.009  0.00  0.00    +0.145 HD
ATOM     15  H   UNL     1       2.100   1.613  -0.009  0.00  0.00    +0.145 HD
ENDBRANCH   7  11
BRANCH   5  16
ATOM     16  C   UNL     1      -1.848  -3.229   0.004  0.00  0.00    +0.342 C 
ATOM     17  O   UNL     1      -2.284  -3.648   1.059  0.00  0.00    -0.245 OA
BRANCH  16  18
ATOM     18  O   UNL     1      -2.353  -3.683  -1.161  0.00  0.00    -0.461 OA
BRANCH  18  20
ATOM     19  C   UNL     1      -3.856  -5.061  -2.492  0.00  0.00    +0.048 C 
ATOM     20  C   UNL     1      -3.414  -4.670  -1.080  0.00  0.00    +0.229 C 
ENDBRANCH  18  20
ENDBRANCH  16  18
ENDBRANCH   5  16
ENDBRANCH   1   9
BRANCH   2  21
ATOM     21  C   UNL     1       3.017  -5.457  -0.052  0.00  0.00    +0.019 C 
BRANCH  21  22
ATOM     22  N   UNL     1       4.484  -5.378  -0.066  0.00  0.00    +0.387 N 
ATOM     23  C   UNL     1       4.967  -4.780  -1.318  0.00  0.00    -0.059 C 
ATOM     24  C   UNL     1       6.478  -4.549  -1.220  0.00  0.00    +0.089 C 
ATOM     25  N   UNL     1       7.122  -5.818  -0.847  0.00  0.00    -0.303 N 
ATOM     26  C   UNL     1       6.601  -6.546   0.319  0.00  0.00    +0.089 C 
ATOM     27  C   UNL     1       5.085  -6.699   0.160  0.00  0.00    -0.059 C 
ATOM     28  C   UNL     1       8.162  -6.300  -1.556  0.00  0.00    +0.244 C 
ATOM     29  O   UNL     1       8.681  -7.348  -1.235  0.00  0.00    -0.273 OA
ATOM     30  H   UNL     1       4.796  -4.722   0.760  0.00  0.00    -0.081 HD
BRANCH  28  31
ATOM     31  C   UNL     1       8.680  -5.537  -2.748  0.00  0.00    +0.204 C 
ATOM     32  C   UNL     1       7.604  -5.501  -3.855  0.00  0.00    +0.043 C 
ATOM     33  C   UNL     1       8.450  -5.682  -5.144  0.00  0.00    +0.031 C 
ATOM     34  C   UNL     1       9.568  -6.625  -4.632  0.00  0.00    +0.161 C 
ATOM     35  O   UNL     1       9.831  -6.199  -3.286  0.00  0.00    -0.367 OA
ENDBRANCH  28  31
ENDBRANCH  21  22
ENDBRANCH   2  21
TORSDOF 8
