REMARK  Name = ZINC03346914
REMARK  7 active torsions:
REMARK  status: ('A' for Active; 'I' for Inactive)
REMARK    1  A    between atoms: C_4  and  C_7
REMARK    2  A    between atoms: C_7  and  C_9
REMARK    3  A    between atoms: C_7  and  N_58
REMARK    4  A    between atoms: N_11  and  C_12
REMARK    5  A    between atoms: C_16  and  N_18
REMARK    6  A    between atoms: N_24  and  C_27
REMARK    7  A    between atoms: C_31  and  C_33
REMARK                            x       y       z     vdW  Elec       q    Type
REMARK                         _______ _______ _______ _____ _____    ______ ____
ROOT
ATOM      1  C   UNL     1       0.546   9.299  -0.882  0.00  0.00    +0.050 C 
ENDROOT
BRANCH   1   7
ATOM      2  C   UNL     1       1.900   7.509  -1.792  0.00  0.00    -0.058 C 
ATOM      3  C   UNL     1       2.615   6.202  -1.443  0.00  0.00    +0.086 C 
ATOM      4  N   UNL     1       3.648   6.466  -0.432  0.00  0.00    -0.333 N 
ATOM      5  C   UNL     1       3.055   7.038   0.786  0.00  0.00    +0.086 C 
ATOM      6  C   UNL     1       2.340   8.345   0.436  0.00  0.00    -0.058 C 
ATOM      7  N   UNL     1       1.290   8.061  -0.564  0.00  0.00    +0.392 N 
ATOM      8  H   UNL     1       0.637   7.370  -0.176  0.00  0.00    -0.080 HD
BRANCH   4   9
ATOM      9  C   UNL     1       4.371   5.308  -0.140  0.00  0.00    +0.030 A 
ATOM     10  C   UNL     1       4.066   4.115  -0.784  0.00  0.00    +0.023 A 
ATOM     11  C   UNL     1       4.782   2.972  -0.493  0.00  0.00    +0.002 A 
ATOM     12  C   UNL     1       5.804   3.012   0.439  0.00  0.00    +0.012 A 
ATOM     13  C   UNL     1       6.107   4.196   1.086  0.00  0.00    +0.057 A 
ATOM     14  C   UNL     1       5.397   5.345   0.795  0.00  0.00    +0.035 A 
BRANCH  13  15
ATOM     15  C   UNL     1       7.216   4.233   2.106  0.00  0.00    +0.417 C 
ATOM     16  F   UNL     1       7.785   2.961   2.223  0.00  0.00    -0.166 F 
ATOM     17  F   UNL     1       8.194   5.146   1.697  0.00  0.00    -0.166 F 
ATOM     18  F   UNL     1       6.698   4.628   3.344  0.00  0.00    -0.166 F 
ENDBRANCH  13  15
ENDBRANCH   4   9
ENDBRANCH   1   7
BRANCH   1  22
ATOM     19  C   UNL     1      -2.451   8.411  -3.792  0.00  0.00    +0.000 A 
ATOM     20  C   UNL     1      -1.687   9.556  -3.915  0.00  0.00    +0.000 A 
ATOM     21  C   UNL     1      -0.717   9.843  -2.973  0.00  0.00    +0.002 A 
ATOM     22  C   UNL     1      -0.511   8.986  -1.908  0.00  0.00    -0.052 A 
ATOM     23  C   UNL     1      -1.272   7.838  -1.789  0.00  0.00    +0.002 A 
ATOM     24  C   UNL     1      -2.245   7.553  -2.728  0.00  0.00    +0.000 A 
ENDBRANCH   1  22
BRANCH   1  25
ATOM     25  C   UNL     1      -0.110   9.811   0.375  0.00  0.00    +0.208 C 
ATOM     26  O   UNL     1      -0.396   9.041   1.267  0.00  0.00    -0.277 OA
ATOM     27  N   UNL     1      -0.378  11.126   0.507  0.00  0.00    -0.286 N 
ATOM     28  H   UNL     1      -0.094  11.750  -0.179  0.00  0.00    +0.155 HD
BRANCH  27  29
ATOM     29  C   UNL     1      -1.067  11.589   1.634  0.00  0.00    +0.036 A 
ATOM     30  C   UNL     1      -2.028  10.790   2.239  0.00  0.00    +0.025 A 
ATOM     31  C   UNL     1      -2.702  11.247   3.354  0.00  0.00    +0.024 A 
ATOM     32  C   UNL     1      -2.429  12.506   3.861  0.00  0.00    +0.071 A 
ATOM     33  C   UNL     1      -1.477  13.306   3.256  0.00  0.00    +0.146 A 
ATOM     34  C   UNL     1      -0.795  12.851   2.144  0.00  0.00    +0.057 A 
ATOM     35 CL   UNL     1      -3.283  13.081   5.259  0.00  0.00    -0.081 Cl
BRANCH  33  36
ATOM     36  N   UNL     1      -1.187  14.652   3.802  0.00  0.00    +0.058 N 
ATOM     37  O   UNL     1      -0.348  15.357   3.270  0.00  0.00    -0.126 OA
ATOM     38  O   UNL     1      -1.787  15.054   4.782  0.00  0.00    -0.126 OA
ENDBRANCH  33  36
ENDBRANCH  27  29
ENDBRANCH   1  25
TORSDOF 7
