REMARK  Name = ZINC67298363
REMARK  3 active torsions:
REMARK  status: ('A' for Active; 'I' for Inactive)
REMARK    1  A    between atoms: C_3  and  O_23
REMARK    2  A    between atoms: C_8  and  C_20
REMARK    3  A    between atoms: N_10  and  C_11
REMARK                            x       y       z     vdW  Elec       q    Type
REMARK                         _______ _______ _______ _____ _____    ______ ____
ROOT
ATOM      1  C   UNL     1      -1.133   1.164   0.042  0.00  0.00    +0.015 A 
ATOM      2  C   UNL     1      -0.197   2.154   0.127  0.00  0.00    +0.046 A 
ATOM      3  C   UNL     1       1.159   1.840   0.188  0.00  0.00    +0.120 A 
ATOM      4  C   UNL     1       1.578   0.518   0.148  0.00  0.00    +0.092 A 
ATOM      5  C   UNL     1       0.642  -0.498   0.055  0.00  0.00    +0.141 A 
ATOM      6  C   UNL     1      -0.730  -0.179   0.025  0.00  0.00    +0.018 A 
ATOM      7  C   UNL     1      -1.695  -1.217  -0.028  0.00  0.00    +0.030 A 
ATOM      8  C   UNL     1      -1.264  -2.523   0.162  0.00  0.00    +0.097 A 
ATOM      9  C   UNL     1       0.171  -2.729   0.440  0.00  0.00    +0.212 A 
ATOM     10  N   UNL     1       0.592  -3.784   1.103  0.00  0.00    -0.325 N 
ATOM     11  O   UNL     1       1.042  -1.791  -0.015  0.00  0.00    -0.438 OA
ATOM     12  H   UNL     1      -0.049  -4.396   1.497  0.00  0.00    +0.169 HD
ENDROOT
BRANCH  10  13
ATOM     13  C   UNL     1       1.933  -4.018   1.238  0.00  0.00    +0.043 A 
ATOM     14  C   UNL     1       2.783  -3.882   0.137  0.00  0.00    +0.028 A 
ATOM     15  C   UNL     1       4.134  -4.119   0.279  0.00  0.00    +0.042 A 
ATOM     16  C   UNL     1       4.650  -4.491   1.509  0.00  0.00    +0.142 A 
ATOM     17  C   UNL     1       3.813  -4.628   2.606  0.00  0.00    +0.078 A 
ATOM     18  C   UNL     1       2.459  -4.388   2.478  0.00  0.00    +0.048 A 
ATOM     19 CL   UNL     1       4.468  -5.095   4.144  0.00  0.00    -0.081 Cl
ATOM     20  F   UNL     1       5.975  -4.722   1.641  0.00  0.00    -0.204 F 
ENDBRANCH  10  13
BRANCH   8  21
ATOM     21  C   UNL     1      -2.200  -3.656   0.091  0.00  0.00    +0.247 C 
ATOM     22  O   UNL     1      -1.780  -4.796   0.141  0.00  0.00    -0.270 OA
ATOM     23  N   UNL     1      -3.523  -3.430  -0.030  0.00  0.00    -0.325 N 
ATOM     24  H   UNL     1      -3.853  -2.524  -0.141  0.00  0.00    +0.145 HD
ATOM     25  H   UNL     1      -4.146  -4.173  -0.005  0.00  0.00    +0.145 HD
ENDBRANCH   8  21
BRANCH   3  26
ATOM     26  O   UNL     1       2.077   2.835   0.285  0.00  0.00    -0.507 OA
ATOM     27  H   UNL     1       2.294   3.082   1.195  0.00  0.00    +0.292 HD
ENDBRANCH   3  26
TORSDOF 3
