REMARK  Name = ZINC33058403
REMARK  12 active torsions:
REMARK  status: ('A' for Active; 'I' for Inactive)
REMARK    1  A    between atoms: C_1  and  C_2
REMARK    2  A    between atoms: C_5  and  S_8
REMARK    3  A    between atoms: S_8  and  C_11
REMARK    4  A    between atoms: C_12  and  N_35
REMARK    5  A    between atoms: C_13  and  C_25
REMARK    6  A    between atoms: C_15  and  N_16
REMARK    7  A    between atoms: N_16  and  C_17
REMARK    8  A    between atoms: C_19  and  C_24
REMARK    9  A    between atoms: C_22  and  C_23
REMARK   10  A    between atoms: C_25  and  C_27
REMARK   11  A    between atoms: C_31  and  O_33
REMARK   12  A    between atoms: O_33  and  C_34
REMARK                            x       y       z     vdW  Elec       q    Type
REMARK                         _______ _______ _______ _____ _____    ______ ____
ROOT
ATOM      1  C   UNL     1      -2.225   1.046   0.141  0.00  0.00    +0.143 A 
ATOM      2  C   UNL     1      -1.083   1.806   0.182  0.00  0.00    +0.070 A 
ATOM      3  C   UNL     1      -1.215   3.189   0.359  0.00  0.00    +0.084 A 
ATOM      4  S   UNL     1      -2.986   3.387   0.456  0.00  0.00    -0.066 S 
ATOM      5  C   UNL     1      -3.449   1.673   0.271  0.00  0.00    +0.098 A 
ENDROOT
BRANCH   1   6
ATOM      6  S   UNL     1      -2.131  -0.701  -0.072  0.00  0.00    +0.029 S 
ATOM      7  O   UNL     1      -3.385  -1.113  -0.599  0.00  0.00    -0.164 OA
ATOM      8  O   UNL     1      -0.902  -0.964  -0.736  0.00  0.00    -0.164 OA
BRANCH   6  13
ATOM      9  C   UNL     1      -1.681  -3.147   5.425  0.00  0.00    +0.044 C 
ATOM     10  C   UNL     1      -1.794  -2.537   4.052  0.00  0.00    -0.050 A 
ATOM     11  C   UNL     1      -3.038  -2.328   3.488  0.00  0.00    +0.005 A 
ATOM     12  C   UNL     1      -3.141  -1.768   2.228  0.00  0.00    +0.027 A 
ATOM     13  C   UNL     1      -2.000  -1.415   1.533  0.00  0.00    +0.094 A 
ATOM     14  C   UNL     1      -0.755  -1.629   2.095  0.00  0.00    +0.027 A 
ATOM     15  C   UNL     1      -0.652  -2.185   3.356  0.00  0.00    +0.005 A 
ENDBRANCH   6  13
ENDBRANCH   1   6
BRANCH   2  16
ATOM     16  N   UNL     1       0.171   1.218   0.056  0.00  0.00    -0.355 N 
ATOM     17  H   UNL     1       1.076   1.842   0.091  0.00  0.00    +0.142 HD
ATOM     18  H   UNL     1       0.257   0.130  -0.078  0.00  0.00    +0.142 HD
ENDBRANCH   2  16
BRANCH   5  19
ATOM     19  N   UNL     1      -4.714   1.113   0.260  0.00  0.00    -0.307 N 
ATOM     20  H   UNL     1      -4.837   0.035   0.080  0.00  0.00    +0.153 HD
BRANCH  19  21
ATOM     21  C   UNL     1      -5.835   1.918   0.478  0.00  0.00    +0.035 A 
ATOM     22  C   UNL     1      -5.758   3.000   1.346  0.00  0.00    +0.027 A 
ATOM     23  C   UNL     1      -6.868   3.793   1.559  0.00  0.00    -0.049 A 
ATOM     24  C   UNL     1      -8.056   3.511   0.908  0.00  0.00    +0.004 A 
ATOM     25  C   UNL     1      -8.137   2.435   0.044  0.00  0.00    +0.005 A 
ATOM     26  C   UNL     1      -7.029   1.641  -0.177  0.00  0.00    -0.029 A 
ATOM     27  C   UNL     1      -7.115   0.472  -1.125  0.00  0.00    +0.045 C 
ATOM     28  C   UNL     1      -6.786   4.966   2.500  0.00  0.00    +0.044 C 
ENDBRANCH  19  21
ENDBRANCH   5  19
BRANCH   3  29
ATOM     29  C   UNL     1      -0.211   4.170   0.439  0.00  0.00    +0.202 C 
ATOM     30  O   UNL     1       0.962   3.839   0.491  0.00  0.00    -0.286 OA
BRANCH  29  31
ATOM     31  C   UNL     1      -0.577   5.604   0.459  0.00  0.00    +0.026 A 
ATOM     32  C   UNL     1       0.216   6.519   1.152  0.00  0.00    +0.012 A 
ATOM     33  C   UNL     1      -0.124   7.856   1.165  0.00  0.00    +0.004 A 
ATOM     34  C   UNL     1      -1.257   8.292   0.501  0.00  0.00    +0.045 A 
ATOM     35  C   UNL     1      -2.055   7.388  -0.187  0.00  0.00    +0.121 A 
ATOM     36  C   UNL     1      -1.718   6.044  -0.210  0.00  0.00    +0.057 A 
BRANCH  35  37
ATOM     37  O   UNL     1      -3.167   7.821  -0.837  0.00  0.00    -0.495 OA
ATOM     38  C   UNL     1      -3.454   9.219  -0.771  0.00  0.00    +0.277 C 
ENDBRANCH  35  37
ENDBRANCH  29  31
ENDBRANCH   3  29
TORSDOF 8
