REMARK  Name = ZINC66205726
REMARK  8 active torsions:
REMARK  status: ('A' for Active; 'I' for Inactive)
REMARK    1  A    between atoms: C_1  and  C_2
REMARK    2  A    between atoms: C_4  and  C_7
REMARK    3  A    between atoms: C_7  and  N_8
REMARK    4  A    between atoms: N_11  and  C_12
REMARK    5  A    between atoms: C_12  and  C_13
REMARK    6  A    between atoms: C_13  and  C_15
REMARK    7  A    between atoms: C_13  and  O_26
REMARK    8  A    between atoms: C_15  and  N_16
REMARK                            x       y       z     vdW  Elec       q    Type
REMARK                         _______ _______ _______ _____ _____    ______ ____
ROOT
ATOM      1  C   UNL     1       4.745  -6.207  -4.197  0.00  0.00    +0.115 C 
ENDROOT
BRANCH   1   2
ATOM      2  O   UNL     1       5.301  -5.005  -4.735  0.00  0.00    -0.392 OA
ATOM      3  H   UNL     1       4.950  -4.763  -5.602  0.00  0.00    +0.210 HD
ENDBRANCH   1   2
BRANCH   1   4
ATOM      4  C   UNL     1       3.232  -6.042  -4.040  0.00  0.00    +0.135 C 
BRANCH   4   8
ATOM      5  N   UNL     1       1.423  -3.567  -2.011  0.00  0.00    -0.291 N 
ATOM      6  C   UNL     1       1.679  -4.594  -2.845  0.00  0.00    +0.300 C 
ATOM      7  O   UNL     1       0.761  -5.221  -3.338  0.00  0.00    -0.253 OA
ATOM      8  N   UNL     1       2.953  -4.926  -3.133  0.00  0.00    -0.297 N 
ATOM      9  H   UNL     1       2.155  -3.067  -1.618  0.00  0.00    +0.151 HD
ATOM     10  H   UNL     1       3.685  -4.426  -2.740  0.00  0.00    +0.150 HD
BRANCH   5  11
ATOM     11  C   UNL     1       0.038  -3.206  -1.697  0.00  0.00    +0.204 C 
BRANCH  11  15
ATOM     12  C   UNL     1      -0.018   1.503   0.010  0.00  0.00    +0.091 C 
ATOM     13  C   UNL     1       0.002  -0.004   0.002  0.00  0.00    +0.169 A 
ATOM     14  N   UNL     1       0.008  -0.776  -1.091  0.00  0.00    -0.195 NA
ATOM     15  C   UNL     1       0.026  -2.034  -0.750  0.00  0.00    +0.245 A 
ATOM     16  O   UNL     1       0.033  -2.107   0.587  0.00  0.00    -0.336 OA
ATOM     17  N   UNL     1       0.023  -0.767   1.057  0.00  0.00    -0.062 NA
ENDBRANCH  11  15
ENDBRANCH   5  11
ENDBRANCH   4   8
ENDBRANCH   1   4
BRANCH   1  18
ATOM     18  C   UNL     1       5.036  -7.372  -5.144  0.00  0.00    -0.045 C 
BRANCH  18  19
ATOM     19  N   UNL     1       6.485  -7.607  -5.201  0.00  0.00    +0.384 N 
ATOM     20  C   UNL     1       6.776  -8.654  -6.192  0.00  0.00    -0.074 C 
ATOM     21  C   UNL     1       8.281  -8.668  -6.460  0.00  0.00    +0.017 C 
ATOM     22  C   UNL     1       9.031  -8.735  -5.153  0.00  0.00    -0.048 A 
ATOM     23  C   UNL     1      10.367  -9.101  -5.172  0.00  0.00    +0.004 A 
ATOM     24  C   UNL     1      11.087  -9.170  -3.995  0.00  0.00    +0.000 A 
ATOM     25  C   UNL     1      10.471  -8.871  -2.794  0.00  0.00    +0.000 A 
ATOM     26  C   UNL     1       9.140  -8.508  -2.775  0.00  0.00    +0.002 A 
ATOM     27  C   UNL     1       8.415  -8.440  -3.956  0.00  0.00    -0.061 A 
ATOM     28  C   UNL     1       6.963  -8.047  -3.887  0.00  0.00    -0.043 C 
ATOM     29  H   UNL     1       6.955  -6.753  -5.462  0.00  0.00    -0.081 HD
ENDBRANCH  18  19
ENDBRANCH   1  18
TORSDOF 7
