REMARK  Name = ZINC27537180
REMARK  11 active torsions:
REMARK  status: ('A' for Active; 'I' for Inactive)
REMARK    1  A    between atoms: C_1  and  C_2
REMARK    2  A    between atoms: C_4  and  C_29
REMARK    3  A    between atoms: C_5  and  N_9
REMARK    4  A    between atoms: C_6  and  C_8
REMARK    5  A    between atoms: C_10  and  C_12
REMARK    6  A    between atoms: C_12  and  N_13
REMARK    7  A    between atoms: N_13  and  C_14
REMARK    8  A    between atoms: N_13  and  C_15
REMARK    9  A    between atoms: C_15  and  C_17
REMARK   10  A    between atoms: C_15  and  C_18
REMARK   11  A    between atoms: N_23  and  C_24
REMARK                            x       y       z     vdW  Elec       q    Type
REMARK                         _______ _______ _______ _____ _____    ______ ____
ROOT
ATOM      1  N   UNL     1      -1.199  -7.348   2.339  0.00  0.00    +0.391 N 
ATOM      2  C   UNL     1      -2.612  -7.250   2.729  0.00  0.00    -0.094 C 
ATOM      3  H   UNL     1      -0.653  -6.702   2.889  0.00  0.00    -0.080 HD
ENDROOT
BRANCH   1   4
ATOM      4  C   UNL     1      -0.721  -8.717   2.574  0.00  0.00    +0.017 C 
ATOM      5  C   UNL     1       0.725  -8.842   2.090  0.00  0.00    -0.004 C 
BRANCH   4   6
ATOM      6  C   UNL     1      -0.786  -9.026   4.048  0.00  0.00    +0.207 C 
ATOM      7  O   UNL     1      -0.810  -8.123   4.856  0.00  0.00    -0.277 OA
ATOM      8  N   UNL     1      -0.817 -10.307   4.467  0.00  0.00    -0.242 N 
ATOM      9  C   UNL     1      -0.875 -10.583   5.785  0.00  0.00    +0.306 C 
ATOM     10  O   UNL     1      -0.899  -9.678   6.595  0.00  0.00    -0.252 OA
ATOM     11  N   UNL     1      -0.905 -11.864   6.204  0.00  0.00    -0.296 N 
ATOM     12  H   UNL     1      -0.797 -11.029   3.820  0.00  0.00    +0.159 HD
ATOM     13  H   UNL     1      -0.886 -12.586   5.557  0.00  0.00    +0.151 HD
BRANCH  11  14
ATOM     14  C   UNL     1      -0.969 -12.164   7.636  0.00  0.00    +0.074 C 
ATOM     15  C   UNL     1       0.456 -12.234   8.225  0.00  0.00    +0.022 C 
ATOM     16  C   UNL     1       0.381 -13.379   9.265  0.00  0.00    +0.002 C 
ATOM     17  C   UNL     1      -0.543 -14.411   8.572  0.00  0.00    +0.002 C 
ATOM     18  C   UNL     1      -1.603 -13.548   7.857  0.00  0.00    +0.022 C 
ENDBRANCH  11  14
ENDBRANCH   4   6
ENDBRANCH   1   4
BRANCH   1  19
ATOM     19  C   UNL     1      -1.059  -7.018   0.915  0.00  0.00    +0.020 C 
BRANCH  19  21
ATOM     20  N   UNL     1      -1.381  -5.047  -0.545  0.00  0.00    -0.287 N 
ATOM     21  C   UNL     1      -1.434  -5.575   0.694  0.00  0.00    +0.201 C 
ATOM     22  O   UNL     1      -1.783  -4.889   1.631  0.00  0.00    -0.278 OA
ATOM     23  H   UNL     1      -1.051  -5.580  -1.285  0.00  0.00    +0.155 HD
BRANCH  20  28
ATOM     24  C   UNL     1      -3.087   0.291  -1.429  0.00  0.00    +0.044 C 
ATOM     25  C   UNL     1      -2.634  -1.127  -1.194  0.00  0.00    -0.050 A 
ATOM     26  C   UNL     1      -1.661  -1.393  -0.248  0.00  0.00    +0.008 A 
ATOM     27  C   UNL     1      -1.244  -2.691  -0.030  0.00  0.00    -0.029 A 
ATOM     28  C   UNL     1      -1.802  -3.731  -0.762  0.00  0.00    +0.039 A 
ATOM     29  C   UNL     1      -2.779  -3.461  -1.712  0.00  0.00    -0.029 A 
ATOM     30  C   UNL     1      -3.196  -2.161  -1.921  0.00  0.00    +0.008 A 
ATOM     31  C   UNL     1      -3.388  -4.585  -2.509  0.00  0.00    +0.045 C 
ATOM     32  C   UNL     1      -0.183  -2.980   1.000  0.00  0.00    +0.045 C 
ENDBRANCH  20  28
ENDBRANCH  19  21
ENDBRANCH   1  19
TORSDOF 6
