REMARK  Name = ZINC00436128
REMARK  4 active torsions:
REMARK  status: ('A' for Active; 'I' for Inactive)
REMARK    1  A    between atoms: C_1  and  C_2
REMARK    2  A    between atoms: C_2  and  C_21
REMARK    3  A    between atoms: C_12  and  C_16
REMARK    4  A    between atoms: C_12  and  C_17
REMARK                            x       y       z     vdW  Elec       q    Type
REMARK                         _______ _______ _______ _____ _____    ______ ____
ROOT
ATOM      1  C   UNL     1      -0.019   1.526   0.010  0.00  0.00    +0.012 C 
ATOM      2  C   UNL     1       0.002  -0.004   0.002  0.00  0.00    -0.021 C 
ATOM      3  C   UNL     1       0.702  -0.495  -1.270  0.00  0.00    +0.081 C 
ATOM      4  C   UNL     1       2.147  -0.041  -1.219  0.00  0.00    +0.107 C 
ATOM      5  C   UNL     1       2.784   0.166  -0.035  0.00  0.00    +0.037 C 
ATOM      6  C   UNL     1       4.196   0.602  -0.344  0.00  0.00    +0.106 C 
ATOM      7  C   UNL     1       4.301   0.245  -1.839  0.00  0.00    +0.228 C 
ATOM      8  O   UNL     1       2.939   0.214  -2.273  0.00  0.00    -0.474 OA
ATOM      9  C   UNL     1       4.964  -1.094  -2.019  0.00  0.00    +0.185 C 
ATOM     10  O   UNL     1       4.314  -2.082  -2.261  0.00  0.00    -0.293 OA
ATOM     11  C   UNL     1       6.471  -1.165  -1.886  0.00  0.00    +0.086 C 
ATOM     12  C   UNL     1       7.101  -0.127  -2.819  0.00  0.00    -0.021 C 
ATOM     13  C   UNL     1       6.596   1.272  -2.455  0.00  0.00    +0.086 C 
ATOM     14  C   UNL     1       5.087   1.295  -2.578  0.00  0.00    +0.185 C 
ATOM     15  O   UNL     1       4.530   2.131  -3.249  0.00  0.00    -0.293 OA
ATOM     16  C   UNL     1       6.719  -0.445  -4.266  0.00  0.00    +0.012 C 
ATOM     17  C   UNL     1       8.624  -0.171  -2.675  0.00  0.00    +0.012 C 
ATOM     18  C   UNL     1       2.174  -0.018   1.216  0.00  0.00    +0.163 C 
ATOM     19  O   UNL     1       2.776   0.210   2.246  0.00  0.00    -0.292 OA
ATOM     20  C   UNL     1       0.742  -0.507   1.242  0.00  0.00    +0.086 C 
ATOM     21  C   UNL     1      -1.435  -0.530   0.021  0.00  0.00    +0.012 C 
ENDROOT
TORSDOF 0
