REMARK  Name = ZINC44737372
REMARK  11 active torsions:
REMARK  status: ('A' for Active; 'I' for Inactive)
REMARK    1  A    between atoms: C_1  and  C_2
REMARK    2  A    between atoms: C_2  and  C_3
REMARK    3  A    between atoms: C_3  and  C_4
REMARK    4  A    between atoms: C_4  and  C_5
REMARK    5  A    between atoms: C_5  and  C_6
REMARK    6  A    between atoms: C_6  and  C_7
REMARK    7  A    between atoms: C_11  and  C_20
REMARK    8  A    between atoms: N_22  and  C_23
REMARK    9  A    between atoms: C_23  and  C_25
REMARK   10  A    between atoms: C_23  and  C_26
REMARK   11  A    between atoms: C_31  and  C_35
REMARK                            x       y       z     vdW  Elec       q    Type
REMARK                         _______ _______ _______ _____ _____    ______ ____
ROOT
ATOM      1  C   UNL     1      -4.401  -4.666  -0.016  0.00  0.00    +0.216 C 
ATOM      2  O   UNL     1      -5.351  -3.915   0.052  0.00  0.00    -0.276 OA
ATOM      3  N   UNL     1      -4.593  -6.000   0.014  0.00  0.00    -0.300 N 
ATOM      4  C   UNL     1      -3.566  -7.066  -0.050  0.00  0.00    +0.121 C 
ATOM      5  C   UNL     1      -4.055  -8.139   0.949  0.00  0.00    +0.100 C 
ATOM      6  C   UNL     1      -5.573  -7.915   1.053  0.00  0.00    -0.004 C 
ATOM      7  C   UNL     1      -5.878  -6.731   0.124  0.00  0.00    +0.115 C 
ATOM      8  C   UNL     1      -5.958  -7.565   2.487  0.00  0.00    -0.010 C 
ATOM      9  C   UNL     1      -7.478  -7.403   2.577  0.00  0.00    -0.082 C 
ATOM     10  N   UNL     1      -8.131  -8.652   2.165  0.00  0.00    +0.379 N 
ATOM     11  C   UNL     1      -7.830  -8.932   0.755  0.00  0.00    -0.082 C 
ATOM     12  C   UNL     1      -6.325  -9.159   0.588  0.00  0.00    -0.010 C 
ATOM     13  H   UNL     1      -7.793  -9.411   2.737  0.00  0.00    -0.086 HD
ATOM     14  H   UNL     1      -9.129  -8.563   2.283  0.00  0.00    -0.086 HD
ENDROOT
BRANCH   5  15
ATOM     15  C   UNL     1      -3.762  -9.520   0.421  0.00  0.00    +0.219 C 
ATOM     16  O   UNL     1      -3.749  -9.722  -0.775  0.00  0.00    -0.275 OA
ATOM     17  N   UNL     1      -3.513 -10.530   1.278  0.00  0.00    -0.305 N 
ATOM     18  H   UNL     1      -3.523 -10.368   2.234  0.00  0.00    +0.149 HD
BRANCH  17  19
ATOM     19  C   UNL     1      -3.227 -11.872   0.765  0.00  0.00    +0.136 C 
ATOM     20  C   UNL     1      -1.739 -11.984   0.430  0.00  0.00    +0.036 C 
BRANCH  19  21
ATOM     21  C   UNL     1      -3.586 -12.896   1.811  0.00  0.00    +0.128 A 
ATOM     22  N   UNL     1      -3.632 -12.670   3.091  0.00  0.00    -0.231 NA
ATOM     23  C   UNL     1      -3.987 -13.806   3.743  0.00  0.00    +0.089 A 
ATOM     24  C   UNL     1      -4.182 -14.123   5.090  0.00  0.00    +0.030 A 
ATOM     25  C   UNL     1      -4.548 -15.391   5.445  0.00  0.00    +0.005 A 
ATOM     26  C   UNL     1      -4.727 -16.372   4.480  0.00  0.00    -0.048 A 
ATOM     27  C   UNL     1      -4.540 -16.082   3.146  0.00  0.00    +0.031 A 
ATOM     28  C   UNL     1      -4.169 -14.799   2.766  0.00  0.00    +0.067 A 
ATOM     29  N   UNL     1      -3.914 -14.191   1.553  0.00  0.00    -0.340 N 
ATOM     30  C   UNL     1      -5.129 -17.764   4.894  0.00  0.00    +0.044 C 
ATOM     31  H   UNL     1      -3.958 -14.610   0.679  0.00  0.00    +0.167 HD
ENDBRANCH  19  21
ENDBRANCH  17  19
ENDBRANCH   5  15
BRANCH   1  32
ATOM     32  C   UNL     1      -3.006  -4.107  -0.133  0.00  0.00    +0.096 C 
BRANCH  32  33
ATOM     33  C   UNL     1      -3.068  -2.579  -0.144  0.00  0.00    +0.009 C 
BRANCH  33  34
ATOM     34  C   UNL     1      -1.652  -2.012  -0.263  0.00  0.00    +0.000 C 
BRANCH  34  35
ATOM     35  C   UNL     1      -1.714  -0.483  -0.275  0.00  0.00    -0.000 C 
BRANCH  35  37
ATOM     36  C   UNL     1      -0.359   1.612  -0.405  0.00  0.00    +0.004 C 
ATOM     37  C   UNL     1      -0.297   0.084  -0.394  0.00  0.00    -0.003 C 
ENDBRANCH  35  37
ENDBRANCH  34  35
ENDBRANCH  33  34
ENDBRANCH  32  33
ENDBRANCH   1  32
TORSDOF 8
