REMARK  Name = ZINC54409660
REMARK  10 active torsions:
REMARK  status: ('A' for Active; 'I' for Inactive)
REMARK    1  A    between atoms: C_1  and  N_2
REMARK    2  A    between atoms: N_2  and  C_3
REMARK    3  A    between atoms: N_2  and  C_20
REMARK    4  A    between atoms: C_3  and  C_4
REMARK    5  A    between atoms: C_4  and  N_5
REMARK    6  A    between atoms: N_8  and  C_9
REMARK    7  A    between atoms: C_14  and  S_15
REMARK    8  A    between atoms: S_15  and  C_16
REMARK    9  A    between atoms: C_16  and  C_17
REMARK   10  A    between atoms: C_20  and  C_21
REMARK                            x       y       z     vdW  Elec       q    Type
REMARK                         _______ _______ _______ _____ _____    ______ ____
ROOT
ATOM      1  N   UNL     1       0.628  -0.603   3.634  0.00  0.00    -0.301 N 
ATOM      2  C   UNL     1       0.126  -0.367   4.862  0.00  0.00    +0.304 C 
ATOM      3  O   UNL     1      -0.918   0.243   4.986  0.00  0.00    -0.253 OA
ATOM      4  N   UNL     1       0.781  -0.808   5.954  0.00  0.00    -0.268 N 
ATOM      5  H   UNL     1       1.461  -1.090   3.536  0.00  0.00    +0.150 HD
ATOM      6  H   UNL     1       1.579  -1.351   5.855  0.00  0.00    +0.156 HD
ENDROOT
BRANCH   4   7
ATOM      7  C   UNL     1       0.310  -0.483   7.234  0.00  0.00    +0.048 A 
ATOM      8  C   UNL     1      -1.052  -0.381   7.468  0.00  0.00    +0.024 A 
ATOM      9  C   UNL     1      -1.515  -0.060   8.730  0.00  0.00    +0.002 A 
ATOM     10  C   UNL     1      -0.623   0.161   9.763  0.00  0.00    +0.001 A 
ATOM     11  C   UNL     1       0.738   0.061   9.540  0.00  0.00    +0.016 A 
ATOM     12  C   UNL     1       1.211  -0.266   8.277  0.00  0.00    +0.030 A 
BRANCH  12  13
ATOM     13  S   UNL     1       2.944  -0.401   7.990  0.00  0.00    -0.114 S 
BRANCH  13  14
ATOM     14  C   UNL     1       3.686  -0.041   9.606  0.00  0.00    +0.169 C 
BRANCH  14  15
ATOM     15  C   UNL     1       5.186  -0.123   9.500  0.00  0.00    +0.221 C 
ATOM     16  O   UNL     1       5.705  -0.399   8.439  0.00  0.00    -0.275 OA
ATOM     17  N   UNL     1       5.953   0.108  10.584  0.00  0.00    -0.329 N 
ATOM     18  H   UNL     1       5.538   0.328  11.433  0.00  0.00    +0.145 HD
ATOM     19  H   UNL     1       6.919   0.055  10.516  0.00  0.00    +0.145 HD
ENDBRANCH  14  15
ENDBRANCH  13  14
ENDBRANCH  12  13
ENDBRANCH   4   7
BRANCH   1  20
ATOM     20  C   UNL     1      -0.085  -0.124   2.447  0.00  0.00    +0.087 C 
BRANCH  20  21
ATOM     21  C   UNL     1       0.693  -0.521   1.191  0.00  0.00    -0.060 C 
BRANCH  21  23
ATOM     22  C   UNL     1      -0.038   1.429  -0.001  0.00  0.00    -0.096 C 
ATOM     23  N   UNL     1      -0.022  -0.040   0.001  0.00  0.00    +0.382 N 
ATOM     24  H   UNL     1      -0.969  -0.387   0.014  0.00  0.00    -0.082 HD
BRANCH  23  25
ATOM     25  C   UNL     1       0.659  -0.523  -1.208  0.00  0.00    -0.043 C 
BRANCH  25  26
ATOM     26  C   UNL     1      -0.140  -0.134  -2.425  0.00  0.00    -0.064 A 
ATOM     27  C   UNL     1      -1.117  -0.983  -2.910  0.00  0.00    +0.002 A 
ATOM     28  C   UNL     1      -1.851  -0.627  -4.026  0.00  0.00    +0.000 A 
ATOM     29  C   UNL     1      -1.608   0.579  -4.657  0.00  0.00    +0.000 A 
ATOM     30  C   UNL     1      -0.631   1.429  -4.171  0.00  0.00    +0.000 A 
ATOM     31  C   UNL     1       0.100   1.074  -3.053  0.00  0.00    +0.002 A 
ENDBRANCH  25  26
ENDBRANCH  23  25
ENDBRANCH  21  23
ENDBRANCH  20  21
ENDBRANCH   1  20
TORSDOF 9
