REMARK  Name = ZINC28351212
REMARK  7 active torsions:
REMARK  status: ('A' for Active; 'I' for Inactive)
REMARK    1  A    between atoms: C_8  and  N_10
REMARK    2  A    between atoms: N_10  and  C_11
REMARK    3  A    between atoms: C_11  and  C_12
REMARK    4  A    between atoms: C_12  and  C_13
REMARK    5  A    between atoms: C_13  and  N_14
REMARK    6  A    between atoms: N_14  and  C_15
REMARK    7  A    between atoms: C_15  and  C_16
REMARK                            x       y       z     vdW  Elec       q    Type
REMARK                         _______ _______ _______ _____ _____    ______ ____
ROOT
ATOM      1  C   UNL     1      -0.151   9.320  -2.874  0.00  0.00    +0.101 C 
ENDROOT
BRANCH   1   2
ATOM      2  N   UNL     1      -0.171   9.777  -4.266  0.00  0.00    -0.330 N 
ATOM      3  H   UNL     1      -0.168   9.044  -5.086  0.00  0.00    +0.147 HD
BRANCH   2  11
ATOM      4  C   UNL     1      -0.258  15.202  -5.665  0.00  0.00    +0.021 A 
ATOM      5  C   UNL     1      -0.272  15.388  -6.992  0.00  0.00    +0.048 A 
ATOM      6  S   UNL     1      -0.256  13.730  -7.645  0.00  0.00    -0.079 S 
ATOM      7  C   UNL     1      -0.229  12.829  -6.115  0.00  0.00    +0.090 A 
ATOM      8  C   UNL     1      -0.234  13.845  -5.138  0.00  0.00    +0.052 A 
ATOM      9  C   UNL     1      -0.215  13.415  -3.782  0.00  0.00    +0.192 A 
ATOM     10  C   UNL     1      -0.201  12.063  -3.510  0.00  0.00    +0.093 A 
ATOM     11  C   UNL     1      -0.192  11.138  -4.550  0.00  0.00    +0.101 A 
ATOM     12  N   UNL     1      -0.209  11.549  -5.810  0.00  0.00    -0.337 N 
ATOM     13  O   UNL     1      -0.218  14.322  -2.772  0.00  0.00    -0.287 OA
ATOM     14  H   UNL     1      -0.206  10.793  -6.609  0.00  0.00    +0.168 HD
ENDBRANCH   2  11
ENDBRANCH   1   2
BRANCH   1  15
ATOM     15  C   UNL     1      -0.130   7.790  -2.840  0.00  0.00    -0.000 C 
BRANCH  15  16
ATOM     16  C   UNL     1      -0.110   7.312  -1.387  0.00  0.00    -0.081 C 
BRANCH  16  17
ATOM     17  N   UNL     1      -0.090   5.844  -1.354  0.00  0.00    +0.382 N 
ATOM     18  H   UNL     1      -0.988   5.454  -1.856  0.00  0.00    -0.085 HD
ATOM     19  H   UNL     1       0.808   5.478  -1.873  0.00  0.00    -0.085 HD
BRANCH  17  20
ATOM     20  C   UNL     1      -0.070   5.348   0.029  0.00  0.00    -0.047 C 
BRANCH  20  21
ATOM     21  C   UNL     1      -0.050   3.841   0.022  0.00  0.00    -0.062 A 
ATOM     22  C   UNL     1       1.156   3.167   0.007  0.00  0.00    +0.017 A 
ATOM     23  C   UNL     1       1.175   1.784   0.000  0.00  0.00    +0.019 A 
ATOM     24  C   UNL     1      -0.013   1.076   0.008  0.00  0.00    +0.030 A 
ATOM     25  C   UNL     1      -1.220   1.751   0.017  0.00  0.00    +0.019 A 
ATOM     26  C   UNL     1      -1.238   3.134   0.029  0.00  0.00    +0.017 A 
ATOM     27 BR   UNL     1      -2.844   0.784   0.020  0.00  0.00    -0.050 Br
ATOM     28 BR   UNL     1       2.826   0.861  -0.020  0.00  0.00    -0.050 Br
ENDBRANCH  20  21
ENDBRANCH  17  20
ENDBRANCH  16  17
ENDBRANCH  15  16
ENDBRANCH   1  15
TORSDOF 7
