REMARK  Name = ZINC40703461
REMARK  9 active torsions:
REMARK  status: ('A' for Active; 'I' for Inactive)
REMARK    1  A    between atoms: C_1  and  C_2
REMARK    2  A    between atoms: C_7  and  N_8
REMARK    3  A    between atoms: C_10  and  N_27
REMARK    4  A    between atoms: C_11  and  N_15
REMARK    5  A    between atoms: N_15  and  C_16
REMARK    6  A    between atoms: N_15  and  C_17
REMARK    7  A    between atoms: C_22  and  C_23
REMARK    8  A    between atoms: C_23  and  O_25
REMARK    9  A    between atoms: O_25  and  C_26
REMARK                            x       y       z     vdW  Elec       q    Type
REMARK                         _______ _______ _______ _____ _____    ______ ____
ROOT
ATOM      1  N   UNL     1      -0.030  -0.014   2.413  0.00  0.00    -0.299 N 
ATOM      2  C   UNL     1      -0.086  -0.715   3.612  0.00  0.00    +0.126 A 
ATOM      3  C   UNL     1      -0.193  -0.035   4.827  0.00  0.00    +0.104 A 
ATOM      4  C   UNL     1      -0.246  -0.788   6.002  0.00  0.00    +0.151 A 
ATOM      5  N   UNL     1      -0.193  -2.115   5.919  0.00  0.00    -0.220 NA
ATOM      6  C   UNL     1      -0.093  -2.718   4.752  0.00  0.00    +0.200 A 
ATOM      7  N   UNL     1      -0.045  -2.045   3.620  0.00  0.00    -0.333 N 
ATOM      8  H   UNL     1       0.009   0.955   2.419  0.00  0.00    +0.154 HD
ATOM      9  H   UNL     1       0.025  -2.526   2.780  0.00  0.00    +0.168 HD
ENDROOT
BRANCH   1  16
ATOM     10  C   UNL     1      -2.471  -1.182   1.535  0.00  0.00    +0.046 C 
ATOM     11  C   UNL     1      -1.201  -1.291   0.732  0.00  0.00    -0.028 A 
ATOM     12  C   UNL     1      -1.200  -1.969  -0.472  0.00  0.00    +0.025 A 
ATOM     13  C   UNL     1      -0.034  -2.069  -1.210  0.00  0.00    +0.041 A 
ATOM     14  C   UNL     1       1.134  -1.491  -0.745  0.00  0.00    +0.022 A 
ATOM     15  C   UNL     1       1.139  -0.812   0.457  0.00  0.00    +0.025 A 
ATOM     16  C   UNL     1      -0.031  -0.705   1.198  0.00  0.00    +0.035 A 
ATOM     17 CL   UNL     1      -0.036  -2.922  -2.722  0.00  0.00    -0.084 Cl
ENDBRANCH   1  16
BRANCH   3  18
ATOM     18  N   UNL     1      -0.245   1.367   4.867  0.00  0.00    -0.353 N 
ATOM     19  H   UNL     1      -0.277   1.875   4.041  0.00  0.00    +0.143 HD
ATOM     20  H   UNL     1      -0.249   1.829   5.720  0.00  0.00    +0.143 HD
ENDBRANCH   3  18
BRANCH   4  21
ATOM     21  N   UNL     1      -0.352  -0.161   7.239  0.00  0.00    -0.286 N 
ATOM     22  C   UNL     1      -1.665   0.247   7.743  0.00  0.00    +0.137 C 
BRANCH  21  23
ATOM     23  C   UNL     1       0.788   0.079   7.996  0.00  0.00    +0.049 A 
ATOM     24  C   UNL     1       1.486   1.272   7.849  0.00  0.00    +0.024 A 
ATOM     25  C   UNL     1       2.619   1.507   8.601  0.00  0.00    +0.002 A 
ATOM     26  C   UNL     1       3.069   0.559   9.508  0.00  0.00    +0.001 A 
ATOM     27  C   UNL     1       2.390  -0.628   9.668  0.00  0.00    +0.017 A 
ATOM     28  C   UNL     1       1.238  -0.880   8.917  0.00  0.00    +0.080 A 
BRANCH  28  29
ATOM     29  C   UNL     1       0.504  -2.146   9.087  0.00  0.00    +0.341 C 
ATOM     30  O   UNL     1      -0.494  -2.363   8.429  0.00  0.00    -0.245 OA
BRANCH  29  31
ATOM     31  O   UNL     1       0.940  -3.063   9.973  0.00  0.00    -0.464 OA
ATOM     32  C   UNL     1       0.180  -4.268  10.086  0.00  0.00    +0.280 C 
ENDBRANCH  29  31
ENDBRANCH  28  29
ENDBRANCH  21  23
ENDBRANCH   4  21
TORSDOF 6
