REMARK  Name = ZINC38676442
REMARK  11 active torsions:
REMARK  status: ('A' for Active; 'I' for Inactive)
REMARK    1  A    between atoms: C_1  and  O_2
REMARK    2  A    between atoms: O_2  and  C_3
REMARK    3  A    between atoms: C_3  and  C_5
REMARK    4  A    between atoms: C_8  and  O_11
REMARK    5  A    between atoms: O_11  and  C_12
REMARK    6  A    between atoms: C_16  and  C_18
REMARK    7  A    between atoms: C_21  and  O_25
REMARK    8  A    between atoms: C_23  and  O_24
REMARK    9  A    between atoms: O_25  and  C_26
REMARK   10  A    between atoms: C_26  and  C_27
REMARK   11  A    between atoms: N_29  and  N_30
REMARK                            x       y       z     vdW  Elec       q    Type
REMARK                         _______ _______ _______ _____ _____    ______ ____
ROOT
ATOM      1  C   UNL     1       1.450  -6.688   2.362  0.00  0.00    +0.153 C 
ATOM      2  C   UNL     1       1.954  -5.996   3.403  0.00  0.00    +0.176 C 
ATOM      3  N   UNL     1       2.477  -6.825   4.314  0.00  0.00    -0.182 NA
ATOM      4  N   UNL     1       2.399  -8.022   4.032  0.00  0.00    -0.294 N 
ATOM      5  C   UNL     1       1.719  -8.137   2.731  0.00  0.00    +0.199 C 
ATOM      6  H   UNL     1       2.724  -8.759   4.573  0.00  0.00    +0.184 HD
ENDROOT
BRANCH   5   7
ATOM      7  C   UNL     1       2.622  -8.788   1.715  0.00  0.00    +0.025 A 
ATOM      8  C   UNL     1       3.970  -8.936   1.984  0.00  0.00    +0.013 A 
ATOM      9  C   UNL     1       4.800  -9.532   1.055  0.00  0.00    +0.046 A 
ATOM     10  C   UNL     1       4.283  -9.984  -0.151  0.00  0.00    +0.125 A 
ATOM     11  C   UNL     1       2.932  -9.837  -0.423  0.00  0.00    +0.091 A 
ATOM     12  C   UNL     1       2.099  -9.243   0.513  0.00  0.00    +0.126 A 
BRANCH  12  13
ATOM     13  O   UNL     1       0.773  -9.103   0.252  0.00  0.00    -0.506 OA
ATOM     14  H   UNL     1       0.545  -8.274  -0.190  0.00  0.00    +0.292 HD
ENDBRANCH  12  13
BRANCH  10  15
ATOM     15  O   UNL     1       5.101 -10.570  -1.065  0.00  0.00    -0.483 OA
BRANCH  15  16
ATOM     16  C   UNL     1       6.482 -10.688  -0.718  0.00  0.00    +0.325 C 
BRANCH  16  17
ATOM     17  C   UNL     1       7.227 -11.358  -1.844  0.00  0.00    +0.264 C 
ATOM     18  O   UNL     1       6.634 -11.700  -2.845  0.00  0.00    -0.271 OA
ATOM     19  N   UNL     1       8.553 -11.576  -1.738  0.00  0.00    -0.251 N 
ATOM     20  H   UNL     1       9.027 -11.302  -0.938  0.00  0.00    +0.169 HD
BRANCH  19  21
ATOM     21  N   UNL     1       9.228 -12.183  -2.759  0.00  0.00    -0.254 NA
ATOM     22  H   UNL     1       9.100 -11.682  -3.625  0.00  0.00    +0.140 HD
ATOM     23  H   UNL     1      10.208 -12.278  -2.538  0.00  0.00    +0.140 HD
ENDBRANCH  19  21
ENDBRANCH  16  17
ENDBRANCH  15  16
ENDBRANCH  10  15
ENDBRANCH   5   7
BRANCH   1  24
ATOM     24  O   UNL     1       0.845  -6.207   1.254  0.00  0.00    -0.456 OA
BRANCH  24  28
ATOM     25  C   UNL     1      -3.173  -7.002   0.742  0.00  0.00    +0.059 A 
ATOM     26  C   UNL     1      -2.452  -6.354  -0.266  0.00  0.00    +0.018 A 
ATOM     27  C   UNL     1      -1.112  -6.090  -0.091  0.00  0.00    +0.047 A 
ATOM     28  C   UNL     1      -0.475  -6.468   1.086  0.00  0.00    +0.128 A 
ATOM     29  C   UNL     1      -1.188  -7.113   2.091  0.00  0.00    +0.047 A 
ATOM     30  C   UNL     1      -2.530  -7.374   1.926  0.00  0.00    +0.018 A 
BRANCH  25  31
ATOM     31  C   UNL     1      -4.608  -7.286   0.559  0.00  0.00    +0.339 C 
ATOM     32  O   UNL     1      -5.234  -7.844   1.438  0.00  0.00    -0.245 OA
BRANCH  31  34
ATOM     33  C   UNL     1      -6.618  -7.232  -0.693  0.00  0.00    +0.280 C 
ATOM     34  O   UNL     1      -5.226  -6.926  -0.583  0.00  0.00    -0.464 OA
ENDBRANCH  31  34
ENDBRANCH  25  31
ENDBRANCH  24  28
ENDBRANCH   1  24
TORSDOF 10
