REMARK  Name = ZINC29055547
REMARK  13 active torsions:
REMARK  status: ('A' for Active; 'I' for Inactive)
REMARK    1  A    between atoms: C_1  and  C_2
REMARK    2  A    between atoms: C_2  and  C_3
REMARK    3  A    between atoms: C_6  and  S_9
REMARK    4  A    between atoms: S_9  and  N_12
REMARK    5  A    between atoms: N_12  and  C_13
REMARK    6  A    between atoms: C_17  and  C_28
REMARK    7  A    between atoms: C_22  and  C_26
REMARK    8  A    between atoms: C_22  and  C_27
REMARK    9  A    between atoms: C_23  and  O_25
REMARK   10  A    between atoms: N_30  and  C_31
REMARK   11  A    between atoms: N_30  and  C_33
REMARK   12  A    between atoms: C_31  and  C_32
REMARK   13  A    between atoms: C_37  and  C_39
REMARK                            x       y       z     vdW  Elec       q    Type
REMARK                         _______ _______ _______ _____ _____    ______ ____
ROOT
ATOM      1  C   UNL     1      -0.009  -1.618  -2.350  0.00  0.00    +0.144 C 
ATOM      2  C   UNL     1      -1.362  -1.106  -1.932  0.00  0.00    +0.036 A 
ATOM      3  C   UNL     1      -2.167  -0.498  -2.878  0.00  0.00    +0.025 A 
ATOM      4  C   UNL     1      -3.421  -0.016  -2.480  0.00  0.00    +0.056 A 
ATOM      5  C   UNL     1      -3.808  -0.168  -1.147  0.00  0.00    +0.127 A 
ATOM      6  N   UNL     1      -3.011  -0.754  -0.282  0.00  0.00    -0.220 NA
ATOM      7  C   UNL     1      -1.815  -1.225  -0.626  0.00  0.00    +0.220 A 
ATOM      8  O   UNL     1      -1.062  -1.819   0.333  0.00  0.00    -0.467 OA
ATOM      9  C   UNL     1       0.335  -1.977   0.083  0.00  0.00    +0.134 C 
ATOM     10  C   UNL     1       0.517  -2.610  -1.303  0.00  0.00    +0.181 C 
ATOM     11  C   UNL     1       1.022  -0.610   0.117  0.00  0.00    +0.058 C 
ATOM     12  C   UNL     1       0.949  -2.887   1.148  0.00  0.00    +0.058 C 
ENDROOT
BRANCH   4  13
ATOM     13  C   UNL     1      -4.317   0.641  -3.451  0.00  0.00    +0.252 C 
ATOM     14  O   UNL     1      -3.854   1.360  -4.316  0.00  0.00    -0.270 OA
ATOM     15  N   UNL     1      -5.649   0.445  -3.381  0.00  0.00    -0.268 N 
BRANCH  15  16
ATOM     16  C   UNL     1      -6.485   0.956  -4.378  0.00  0.00    +0.037 A 
ATOM     17  C   UNL     1      -7.835   0.631  -4.388  0.00  0.00    +0.023 A 
ATOM     18  C   UNL     1      -8.658   1.138  -5.375  0.00  0.00    +0.002 A 
ATOM     19  C   UNL     1      -8.139   1.968  -6.351  0.00  0.00    +0.003 A 
ATOM     20  C   UNL     1      -6.796   2.294  -6.344  0.00  0.00    -0.049 A 
ATOM     21  C   UNL     1      -5.968   1.794  -5.357  0.00  0.00    +0.027 A 
ATOM     22  C   UNL     1      -6.234   3.199  -7.410  0.00  0.00    +0.044 C 
ENDBRANCH  15  16
BRANCH  15  23
ATOM     23  C   UNL     1      -6.220  -0.305  -2.260  0.00  0.00    +0.110 C 
ATOM     24  C   UNL     1      -6.750   0.673  -1.209  0.00  0.00    +0.025 C 
ENDBRANCH  15  23
ENDBRANCH   4  13
BRANCH   1  25
ATOM     25  N   UNL     1       0.924  -0.494  -2.466  0.00  0.00    -0.180 NA
ATOM     26  H   UNL     1       0.743   0.431  -1.899  0.00  0.00    +0.149 HD
BRANCH  25  27
ATOM     27  S   UNL     1       2.106  -0.515  -3.626  0.00  0.00    +0.059 S 
ATOM     28  O   UNL     1       2.826   0.703  -3.494  0.00  0.00    -0.153 OA
ATOM     29  O   UNL     1       2.735  -1.786  -3.542  0.00  0.00    -0.153 OA
BRANCH  27  33
ATOM     30  C   UNL     1       0.035  -0.362  -7.649  0.00  0.00    -0.048 A 
ATOM     31  C   UNL     1       0.484   0.804  -7.058  0.00  0.00    +0.005 A 
ATOM     32  C   UNL     1       1.116   0.757  -5.829  0.00  0.00    +0.029 A 
ATOM     33  C   UNL     1       1.300  -0.456  -5.192  0.00  0.00    +0.105 A 
ATOM     34  C   UNL     1       0.856  -1.622  -5.785  0.00  0.00    +0.029 A 
ATOM     35  C   UNL     1       0.218  -1.575  -7.011  0.00  0.00    +0.005 A 
BRANCH  30  37
ATOM     36  C   UNL     1       0.368  -0.572 -10.097  0.00  0.00    +0.009 C 
ATOM     37  C   UNL     1      -0.653  -0.311  -8.988  0.00  0.00    +0.032 C 
ENDBRANCH  30  37
ENDBRANCH  27  33
ENDBRANCH  25  27
ENDBRANCH   1  25
BRANCH  10  38
ATOM     38  O   UNL     1      -0.228  -3.827  -1.378  0.00  0.00    -0.386 OA
ATOM     39  H   UNL     1       0.009  -4.659  -0.698  0.00  0.00    +0.210 HD
ENDBRANCH  10  38
TORSDOF 8
