REMARK  Name = ZINC20609371
REMARK  14 active torsions:
REMARK  status: ('A' for Active; 'I' for Inactive)
REMARK    1  A    between atoms: C_1  and  C_2
REMARK    2  A    between atoms: C_2  and  O_3
REMARK    3  A    between atoms: O_3  and  C_4
REMARK    4  A    between atoms: C_4  and  C_6
REMARK    5  A    between atoms: C_7  and  C_36
REMARK    6  A    between atoms: C_11  and  C_13
REMARK    7  A    between atoms: C_15  and  O_22
REMARK    8  A    between atoms: C_16  and  O_20
REMARK    9  A    between atoms: O_20  and  C_21
REMARK   10  A    between atoms: O_22  and  C_23
REMARK   11  A    between atoms: C_26  and  C_32
REMARK   12  A    between atoms: C_28  and  C_31
REMARK   13  A    between atoms: C_32  and  O_34
REMARK   14  A    between atoms: O_34  and  C_35
REMARK                            x       y       z     vdW  Elec       q    Type
REMARK                         _______ _______ _______ _____ _____    ______ ____
ROOT
ATOM      1  C   UNL     1      -0.834   1.639  -3.539  0.00  0.00    +0.065 C 
ATOM      2  C   UNL     1      -0.259   1.380  -4.726  0.00  0.00    +0.016 C 
ATOM      3  N   UNL     1      -0.855   1.784  -5.888  0.00  0.00    -0.321 N 
ATOM      4  C   UNL     1      -2.187   2.101  -5.917  0.00  0.00    +0.016 C 
ATOM      5  C   UNL     1      -2.847   2.392  -4.776  0.00  0.00    +0.025 C 
ATOM      6  C   UNL     1      -2.130   2.390  -3.450  0.00  0.00    +0.092 C 
ATOM      7  C   UNL     1      -4.218   2.703  -4.790  0.00  0.00    +0.176 C 
ATOM      8  O   UNL     1      -4.780   2.970  -3.747  0.00  0.00    -0.291 OA
ATOM      9  C   UNL     1      -5.002   2.711  -6.075  0.00  0.00    +0.171 C 
ATOM     10  C   UNL     1      -4.361   1.724  -7.056  0.00  0.00    +0.013 C 
ATOM     11  C   UNL     1      -2.894   2.114  -7.249  0.00  0.00    +0.055 C 
ATOM     12  C   UNL     1      -5.090   1.782  -8.400  0.00  0.00    +0.009 C 
ATOM     13  C   UNL     1       1.050   0.634  -4.776  0.00  0.00    +0.061 C 
ATOM     14  H   UNL     1      -0.264   1.858  -6.812  0.00  0.00    +0.152 HD
ENDROOT
BRANCH   6  15
ATOM     15  C   UNL     1      -1.850   3.813  -3.038  0.00  0.00    -0.030 A 
ATOM     16  C   UNL     1      -2.396   4.314  -1.871  0.00  0.00    +0.054 A 
ATOM     17  C   UNL     1      -2.140   5.621  -1.490  0.00  0.00    +0.163 A 
ATOM     18  C   UNL     1      -1.331   6.428  -2.285  0.00  0.00    +0.175 A 
ATOM     19  C   UNL     1      -0.785   5.920  -3.454  0.00  0.00    +0.063 A 
ATOM     20  C   UNL     1      -1.042   4.612  -3.825  0.00  0.00    +0.023 A 
ATOM     21 BR   UNL     1       0.315   7.012  -4.537  0.00  0.00    -0.046 Br
BRANCH  18  22
ATOM     22  O   UNL     1      -1.076   7.712  -1.916  0.00  0.00    -0.490 OA
ATOM     23  C   UNL     1       0.071   7.934  -1.092  0.00  0.00    +0.277 C 
ENDBRANCH  18  22
BRANCH  17  24
ATOM     24  O   UNL     1      -2.678   6.115  -0.343  0.00  0.00    -0.491 OA
ATOM     25  C   UNL     1      -3.498   5.230   0.422  0.00  0.00    +0.277 C 
ENDBRANCH  17  24
ENDBRANCH   6  15
BRANCH   1  26
ATOM     26  C   UNL     1      -0.204   1.200  -2.352  0.00  0.00    +0.338 C 
ATOM     27  O   UNL     1       0.793   0.504  -2.413  0.00  0.00    -0.245 OA
BRANCH  26  28
ATOM     28  O   UNL     1      -0.707   1.552  -1.150  0.00  0.00    -0.462 OA
BRANCH  28  30
ATOM     29  C   UNL     1      -0.731   1.571   1.266  0.00  0.00    +0.048 C 
ATOM     30  C   UNL     1      -0.019   1.073   0.007  0.00  0.00    +0.229 C 
ENDBRANCH  28  30
ENDBRANCH  26  28
ENDBRANCH   1  26
BRANCH   9  31
ATOM     31  C   UNL     1      -6.425   2.298  -5.800  0.00  0.00    +0.318 C 
ATOM     32  O   UNL     1      -6.882   1.315  -6.333  0.00  0.00    -0.250 OA
BRANCH  31  33
ATOM     33  O   UNL     1      -7.184   3.022  -4.963  0.00  0.00    -0.467 OA
ATOM     34  C   UNL     1      -8.545   2.565  -4.745  0.00  0.00    +0.280 C 
ENDBRANCH  31  33
ENDBRANCH   9  31
TORSDOF 8
