REMARK  Name = ZINC63205509
REMARK  6 active torsions:
REMARK  status: ('A' for Active; 'I' for Inactive)
REMARK    1  A    between atoms: C_7  and  C_10
REMARK    2  A    between atoms: C_10  and  C_11
REMARK    3  A    between atoms: C_11  and  N_12
REMARK    4  A    between atoms: C_13  and  C_15
REMARK    5  A    between atoms: C_21  and  C_32
REMARK    6  A    between atoms: C_24  and  C_28
REMARK                            x       y       z     vdW  Elec       q    Type
REMARK                         _______ _______ _______ _____ _____    ______ ____
ROOT
ATOM      1  C   UNL     1      -1.752  -6.557  -2.622  0.00  0.00    +0.158 C 
ATOM      2  C   UNL     1      -3.221  -6.069  -2.505  0.00  0.00    +0.065 C 
ATOM      3  C   UNL     1      -3.673  -6.085  -3.977  0.00  0.00    +0.142 C 
ATOM      4  N   UNL     1      -5.114  -6.258  -4.149  0.00  0.00    -0.291 NA
ATOM      5  C   UNL     1      -5.418  -6.354  -5.589  0.00  0.00    +0.123 C 
ATOM      6  C   UNL     1      -4.653  -7.511  -6.231  0.00  0.00    +0.056 C 
ATOM      7  C   UNL     1      -3.152  -7.409  -5.912  0.00  0.00    +0.180 C 
ATOM      8  N   UNL     1      -3.003  -7.319  -4.470  0.00  0.00    -0.213 NA
ATOM      9  N   UNL     1      -1.667  -7.283  -3.915  0.00  0.00    -0.240 NA
ATOM     10  H   UNL     1      -5.441  -7.074  -3.655  0.00  0.00    +0.124 HD
ATOM     11  H   UNL     1      -1.304  -8.215  -3.784  0.00  0.00    +0.142 HD
ENDROOT
BRANCH   5  12
ATOM     12  C   UNL     1      -6.897  -6.578  -5.770  0.00  0.00    +0.122 A 
ATOM     13  C   UNL     1      -7.667  -6.020  -6.721  0.00  0.00    +0.046 A 
ATOM     14  C   UNL     1      -8.980  -6.503  -6.521  0.00  0.00    +0.041 A 
ATOM     15  C   UNL     1      -8.935  -7.327  -5.458  0.00  0.00    +0.195 A 
ATOM     16  O   UNL     1      -7.669  -7.373  -5.011  0.00  0.00    -0.466 OA
ENDBRANCH   5  12
BRANCH   1  18
ATOM     17  N   UNL     1      -0.458  -4.798  -1.460  0.00  0.00    -0.314 N 
ATOM     18  C   UNL     1      -0.811  -5.380  -2.623  0.00  0.00    +0.231 C 
ATOM     19  O   UNL     1      -0.371  -4.957  -3.671  0.00  0.00    -0.274 OA
ATOM     20  H   UNL     1      -0.810  -5.136  -0.622  0.00  0.00    +0.149 HD
BRANCH  17  21
ATOM     21  C   UNL     1       0.457  -3.653  -1.462  0.00  0.00    +0.108 C 
BRANCH  21  22
ATOM     22  C   UNL     1       0.691  -3.186  -0.024  0.00  0.00    +0.052 C 
BRANCH  22  29
ATOM     23  C   UNL     1      -0.016   1.348   0.009  0.00  0.00    +0.001 A 
ATOM     24  C   UNL     1       1.166   2.101   0.002  0.00  0.00    +0.002 A 
ATOM     25  C   UNL     1       2.391   1.535  -0.013  0.00  0.00    +0.026 A 
ATOM     26  C   UNL     1       2.529   0.120  -0.022  0.00  0.00    +0.043 A 
ATOM     27  N   UNL     1       3.587  -0.654  -0.037  0.00  0.00    -0.380 N 
ATOM     28  C   UNL     1       3.143  -2.053  -0.041  0.00  0.00    +0.144 C 
ATOM     29  C   UNL     1       1.631  -2.008  -0.025  0.00  0.00    -0.040 C 
ATOM     30  C   UNL     1       1.295  -0.698  -0.014  0.00  0.00    -0.001 A 
ATOM     31  C   UNL     1       0.002  -0.004   0.002  0.00  0.00    +0.010 A 
ATOM     32  H   UNL     1       4.509  -0.353  -0.045  0.00  0.00    +0.160 HD
ENDBRANCH  22  29
ENDBRANCH  21  22
ENDBRANCH  17  21
ENDBRANCH   1  18
BRANCH   7  33
ATOM     33  C   UNL     1      -2.424  -8.648  -6.436  0.00  0.00    +0.406 C 
ATOM     34  F   UNL     1      -2.596  -8.740  -7.821  0.00  0.00    -0.169 F 
ATOM     35  F   UNL     1      -1.060  -8.546  -6.141  0.00  0.00    -0.169 F 
ATOM     36  F   UNL     1      -2.949  -9.791  -5.823  0.00  0.00    -0.169 F 
ENDBRANCH   7  33
TORSDOF 6
