REMARK  Name = ZINC09684332
REMARK  12 active torsions:
REMARK  status: ('A' for Active; 'I' for Inactive)
REMARK    1  A    between atoms: C_1  and  C_2
REMARK    2  A    between atoms: C_6  and  C_33
REMARK    3  A    between atoms: C_7  and  N_8
REMARK    4  A    between atoms: C_9  and  C_11
REMARK    5  A    between atoms: C_11  and  N_12
REMARK    6  A    between atoms: N_12  and  C_13
REMARK    7  A    between atoms: N_12  and  C_14
REMARK    8  A    between atoms: C_14  and  C_16
REMARK    9  A    between atoms: C_14  and  C_17
REMARK   10  A    between atoms: N_19  and  C_20
REMARK   11  A    between atoms: C_20  and  C_21
REMARK   12  A    between atoms: N_23  and  C_24
REMARK                            x       y       z     vdW  Elec       q    Type
REMARK                         _______ _______ _______ _____ _____    ______ ____
ROOT
ATOM      1  C   UNL     1      -0.044   0.471   7.262  0.00  0.00    +0.016 C 
ATOM      2  C   UNL     1      -1.565   0.561   7.127  0.00  0.00    -0.004 C 
ENDROOT
BRANCH   1   3
ATOM      3  C   UNL     1       0.305  -0.320   8.496  0.00  0.00    +0.200 C 
ATOM      4  O   UNL     1       0.716  -1.456   8.391  0.00  0.00    -0.278 OA
ATOM      5  N   UNL     1       0.160   0.235   9.716  0.00  0.00    -0.308 N 
ATOM      6  H   UNL     1      -0.169   1.143   9.799  0.00  0.00    +0.149 HD
BRANCH   5   7
ATOM      7  C   UNL     1       0.499  -0.535  10.915  0.00  0.00    +0.200 C 
BRANCH   7   8
ATOM      8  C   UNL     1       0.249   0.308  12.139  0.00  0.00    +0.234 C 
ATOM      9  O   UNL     1      -0.172   1.439  12.022  0.00  0.00    -0.274 OA
ATOM     10  N   UNL     1       0.492  -0.197  13.366  0.00  0.00    -0.282 N 
ATOM     11  H   UNL     1       0.875  -1.083  13.458  0.00  0.00    +0.155 HD
BRANCH  10  12
ATOM     12  C   UNL     1       0.191   0.560  14.507  0.00  0.00    +0.072 A 
ATOM     13  C   UNL     1      -0.802   1.528  14.457  0.00  0.00    +0.029 A 
ATOM     14  C   UNL     1      -1.098   2.273  15.582  0.00  0.00    +0.043 A 
ATOM     15  C   UNL     1      -0.405   2.056  16.760  0.00  0.00    +0.161 A 
ATOM     16  C   UNL     1       0.588   1.091  16.815  0.00  0.00    +0.195 A 
ATOM     17  C   UNL     1       0.883   0.337  15.691  0.00  0.00    +0.182 A 
ATOM     18  F   UNL     1       1.847  -0.609  15.744  0.00  0.00    -0.200 F 
ATOM     19  F   UNL     1       1.264   0.881  17.966  0.00  0.00    -0.199 F 
ATOM     20  F   UNL     1      -0.697   2.787  17.858  0.00  0.00    -0.202 F 
ENDBRANCH  10  12
ENDBRANCH   7   8
ENDBRANCH   5   7
ENDBRANCH   1   3
BRANCH   1  21
ATOM     21  N   UNL     1       0.514  -0.196   6.078  0.00  0.00    +0.391 N 
ATOM     22  C   UNL     1       1.980  -0.222   6.176  0.00  0.00    -0.094 C 
ATOM     23  H   UNL     1       0.163  -1.141   6.028  0.00  0.00    -0.080 HD
BRANCH  21  24
ATOM     24  C   UNL     1       0.117   0.539   4.869  0.00  0.00    +0.020 C 
BRANCH  24  26
ATOM     25  N   UNL     1       0.332   0.277   2.419  0.00  0.00    -0.287 N 
ATOM     26  C   UNL     1       0.585  -0.212   3.649  0.00  0.00    +0.201 C 
ATOM     27  O   UNL     1       1.190  -1.256   3.774  0.00  0.00    -0.278 OA
ATOM     28  H   UNL     1      -0.100   1.140   2.319  0.00  0.00    +0.155 HD
BRANCH  25  35
ATOM     29  C   UNL     1       1.655   1.637   0.298  0.00  0.00    +0.045 C 
ATOM     30  C   UNL     1       1.341   0.165   0.227  0.00  0.00    -0.029 A 
ATOM     31  C   UNL     1       1.701  -0.567  -0.888  0.00  0.00    +0.005 A 
ATOM     32  C   UNL     1       1.413  -1.917  -0.954  0.00  0.00    +0.001 A 
ATOM     33  C   UNL     1       0.763  -2.541   0.096  0.00  0.00    +0.005 A 
ATOM     34  C   UNL     1       0.400  -1.815   1.214  0.00  0.00    -0.029 A 
ATOM     35  C   UNL     1       0.693  -0.460   1.285  0.00  0.00    +0.039 A 
ATOM     36  C   UNL     1      -0.308  -2.495   2.357  0.00  0.00    +0.045 C 
ENDBRANCH  25  35
ENDBRANCH  24  26
ENDBRANCH  21  24
ENDBRANCH   1  21
TORSDOF 8
