REMARK  Name = ZINC28869553
REMARK  14 active torsions:
REMARK  status: ('A' for Active; 'I' for Inactive)
REMARK    1  A    between atoms: C_1  and  C_2
REMARK    2  A    between atoms: C_2  and  C_3
REMARK    3  A    between atoms: C_3  and  N_4
REMARK    4  A    between atoms: N_4  and  C_5
REMARK    5  A    between atoms: C_6  and  C_33
REMARK    6  A    between atoms: C_8  and  C_24
REMARK    7  A    between atoms: N_10  and  C_13
REMARK    8  A    between atoms: C_13  and  C_15
REMARK    9  A    between atoms: C_13  and  C_16
REMARK   10  A    between atoms: C_19  and  O_22
REMARK   11  A    between atoms: O_22  and  C_23
REMARK   12  A    between atoms: C_27  and  C_30
REMARK   13  A    between atoms: C_34  and  C_36
REMARK   14  A    between atoms: C_36  and  C_37
REMARK                            x       y       z     vdW  Elec       q    Type
REMARK                         _______ _______ _______ _____ _____    ______ ____
ROOT
ATOM      1  C   UNL     1       2.615   9.653   0.419  0.00  0.00    +0.098 C 
ATOM      2  C   UNL     1       1.941   9.146   1.454  0.00  0.00    -0.044 C 
ATOM      3  C   UNL     1       1.491   7.709   1.432  0.00  0.00    +0.059 C 
ATOM      4  C   UNL     1       1.139   7.288   0.006  0.00  0.00    +0.111 C 
ATOM      5  N   UNL     1       2.224   7.643  -0.909  0.00  0.00    -0.282 N 
ATOM      6  C   UNL     1       2.890   8.804  -0.757  0.00  0.00    +0.262 C 
ATOM      7  O   UNL     1       3.713   9.150  -1.582  0.00  0.00    -0.269 OA
ATOM      8  C   UNL     1       1.631  10.013   2.647  0.00  0.00    +0.041 C 
ENDROOT
BRANCH   4   9
ATOM      9  C   UNL     1       0.920   5.798  -0.034  0.00  0.00    -0.027 A 
ATOM     10  C   UNL     1      -0.367   5.291  -0.022  0.00  0.00    +0.006 A 
ATOM     11  C   UNL     1      -0.575   3.927  -0.059  0.00  0.00    +0.011 A 
ATOM     12  C   UNL     1       0.516   3.060  -0.108  0.00  0.00    +0.012 A 
ATOM     13  C   UNL     1       1.811   3.577  -0.114  0.00  0.00    +0.011 A 
ATOM     14  C   UNL     1       2.006   4.943  -0.083  0.00  0.00    +0.006 A 
BRANCH  12  15
ATOM     15  C   UNL     1       0.300   1.595  -0.149  0.00  0.00    +0.094 C 
ATOM     16  N   UNL     1      -0.910   1.115  -0.138  0.00  0.00    -0.387 N 
ATOM     17  N   UNL     1       1.380   0.741  -0.198  0.00  0.00    -0.345 N 
ATOM     18  H   UNL     1      -1.071   0.027  -0.168  0.00  0.00    +0.157 HD
ATOM     19  H   UNL     1       1.220  -0.347  -0.228  0.00  0.00    +0.144 HD
ATOM     20  H   UNL     1       2.402   1.147  -0.207  0.00  0.00    +0.144 HD
ATOM     21  H   UNL     1      -1.772   1.797  -0.099  0.00  0.00    +0.157 HD
ENDBRANCH  12  15
ENDBRANCH   4   9
BRANCH   1  22
ATOM     22  N   UNL     1       3.057  10.982   0.448  0.00  0.00    -0.267 N 
ATOM     23  C   UNL     1       2.537  11.885  -0.407  0.00  0.00    +0.231 C 
ATOM     24  O   UNL     1       1.625  11.569  -1.142  0.00  0.00    -0.275 OA
BRANCH  22  25
ATOM     25  C   UNL     1       4.085  11.391   1.408  0.00  0.00    +0.113 C 
BRANCH  25  27
ATOM     26  C   UNL     1       6.544  11.539   1.824  0.00  0.00    +0.005 C 
ATOM     27  C   UNL     1       5.471  11.112   0.822  0.00  0.00    +0.016 C 
ENDBRANCH  25  27
ENDBRANCH  22  25
BRANCH  23  28
ATOM     28  C   UNL     1       3.087  13.287  -0.450  0.00  0.00    +0.221 C 
BRANCH  28  29
ATOM     29  C   UNL     1       2.338  14.090  -1.482  0.00  0.00    +0.365 C 
ATOM     30  O   UNL     1       1.448  13.576  -2.118  0.00  0.00    -0.246 OA
ATOM     31  O   UNL     1       2.659  15.375  -1.695  0.00  0.00    -0.246 OA
ENDBRANCH  28  29
ENDBRANCH  23  28
ENDBRANCH   1  22
BRANCH   5  32
ATOM     32  C   UNL     1       2.589   6.731  -1.997  0.00  0.00    +0.104 C 
ATOM     33  C   UNL     1       2.430   7.449  -3.339  0.00  0.00    +0.033 C 
BRANCH  32  34
ATOM     34  C   UNL     1       4.021   6.294  -1.827  0.00  0.00    -0.027 A 
ATOM     35  C   UNL     1       4.616   5.495  -2.786  0.00  0.00    +0.009 A 
ATOM     36  C   UNL     1       5.931   5.098  -2.636  0.00  0.00    +0.046 A 
ATOM     37  C   UNL     1       6.650   5.492  -1.517  0.00  0.00    +0.120 A 
ATOM     38  C   UNL     1       6.048   6.289  -0.554  0.00  0.00    +0.046 A 
ATOM     39  C   UNL     1       4.735   6.688  -0.711  0.00  0.00    +0.009 A 
BRANCH  37  40
ATOM     40  O   UNL     1       7.941   5.097  -1.364  0.00  0.00    -0.495 OA
ATOM     41  C   UNL     1       8.496   4.278  -2.395  0.00  0.00    +0.277 C 
ENDBRANCH  37  40
ENDBRANCH  32  34
ENDBRANCH   5  32
TORSDOF 10
