REMARK  Name = ZINC12345818
REMARK  9 active torsions:
REMARK  status: ('A' for Active; 'I' for Inactive)
REMARK    1  A    between atoms: C_1  and  O_2
REMARK    2  A    between atoms: O_2  and  C_3
REMARK    3  A    between atoms: C_6  and  C_9
REMARK    4  A    between atoms: C_9  and  O_29
REMARK    5  A    between atoms: C_18  and  C_19
REMARK    6  A    between atoms: C_18  and  N_57
REMARK    7  A    between atoms: C_23  and  C_26
REMARK    8  A    between atoms: C_24  and  O_25
REMARK    9  A    between atoms: C_26  and  C_27
REMARK                            x       y       z     vdW  Elec       q    Type
REMARK                         _______ _______ _______ _____ _____    ______ ____
ROOT
ATOM      1  C   UNL     1       3.366   2.256   0.729  0.00  0.00    +0.088 C 
ATOM      2  C   UNL     1       3.234   3.446  -0.226  0.00  0.00    +0.024 C 
ATOM      3  C   UNL     1       4.582   4.182  -0.291  0.00  0.00    -0.065 C 
ATOM      4  C   UNL     1       5.687   3.126  -0.520  0.00  0.00    -0.017 C 
ATOM      5  C   UNL     1       6.095   2.686   0.919  0.00  0.00    -0.017 C 
ATOM      6  C   UNL     1       5.196   3.520   1.861  0.00  0.00    -0.065 C 
ATOM      7  C   UNL     1       3.893   2.735   2.084  0.00  0.00    +0.024 C 
ATOM      8  N   UNL     1       4.846   4.689   1.050  0.00  0.00    +0.386 N 
ATOM      9  H   UNL     1       4.006   5.143   1.428  0.00  0.00    -0.081 HD
ENDROOT
BRANCH   1  13
ATOM     10  C   UNL     1      -0.461   0.428   1.258  0.00  0.00    +0.120 A 
ATOM     11  C   UNL     1      -0.370   1.787   0.996  0.00  0.00    +0.046 A 
ATOM     12  C   UNL     1       0.868   2.376   0.826  0.00  0.00    +0.010 A 
ATOM     13  C   UNL     1       2.016   1.611   0.915  0.00  0.00    -0.016 A 
ATOM     14  C   UNL     1       1.929   0.256   1.175  0.00  0.00    +0.010 A 
ATOM     15  C   UNL     1       0.693  -0.337   1.347  0.00  0.00    +0.046 A 
BRANCH  10  17
ATOM     16  C   UNL     1      -1.695  -1.557   1.693  0.00  0.00    +0.277 C 
ATOM     17  O   UNL     1      -1.678  -0.153   1.427  0.00  0.00    -0.495 OA
ENDBRANCH  10  17
ENDBRANCH   1  13
BRANCH   1  18
ATOM     18  O   UNL     1       4.275   1.302   0.176  0.00  0.00    -0.384 OA
ATOM     19  H   UNL     1       4.407   0.518   0.727  0.00  0.00    +0.211 HD
ENDBRANCH   1  18
BRANCH   8  20
ATOM     20  C   UNL     1       5.974   5.676   1.037  0.00  0.00    -0.039 C 
BRANCH  20  21
ATOM     21  C   UNL     1       5.513   6.982   0.444  0.00  0.00    -0.022 A 
ATOM     22  C   UNL     1       5.883   7.327  -0.842  0.00  0.00    +0.005 A 
ATOM     23  C   UNL     1       5.460   8.525  -1.386  0.00  0.00    +0.001 A 
ATOM     24  C   UNL     1       4.665   9.382  -0.646  0.00  0.00    +0.007 A 
ATOM     25  C   UNL     1       4.293   9.042   0.640  0.00  0.00    -0.002 A 
ATOM     26  C   UNL     1       4.711   7.837   1.187  0.00  0.00    +0.122 A 
BRANCH  26  27
ATOM     27  O   UNL     1       4.341   7.498   2.450  0.00  0.00    -0.506 OA
ATOM     28  H   UNL     1       4.955   7.798   3.134  0.00  0.00    +0.292 HD
ENDBRANCH  26  27
BRANCH  25  29
ATOM     29  C   UNL     1       3.427   9.975   1.446  0.00  0.00    +0.065 C 
BRANCH  29  30
ATOM     30  C   UNL     1       4.299  10.845   2.314  0.00  0.00    -0.030 C 
ATOM     31  C   UNL     1       4.196  12.149   2.248  0.00  0.00    +0.004 C 
ENDBRANCH  29  30
ENDBRANCH  25  29
ENDBRANCH  20  21
ENDBRANCH   8  20
TORSDOF 8
