REMARK  Name = ZINC12387364
REMARK  4 active torsions:
REMARK  status: ('A' for Active; 'I' for Inactive)
REMARK    1  A    between atoms: C_1  and  C_2
REMARK    2  A    between atoms: C_2  and  C_26
REMARK    3  A    between atoms: C_9  and  C_11
REMARK    4  A    between atoms: N_17  and  C_19
REMARK                            x       y       z     vdW  Elec       q    Type
REMARK                         _______ _______ _______ _____ _____    ______ ____
ROOT
ATOM      1  C   UNL     1      -0.696   1.838  -1.260  0.00  0.00    +0.093 C 
ATOM      2  C   UNL     1      -0.677   3.360  -1.074  0.00  0.00    +0.023 C 
ATOM      3  C   UNL     1      -1.654   3.723   0.047  0.00  0.00    +0.097 C 
ATOM      4  C   UNL     1      -1.406   2.850   1.243  0.00  0.00    +0.216 C 
ATOM      5  O   UNL     1      -1.852   3.203   2.314  0.00  0.00    -0.276 OA
ATOM      6  N   UNL     1      -0.726   1.707   1.188  0.00  0.00    -0.298 N 
ATOM      7  C   UNL     1      -0.091   1.186  -0.016  0.00  0.00    +0.120 C 
ENDROOT
BRANCH   1  16
ATOM      8  C   UNL     1       1.792   0.917  -4.556  0.00  0.00    +0.041 C 
ATOM      9  C   UNL     1       0.327   1.191  -4.906  0.00  0.00    +0.108 C 
ATOM     10  C   UNL     1       0.253   2.259  -5.963  0.00  0.00    +0.236 C 
ATOM     11  O   UNL     1       0.974   2.163  -6.933  0.00  0.00    -0.273 OA
ATOM     12  N   UNL     1      -0.570   3.305  -5.881  0.00  0.00    -0.312 N 
ATOM     13  C   UNL     1      -1.424   3.599  -4.739  0.00  0.00    +0.123 C 
ATOM     14  C   UNL     1      -1.679   2.332  -3.911  0.00  0.00    +0.127 C 
ATOM     15  N   UNL     1      -0.387   1.656  -3.707  0.00  0.00    -0.286 N 
ATOM     16  C   UNL     1       0.119   1.467  -2.472  0.00  0.00    +0.221 C 
ATOM     17  O   UNL     1       1.229   0.997  -2.337  0.00  0.00    -0.275 OA
ATOM     18  C   UNL     1      -0.326  -0.091  -5.426  0.00  0.00    +0.041 C 
ATOM     19  H   UNL     1      -0.601   3.914  -6.636  0.00  0.00    +0.149 HD
ENDBRANCH   1  16
BRANCH   6  20
ATOM     20  C   UNL     1      -0.604   0.926   2.421  0.00  0.00    +0.076 C 
ATOM     21  C   UNL     1      -2.013   0.509   2.890  0.00  0.00    +0.022 C 
ATOM     22  C   UNL     1      -1.879  -0.675   3.810  0.00  0.00    +0.002 C 
ATOM     23  C   UNL     1      -1.822  -0.262   5.294  0.00  0.00    +0.000 C 
ATOM     24  C   UNL     1      -0.944   0.981   5.535  0.00  0.00    +0.000 C 
ATOM     25  C   UNL     1       0.328   0.951   4.732  0.00  0.00    +0.002 C 
ATOM     26  C   UNL     1       0.096   1.724   3.417  0.00  0.00    +0.022 C 
ENDBRANCH   6  20
TORSDOF 2
