REMARK  Name = ZINC39685867
REMARK  11 active torsions:
REMARK  status: ('A' for Active; 'I' for Inactive)
REMARK    1  A    between atoms: C_1  and  C_2
REMARK    2  A    between atoms: C_2  and  C_3
REMARK    3  A    between atoms: C_2  and  C_4
REMARK    4  A    between atoms: C_4  and  C_6
REMARK    5  A    between atoms: C_4  and  N_13
REMARK    6  A    between atoms: N_8  and  C_9
REMARK    7  A    between atoms: C_9  and  C_10
REMARK    8  A    between atoms: C_9  and  C_11
REMARK    9  A    between atoms: C_9  and  C_12
REMARK   10  A    between atoms: C_14  and  C_16
REMARK   11  A    between atoms: C_27  and  C_29
REMARK                            x       y       z     vdW  Elec       q    Type
REMARK                         _______ _______ _______ _____ _____    ______ ____
ROOT
ATOM      1  C   UNL     1      -0.237  -3.821   1.743  0.00  0.00    +0.100 C 
ATOM      2  C   UNL     1       1.123  -4.017   1.037  0.00  0.00    +0.121 C 
ATOM      3  N   UNL     1       2.133  -3.754   2.089  0.00  0.00    -0.296 N 
ATOM      4  C   UNL     1       1.562  -4.371   3.311  0.00  0.00    +0.115 C 
ATOM      5  C   UNL     1       0.054  -4.057   3.234  0.00  0.00    -0.004 C 
ATOM      6  C   UNL     1      -0.263  -2.801   4.040  0.00  0.00    -0.010 C 
ATOM      7  C   UNL     1      -0.020  -3.079   5.527  0.00  0.00    -0.082 C 
ATOM      8  N   UNL     1      -0.869  -4.194   5.963  0.00  0.00    +0.379 N 
ATOM      9  C   UNL     1      -0.494  -5.420   5.249  0.00  0.00    -0.082 C 
ATOM     10  C   UNL     1      -0.758  -5.241   3.751  0.00  0.00    -0.010 C 
ATOM     11  C   UNL     1       3.305  -3.101   1.964  0.00  0.00    +0.248 C 
ATOM     12  O   UNL     1       3.597  -2.571   0.909  0.00  0.00    -0.270 OA
ATOM     13  H   UNL     1      -0.752  -4.335   6.956  0.00  0.00    -0.086 HD
ATOM     14  H   UNL     1      -1.835  -3.975   5.769  0.00  0.00    -0.086 HD
ENDROOT
BRANCH  11  15
ATOM     15  C   UNL     1       4.230  -3.029   3.102  0.00  0.00    +0.052 A 
ATOM     16  C   UNL     1       4.338  -4.057   3.983  0.00  0.00    +0.059 A 
ATOM     17  S   UNL     1       5.485  -3.566   5.104  0.00  0.00    -0.096 S 
ATOM     18  C   UNL     1       5.885  -1.964   4.462  0.00  0.00    +0.020 A 
ATOM     19  C   UNL     1       5.070  -1.848   3.320  0.00  0.00    +0.001 A 
ATOM     20  C   UNL     1       5.168  -0.658   2.575  0.00  0.00    +0.010 A 
ATOM     21  C   UNL     1       6.034   0.335   2.962  0.00  0.00    +0.001 A 
ATOM     22  C   UNL     1       6.830   0.194   4.090  0.00  0.00    +0.001 A 
ATOM     23  C   UNL     1       6.747  -0.959   4.846  0.00  0.00    +0.015 A 
ENDBRANCH  11  15
BRANCH   1  25
ATOM     24  N   UNL     1      -2.068  -2.167   1.567  0.00  0.00    -0.303 N 
ATOM     25  C   UNL     1      -0.745  -2.419   1.523  0.00  0.00    +0.219 C 
ATOM     26  O   UNL     1       0.037  -1.518   1.307  0.00  0.00    -0.275 OA
ATOM     27  H   UNL     1      -2.694  -2.888   1.740  0.00  0.00    +0.149 HD
BRANCH  24  28
ATOM     28  C   UNL     1      -2.562  -0.804   1.354  0.00  0.00    +0.161 C 
BRANCH  28  29
ATOM     29  C   UNL     1      -3.901  -0.644   2.027  0.00  0.00    +0.234 C 
ATOM     30  O   UNL     1      -4.534  -1.624   2.359  0.00  0.00    -0.274 OA
ATOM     31  N   UNL     1      -4.395   0.588   2.260  0.00  0.00    -0.309 N 
ATOM     32  H   UNL     1      -3.861   1.371   2.053  0.00  0.00    +0.149 HD
BRANCH  31  33
ATOM     33  C   UNL     1      -5.737   0.745   2.824  0.00  0.00    +0.026 C 
ATOM     34  C   UNL     1      -5.799   0.057   4.190  0.00  0.00    +0.031 C 
ATOM     35  C   UNL     1      -6.052   2.233   2.988  0.00  0.00    +0.031 C 
ATOM     36  C   UNL     1      -6.763   0.107   1.885  0.00  0.00    +0.031 C 
ENDBRANCH  31  33
ENDBRANCH  28  29
BRANCH  28  38
ATOM     37  C   UNL     1      -1.339  -0.633  -0.818  0.00  0.00    +0.009 C 
ATOM     38  C   UNL     1      -2.711  -0.545  -0.147  0.00  0.00    +0.012 C 
ATOM     39  C   UNL     1      -3.644  -1.594  -0.755  0.00  0.00    +0.009 C 
ENDBRANCH  28  38
ENDBRANCH  24  28
ENDBRANCH   1  25
TORSDOF 6
