REMARK  Name = ZINC15547486
REMARK  8 active torsions:
REMARK  status: ('A' for Active; 'I' for Inactive)
REMARK    1  A    between atoms: C_1  and  C_2
REMARK    2  A    between atoms: C_2  and  C_3
REMARK    3  A    between atoms: N_12  and  C_13
REMARK    4  A    between atoms: C_13  and  C_14
REMARK    5  A    between atoms: N_16  and  C_17
REMARK    6  A    between atoms: C_22  and  S_23
REMARK    7  A    between atoms: S_23  and  C_24
REMARK    8  A    between atoms: C_24  and  C_25
REMARK                            x       y       z     vdW  Elec       q    Type
REMARK                         _______ _______ _______ _____ _____    ______ ____
ROOT
ATOM      1  C   UNL     1      -0.729   1.676  -3.730  0.00  0.00    +0.201 C 
ATOM      2  O   UNL     1      -1.352   0.842  -4.353  0.00  0.00    -0.278 OA
ATOM      3  N   UNL     1      -0.822   2.977  -4.066  0.00  0.00    -0.286 N 
ATOM      4  H   UNL     1      -0.378   3.651  -3.527  0.00  0.00    +0.155 HD
ENDROOT
BRANCH   3   5
ATOM      5  C   UNL     1      -1.560   3.358  -5.194  0.00  0.00    +0.047 A 
ATOM      6  C   UNL     1      -2.704   2.657  -5.546  0.00  0.00    +0.024 A 
ATOM      7  C   UNL     1      -3.431   3.035  -6.660  0.00  0.00    +0.002 A 
ATOM      8  C   UNL     1      -3.022   4.111  -7.426  0.00  0.00    +0.001 A 
ATOM      9  C   UNL     1      -1.883   4.816  -7.083  0.00  0.00    +0.016 A 
ATOM     10  C   UNL     1      -1.151   4.448  -5.964  0.00  0.00    +0.030 A 
BRANCH  10  11
ATOM     11  S   UNL     1       0.297   5.348  -5.519  0.00  0.00    -0.114 S 
BRANCH  11  12
ATOM     12  C   UNL     1       0.417   6.640  -6.788  0.00  0.00    +0.169 C 
BRANCH  12  13
ATOM     13  C   UNL     1       1.630   7.494  -6.522  0.00  0.00    +0.221 C 
ATOM     14  O   UNL     1       2.344   7.255  -5.571  0.00  0.00    -0.275 OA
ATOM     15  N   UNL     1       1.922   8.523  -7.342  0.00  0.00    -0.329 N 
ATOM     16  H   UNL     1       1.351   8.714  -8.103  0.00  0.00    +0.145 HD
ATOM     17  H   UNL     1       2.703   9.073  -7.171  0.00  0.00    +0.145 HD
ENDBRANCH  12  13
ENDBRANCH  11  12
ENDBRANCH  10  11
ENDBRANCH   3   5
BRANCH   1  18
ATOM     18  C   UNL     1       0.150   1.256  -2.580  0.00  0.00    +0.020 C 
BRANCH  18  27
ATOM     19  C   UNL     1       0.795  -0.587  -1.194  0.00  0.00    -0.036 C 
ATOM     20  C   UNL     1       0.807  -2.109  -1.088  0.00  0.00    -0.051 A 
ATOM     21  C   UNL     1       1.040  -2.805   0.096  0.00  0.00    +0.010 A 
ATOM     22  C   UNL     1       1.029  -4.159   0.098  0.00  0.00    +0.045 A 
ATOM     23  S   UNL     1       0.679  -4.528  -1.616  0.00  0.00    -0.101 S 
ATOM     24  C   UNL     1       0.577  -2.861  -2.201  0.00  0.00    -0.010 A 
ATOM     25  C   UNL     1       0.309  -2.347  -3.578  0.00  0.00    +0.024 C 
ATOM     26  C   UNL     1       0.673  -0.853  -3.595  0.00  0.00    -0.072 C 
ATOM     27  N   UNL     1       0.080  -0.203  -2.417  0.00  0.00    +0.390 N 
ATOM     28  H   UNL     1      -0.886  -0.481  -2.338  0.00  0.00    -0.080 HD
BRANCH  19  30
ATOM     29  C   UNL     1      -1.343  -0.536   0.097  0.00  0.00    +0.002 C 
ATOM     30  C   UNL     1       0.085   0.007   0.024  0.00  0.00    -0.014 C 
ENDBRANCH  19  30
ENDBRANCH  18  27
ENDBRANCH   1  18
TORSDOF 7
