REMARK  Name = ZINC35746095
REMARK  13 active torsions:
REMARK  status: ('A' for Active; 'I' for Inactive)
REMARK    1  A    between atoms: C_1  and  C_2
REMARK    2  A    between atoms: C_2  and  C_3
REMARK    3  A    between atoms: C_2  and  C_4
REMARK    4  A    between atoms: C_4  and  C_5
REMARK    5  A    between atoms: C_5  and  N_6
REMARK    6  A    between atoms: N_6  and  C_7
REMARK    7  A    between atoms: N_6  and  C_26
REMARK    8  A    between atoms: C_7  and  C_8
REMARK    9  A    between atoms: C_14  and  C_19
REMARK   10  A    between atoms: C_26  and  C_27
REMARK   11  A    between atoms: C_27  and  C_28
REMARK   12  A    between atoms: C_27  and  C_29
REMARK   13  A    between atoms: C_27  and  O_31
REMARK                            x       y       z     vdW  Elec       q    Type
REMARK                         _______ _______ _______ _____ _____    ______ ____
ROOT
ATOM      1  C   UNL     1       5.998  -0.320  -1.538  0.00  0.00    +0.094 A 
ATOM      2  N   UNL     1       6.963   0.114  -0.686  0.00  0.00    -0.312 N 
ATOM      3  H   UNL     1       6.729   0.737   0.020  0.00  0.00    +0.170 HD
ATOM      4  C   UNL     1       8.237  -0.303  -0.802  0.00  0.00    +0.260 A 
ATOM      5  O   UNL     1       9.091   0.095  -0.029  0.00  0.00    -0.267 OA
ATOM      6  C   UNL     1       8.574  -1.222  -1.846  0.00  0.00    +0.080 A 
ATOM      7  C   UNL     1       9.866  -1.814  -2.174  0.00  0.00    +0.006 A 
ATOM      8  C   UNL     1       9.944  -2.670  -3.221  0.00  0.00    +0.056 A 
ATOM      9  S   UNL     1       8.270  -2.729  -3.831  0.00  0.00    -0.076 S 
ATOM     10  C   UNL     1       7.512  -1.615  -2.677  0.00  0.00    +0.116 A 
ATOM     11  N   UNL     1       6.274  -1.162  -2.497  0.00  0.00    -0.229 NA
ENDROOT
BRANCH   7  12
ATOM     12  C   UNL     1      11.071  -1.484  -1.376  0.00  0.00    +0.019 A 
ATOM     13  C   UNL     1      12.130  -0.794  -1.962  0.00  0.00    +0.011 A 
ATOM     14  C   UNL     1      13.250  -0.489  -1.215  0.00  0.00    +0.001 A 
ATOM     15  C   UNL     1      13.323  -0.868   0.114  0.00  0.00    +0.003 A 
ATOM     16  C   UNL     1      12.276  -1.554   0.702  0.00  0.00    +0.039 A 
ATOM     17  C   UNL     1      11.147  -1.859  -0.034  0.00  0.00    +0.131 A 
ATOM     18  F   UNL     1      10.122  -2.525   0.543  0.00  0.00    -0.205 F 
ENDBRANCH   7  12
BRANCH   1  19
ATOM     19  C   UNL     1       4.584   0.174  -1.369  0.00  0.00    -0.003 C 
BRANCH  19  20
ATOM     20  N   UNL     1       3.674  -0.667  -2.158  0.00  0.00    +0.386 N 
ATOM     21  H   UNL     1       4.180  -1.079  -2.928  0.00  0.00    -0.081 HD
BRANCH  20  22
ATOM     22  C   UNL     1       2.574   0.156  -2.678  0.00  0.00    -0.078 C 
BRANCH  22  23
ATOM     23  C   UNL     1       1.705  -0.687  -3.613  0.00  0.00    -0.016 C 
BRANCH  23  25
ATOM     24  C   UNL     1       0.938   1.323  -4.884  0.00  0.00    +0.007 C 
ATOM     25  C   UNL     1       0.483   0.127  -4.045  0.00  0.00    -0.019 C 
ATOM     26  C   UNL     1      -0.448  -0.756  -4.878  0.00  0.00    +0.007 C 
ENDBRANCH  23  25
ENDBRANCH  22  23
ENDBRANCH  20  22
BRANCH  20  27
ATOM     27  C   UNL     1       3.129  -1.732  -1.306  0.00  0.00    -0.039 C 
BRANCH  27  28
ATOM     28  C   UNL     1       3.415  -3.093  -1.944  0.00  0.00    +0.067 C 
ATOM     29  C   UNL     1       2.647  -3.209  -3.262  0.00  0.00    +0.044 C 
BRANCH  28  30
ATOM     30  C   UNL     1       2.975  -4.189  -1.008  0.00  0.00    -0.003 C 
ATOM     31  C   UNL     1       3.847  -5.061  -0.565  0.00  0.00    +0.006 C 
ENDBRANCH  28  30
BRANCH  28  32
ATOM     32  O   UNL     1       4.816  -3.216  -2.196  0.00  0.00    -0.387 OA
ATOM     33  H   UNL     1       5.366  -3.152  -1.403  0.00  0.00    +0.210 HD
ENDBRANCH  28  32
ENDBRANCH  27  28
ENDBRANCH  20  27
ENDBRANCH  19  20
ENDBRANCH   1  19
TORSDOF 10
