REMARK  Name = ZINC67582913
REMARK  15 active torsions:
REMARK  status: ('A' for Active; 'I' for Inactive)
REMARK    1  A    between atoms: C_1  and  C_2
REMARK    2  A    between atoms: C_2  and  C_3
REMARK    3  A    between atoms: C_6  and  C_9
REMARK    4  A    between atoms: C_9  and  C_11
REMARK    5  A    between atoms: C_9  and  N_28
REMARK    6  A    between atoms: C_11  and  N_12
REMARK    7  A    between atoms: N_15  and  C_16
REMARK    8  A    between atoms: C_16  and  C_17
REMARK    9  A    between atoms: C_20  and  N_23
REMARK   10  A    between atoms: N_23  and  C_24
REMARK   11  A    between atoms: C_24  and  C_25
REMARK   12  A    between atoms: C_25  and  O_26
REMARK   13  A    between atoms: O_26  and  C_27
REMARK   14  A    between atoms: N_28  and  C_29
REMARK   15  A    between atoms: N_28  and  C_30
REMARK                            x       y       z     vdW  Elec       q    Type
REMARK                         _______ _______ _______ _____ _____    ______ ____
ROOT
ATOM      1  N   UNL     1      -6.942  -3.850  -0.348  0.00  0.00    -0.301 N 
ATOM      2  C   UNL     1      -7.276  -5.137  -0.566  0.00  0.00    +0.300 C 
ATOM      3  O   UNL     1      -6.408  -5.963  -0.772  0.00  0.00    -0.253 OA
ATOM      4  N   UNL     1      -8.571  -5.509  -0.557  0.00  0.00    -0.295 N 
ATOM      5  H   UNL     1      -7.635  -3.190  -0.184  0.00  0.00    +0.150 HD
ATOM      6  H   UNL     1      -9.264  -4.849  -0.393  0.00  0.00    +0.151 HD
ENDROOT
BRANCH   1   7
ATOM      7  C   UNL     1      -5.534  -3.446  -0.358  0.00  0.00    +0.095 C 
BRANCH   7   8
ATOM      8  C   UNL     1      -5.423  -1.974   0.043  0.00  0.00    -0.021 C 
BRANCH   8  12
ATOM      9  C   UNL     1      -6.702  -1.503   4.092  0.00  0.00    -0.048 A 
ATOM     10  C   UNL     1      -7.561  -1.190   3.055  0.00  0.00    +0.004 A 
ATOM     11  C   UNL     1      -7.147  -1.342   1.745  0.00  0.00    +0.002 A 
ATOM     12  C   UNL     1      -5.874  -1.807   1.472  0.00  0.00    -0.059 A 
ATOM     13  C   UNL     1      -5.015  -2.119   2.509  0.00  0.00    +0.002 A 
ATOM     14  C   UNL     1      -5.428  -1.963   3.819  0.00  0.00    +0.004 A 
BRANCH   9  16
ATOM     15  C   UNL     1      -6.817   0.076   6.000  0.00  0.00    +0.009 C 
ATOM     16  C   UNL     1      -7.154  -1.337   5.520  0.00  0.00    +0.032 C 
ENDBRANCH   9  16
ENDBRANCH   8  12
BRANCH   8  17
ATOM     17  N   UNL     1      -4.027  -1.536  -0.084  0.00  0.00    +0.382 N 
ATOM     18  C   UNL     1      -3.592  -1.681  -1.479  0.00  0.00    -0.096 C 
ATOM     19  C   UNL     1      -3.917  -0.127   0.319  0.00  0.00    -0.096 C 
ATOM     20  H   UNL     1      -3.441  -2.102   0.512  0.00  0.00    -0.082 HD
ENDBRANCH   8  17
ENDBRANCH   7   8
ENDBRANCH   1   7
BRANCH   4  21
ATOM     21  C   UNL     1      -8.934  -6.908  -0.794  0.00  0.00    +0.141 C 
BRANCH  21  22
ATOM     22  C   UNL     1     -10.432  -7.057  -0.731  0.00  0.00    -0.030 A 
ATOM     23  C   UNL     1     -11.047  -7.337   0.475  0.00  0.00    +0.007 A 
ATOM     24  C   UNL     1     -12.420  -7.474   0.536  0.00  0.00    +0.023 A 
ATOM     25  C   UNL     1     -13.183  -7.330  -0.616  0.00  0.00    +0.027 A 
ATOM     26  C   UNL     1     -12.562  -7.048  -1.826  0.00  0.00    +0.023 A 
ATOM     27  C   UNL     1     -11.189  -6.907  -1.879  0.00  0.00    +0.007 A 
BRANCH  25  28
ATOM     28  N   UNL     1     -14.572  -7.468  -0.557  0.00  0.00    -0.342 N 
ATOM     29  H   UNL     1     -15.005  -7.665   0.288  0.00  0.00    +0.146 HD
BRANCH  28  30
ATOM     30  C   UNL     1     -15.375  -7.315  -1.773  0.00  0.00    +0.129 C 
BRANCH  30  31
ATOM     31  C   UNL     1     -16.854  -7.513  -1.436  0.00  0.00    +0.178 C 
BRANCH  31  32
ATOM     32  O   UNL     1     -17.288  -6.468  -0.563  0.00  0.00    -0.381 OA
ATOM     33  C   UNL     1     -18.662  -6.561  -0.184  0.00  0.00    +0.194 C 
ENDBRANCH  31  32
ENDBRANCH  30  31
ENDBRANCH  28  30
ENDBRANCH  25  28
ENDBRANCH  21  22
ENDBRANCH   4  21
TORSDOF 11
