REMARK  Name = ZINC09081204
REMARK  11 active torsions:
REMARK  status: ('A' for Active; 'I' for Inactive)
REMARK    1  A    between atoms: C_1  and  N_2
REMARK    2  A    between atoms: N_2  and  C_3
REMARK    3  A    between atoms: N_2  and  C_4
REMARK    4  A    between atoms: C_7  and  C_10
REMARK    5  A    between atoms: C_10  and  C_12
REMARK    6  A    between atoms: C_10  and  S_25
REMARK    7  A    between atoms: C_12  and  N_13
REMARK    8  A    between atoms: N_16  and  C_17
REMARK    9  A    between atoms: S_25  and  C_28
REMARK   10  A    between atoms: C_31  and  O_34
REMARK   11  A    between atoms: O_34  and  C_35
REMARK                            x       y       z     vdW  Elec       q    Type
REMARK                         _______ _______ _______ _____ _____    ______ ____
ROOT
ATOM      1  C   UNL     1       7.994  -0.159  -0.865  0.00  0.00    +0.183 C 
ENDROOT
BRANCH   1   5
ATOM      2  C   UNL     1      11.938   1.488  -0.935  0.00  0.00    +0.029 A 
ATOM      3  C   UNL     1      11.496   0.695  -1.986  0.00  0.00    +0.023 A 
ATOM      4  C   UNL     1      10.221   0.164  -1.960  0.00  0.00    +0.007 A 
ATOM      5  C   UNL     1       9.385   0.422  -0.890  0.00  0.00    -0.021 A 
ATOM      6  C   UNL     1       9.819   1.216   0.156  0.00  0.00    +0.007 A 
ATOM      7  C   UNL     1      11.095   1.745   0.139  0.00  0.00    +0.023 A 
BRANCH   2   9
ATOM      8  C   UNL     1      14.111   1.762  -2.095  0.00  0.00    +0.129 C 
ATOM      9  N   UNL     1      13.226   2.027  -0.958  0.00  0.00    -0.336 N 
ATOM     10  C   UNL     1      13.693   2.857   0.156  0.00  0.00    +0.129 C 
ENDBRANCH   2   9
ENDBRANCH   1   5
BRANCH   1  11
ATOM     11  S   UNL     1       7.809  -1.222   0.593  0.00  0.00    +0.005 S 
ATOM     12  O   UNL     1       8.081  -0.483   1.775  0.00  0.00    -0.169 OA
ATOM     13  O   UNL     1       6.626  -2.002   0.482  0.00  0.00    -0.169 OA
BRANCH  11  14
ATOM     14  C   UNL     1       9.127  -2.385   0.476  0.00  0.00    +0.089 A 
ATOM     15  C   UNL     1       8.936  -3.580  -0.193  0.00  0.00    +0.030 A 
ATOM     16  C   UNL     1       9.969  -4.492  -0.291  0.00  0.00    +0.047 A 
ATOM     17  C   UNL     1      11.197  -4.211   0.292  0.00  0.00    +0.120 A 
ATOM     18  C   UNL     1      11.385  -3.014   0.967  0.00  0.00    +0.047 A 
ATOM     19  C   UNL     1      10.349  -2.104   1.057  0.00  0.00    +0.030 A 
BRANCH  17  20
ATOM     20  O   UNL     1      12.214  -5.108   0.202  0.00  0.00    -0.495 OA
ATOM     21  C   UNL     1      11.949  -6.320  -0.508  0.00  0.00    +0.277 C 
ENDBRANCH  17  20
ENDBRANCH  11  14
ENDBRANCH   1  11
BRANCH   1  22
ATOM     22  C   UNL     1       6.969   0.975  -0.804  0.00  0.00    +0.137 C 
BRANCH  22  23
ATOM     23  N   UNL     1       5.617   0.410  -0.780  0.00  0.00    -0.297 N 
ATOM     24  C   UNL     1       4.547   1.227  -0.726  0.00  0.00    +0.304 C 
ATOM     25  O   UNL     1       4.702   2.433  -0.697  0.00  0.00    -0.253 OA
ATOM     26  N   UNL     1       3.303   0.708  -0.704  0.00  0.00    -0.269 N 
ATOM     27  H   UNL     1       5.493  -0.551  -0.803  0.00  0.00    +0.150 HD
ATOM     28  H   UNL     1       3.180  -0.253  -0.653  0.00  0.00    +0.156 HD
BRANCH  26  29
ATOM     29  C   UNL     1       2.190   1.555  -0.754  0.00  0.00    +0.036 A 
ATOM     30  C   UNL     1       2.239   2.725  -1.501  0.00  0.00    +0.025 A 
ATOM     31  C   UNL     1       1.139   3.559  -1.550  0.00  0.00    +0.023 A 
ATOM     32  C   UNL     1      -0.011   3.231  -0.855  0.00  0.00    +0.059 A 
ATOM     33  C   UNL     1      -0.063   2.065  -0.109  0.00  0.00    +0.061 A 
ATOM     34  C   UNL     1       1.035   1.227  -0.058  0.00  0.00    +0.044 A 
ATOM     35 CL   UNL     1      -1.508   1.657   0.762  0.00  0.00    -0.082 Cl
ATOM     36 CL   UNL     1      -1.389   4.285  -0.912  0.00  0.00    -0.082 Cl
ENDBRANCH  26  29
ENDBRANCH  22  23
ENDBRANCH   1  22
TORSDOF 8
