REMARK  Name = ZINC39167407
REMARK  7 active torsions:
REMARK  status: ('A' for Active; 'I' for Inactive)
REMARK    1  A    between atoms: C_6  and  N_10
REMARK    2  A    between atoms: N_11  and  C_12
REMARK    3  A    between atoms: C_14  and  O_28
REMARK    4  A    between atoms: C_16  and  O_27
REMARK    5  A    between atoms: C_18  and  C_21
REMARK    6  A    between atoms: C_21  and  O_22
REMARK    7  A    between atoms: O_22  and  P_23
REMARK                            x       y       z     vdW  Elec       q    Type
REMARK                         _______ _______ _______ _____ _____    ______ ____
ROOT
ATOM      1  C   UNL     1      -1.159  -0.898   0.008  0.00  0.00    +0.240 C 
ATOM      2  C   UNL     1      -1.993  -0.701   1.299  0.00  0.00    +0.193 C 
ATOM      3  C   UNL     1      -2.713  -2.065   1.431  0.00  0.00    +0.178 C 
ATOM      4  C   UNL     1      -1.855  -3.029   0.589  0.00  0.00    +0.178 C 
ATOM      5  O   UNL     1      -0.738  -2.277   0.082  0.00  0.00    -0.348 OA
ENDROOT
BRANCH   1  15
ATOM      6  C   UNL     1      -0.018   1.466   0.010  0.00  0.00    +0.253 C 
ATOM      7  N   UNL     1       1.382   1.904  -0.001  0.00  0.00    -0.256 NA
ATOM      8  C   UNL     1       2.143   0.864  -0.014  0.00  0.00    +0.164 C 
ATOM      9  C   UNL     1       1.316  -0.370  -0.013  0.00  0.00    +0.159 C 
ATOM     10  N   UNL     1       1.935  -1.532  -0.024  0.00  0.00    -0.198 NA
ATOM     11  C   UNL     1       3.266  -1.617  -0.037  0.00  0.00    +0.226 C 
ATOM     12  N   UNL     1       4.083  -0.579  -0.039  0.00  0.00    -0.141 NA
ATOM     13  C   UNL     1       3.624   0.678  -0.030  0.00  0.00    +0.291 C 
ATOM     14  O   UNL     1       4.383   1.631  -0.032  0.00  0.00    -0.266 OA
ATOM     15  N   UNL     1       0.002  -0.004   0.002  0.00  0.00    -0.266 N 
BRANCH  11  16
ATOM     16  N   UNL     1       3.825  -2.868  -0.048  0.00  0.00    -0.234 NA
ATOM     17  H   UNL     1       4.790  -2.969  -0.058  0.00  0.00    +0.173 HD
ENDBRANCH  11  16
ENDBRANCH   1  15
BRANCH   3  18
ATOM     18  O   UNL     1      -2.747  -2.483   2.797  0.00  0.00    -0.386 OA
ATOM     19  H   UNL     1      -3.227  -1.880   3.381  0.00  0.00    +0.210 HD
ENDBRANCH   3  18
BRANCH   2  20
ATOM     20  O   UNL     1      -2.935   0.361   1.141  0.00  0.00    -0.385 OA
ATOM     21  H   UNL     1      -3.481   0.523   1.923  0.00  0.00    +0.210 HD
ENDBRANCH   2  20
BRANCH   4  22
ATOM     22  C   UNL     1      -1.358  -4.181   1.464  0.00  0.00    +0.206 C 
BRANCH  22  23
ATOM     23  O   UNL     1      -0.662  -5.129   0.652  0.00  0.00    -0.281 OA
BRANCH  23  24
ATOM     24  P   UNL     1      -0.002  -6.473   1.244  0.00  0.00    +0.532 P 
ATOM     25  O   UNL     1       0.981  -6.104   2.407  0.00  0.00    -0.222 OA
ATOM     26  O   UNL     1      -1.131  -7.411   1.793  0.00  0.00    -0.115 OA
ATOM     27  O   UNL     1       0.786  -7.212   0.109  0.00  0.00    -0.115 OA
ENDBRANCH  23  24
ENDBRANCH  22  23
ENDBRANCH   4  22
TORSDOF 7
