REMARK  Name = ZINC19788203
REMARK  8 active torsions:
REMARK  status: ('A' for Active; 'I' for Inactive)
REMARK    1  A    between atoms: C_1  and  N_2
REMARK    2  A    between atoms: C_3  and  C_30
REMARK    3  A    between atoms: C_6  and  C_17
REMARK    4  A    between atoms: C_8  and  C_10
REMARK    5  A    between atoms: C_17  and  N_18
REMARK    6  A    between atoms: N_18  and  C_19
REMARK    7  A    between atoms: C_19  and  C_20
REMARK    8  A    between atoms: C_30  and  O_31
REMARK                            x       y       z     vdW  Elec       q    Type
REMARK                         _______ _______ _______ _____ _____    ______ ____
ROOT
ATOM      1  C   UNL     1      -1.488   3.808  -0.539  0.00  0.00    -0.095 C 
ATOM      2  N   UNL     1      -0.560   3.056  -1.395  0.00  0.00    +0.386 N 
ATOM      3  C   UNL     1      -0.753   1.593  -1.232  0.00  0.00    -0.042 C 
ATOM      4  C   UNL     1      -0.125   1.006  -2.521  0.00  0.00    -0.010 C 
ATOM      5  C   UNL     1      -0.522   2.040  -3.600  0.00  0.00    -0.008 C 
ATOM      6  C   UNL     1      -0.812   3.339  -2.825  0.00  0.00    -0.030 C 
ATOM      7  H   UNL     1       0.449   3.373  -1.093  0.00  0.00    -0.081 HD
ENDROOT
BRANCH   6   8
ATOM      8  C   UNL     1       0.102   4.438  -3.304  0.00  0.00    -0.025 A 
ATOM      9  C   UNL     1       1.282   4.696  -2.633  0.00  0.00    +0.005 A 
ATOM     10  C   UNL     1       2.121   5.704  -3.072  0.00  0.00    +0.000 A 
ATOM     11  C   UNL     1       1.780   6.453  -4.183  0.00  0.00    +0.003 A 
ATOM     12  C   UNL     1       0.601   6.196  -4.855  0.00  0.00    +0.038 A 
ATOM     13  C   UNL     1      -0.238   5.184  -4.419  0.00  0.00    +0.125 A 
ATOM     14  F   UNL     1      -1.389   4.928  -5.079  0.00  0.00    -0.205 F 
ENDBRANCH   6   8
BRANCH   5  15
ATOM     15  C   UNL     1       0.632   2.254  -4.581  0.00  0.00    +0.083 C 
BRANCH  15  16
ATOM     16  N   UNL     1       0.859   1.021  -5.346  0.00  0.00    -0.311 NA
ATOM     17  H   UNL     1       1.111   0.202  -4.656  0.00  0.00    +0.122 HD
BRANCH  16  18
ATOM     18  C   UNL     1       1.963   1.189  -6.301  0.00  0.00    +0.125 C 
BRANCH  18  19
ATOM     19  C   UNL     1       2.165  -0.094  -7.066  0.00  0.00    +0.025 A 
ATOM     20  C   UNL     1       1.601  -0.506  -8.226  0.00  0.00    +0.125 A 
ATOM     21  N   UNL     1       1.944  -1.686  -8.708  0.00  0.00    -0.233 NA
ATOM     22  C   UNL     1       2.808  -2.457  -8.076  0.00  0.00    +0.161 A 
ATOM     23  S   UNL     1       3.210  -1.493  -6.689  0.00  0.00    -0.056 S 
ATOM     24  N   UNL     1       3.276  -3.713  -8.429  0.00  0.00    -0.310 N 
ATOM     25  C   UNL     1       2.898  -4.727  -7.412  0.00  0.00    +0.107 C 
ATOM     26  C   UNL     1       3.012  -6.064  -8.186  0.00  0.00    +0.020 C 
ATOM     27  C   UNL     1       2.495  -5.694  -9.595  0.00  0.00    +0.020 C 
ATOM     28  C   UNL     1       2.667  -4.167  -9.698  0.00  0.00    +0.107 C 
ENDBRANCH  18  19
ENDBRANCH  16  18
ENDBRANCH  15  16
ENDBRANCH   5  15
BRANCH   3  29
ATOM     29  C   UNL     1      -0.013   1.086   0.008  0.00  0.00    +0.140 C 
BRANCH  29  30
ATOM     30  O   UNL     1      -0.682   1.547   1.184  0.00  0.00    -0.397 OA
ATOM     31  H   UNL     1      -0.293   1.281   2.178  0.00  0.00    +0.209 HD
ENDBRANCH  29  30
ENDBRANCH   3  29
TORSDOF 7
