REMARK  Name = ZINC03153922
REMARK  7 active torsions:
REMARK  status: ('A' for Active; 'I' for Inactive)
REMARK    1  A    between atoms: C_1  and  C_2
REMARK    2  A    between atoms: C_2  and  C_3
REMARK    3  A    between atoms: C_3  and  C_4
REMARK    4  A    between atoms: C_4  and  N_38
REMARK    5  A    between atoms: C_5  and  C_6
REMARK    6  A    between atoms: C_5  and  N_38
REMARK    7  A    between atoms: C_11  and  C_14
REMARK                            x       y       z     vdW  Elec       q    Type
REMARK                         _______ _______ _______ _____ _____    ______ ____
ROOT
ATOM      1  C   UNL     1       1.147   1.655   0.000  0.00  0.00    +0.202 C 
ATOM      2  O   UNL     1       1.130   2.868   0.007  0.00  0.00    -0.278 OA
ATOM      3  N   UNL     1      -0.011   0.966   0.007  0.00  0.00    -0.266 N 
ATOM      4  C   UNL     1      -1.224   1.644   0.017  0.00  0.00    +0.165 A 
ATOM      5  N   UNL     1      -2.452   1.160   0.020  0.00  0.00    -0.225 NA
ATOM      6  C   UNL     1      -3.507   1.960   0.029  0.00  0.00    +0.080 A 
ATOM      7  C   UNL     1      -3.321   3.315   0.036  0.00  0.00    +0.076 A 
ATOM      8  S   UNL     1      -1.535   3.404   0.036  0.00  0.00    -0.060 S 
ATOM      9  H   UNL     1       0.002  -0.004   0.002  0.00  0.00    +0.157 HD
ENDROOT
BRANCH   6  10
ATOM     10  C   UNL     1      -4.877   1.393   0.033  0.00  0.00    +0.001 A 
ATOM     11  C   UNL     1      -5.984   2.239   0.049  0.00  0.00    +0.011 A 
ATOM     12  C   UNL     1      -7.257   1.706   0.048  0.00  0.00    +0.016 A 
ATOM     13  C   UNL     1      -7.435   0.334   0.040  0.00  0.00    +0.018 A 
ATOM     14  C   UNL     1      -6.339  -0.511   0.030  0.00  0.00    +0.016 A 
ATOM     15  C   UNL     1      -5.062   0.011   0.027  0.00  0.00    +0.011 A 
ATOM     16 BR   UNL     1      -9.182  -0.390   0.045  0.00  0.00    -0.050 Br
ENDBRANCH   6  10
BRANCH   1  17
ATOM     17  C   UNL     1       2.462   0.920  -0.017  0.00  0.00    +0.015 C 
BRANCH  17  18
ATOM     18  N   UNL     1       3.564   1.900  -0.022  0.00  0.00    +0.385 N 
ATOM     19  H   UNL     1       3.486   2.493  -0.856  0.00  0.00    -0.085 HD
ATOM     20  H   UNL     1       3.502   2.484   0.820  0.00  0.00    -0.085 HD
BRANCH  18  21
ATOM     21  C   UNL     1       4.866   1.207  -0.038  0.00  0.00    -0.082 C 
BRANCH  21  22
ATOM     22  C   UNL     1       5.988   2.247  -0.043  0.00  0.00    -0.019 C 
BRANCH  22  24
ATOM     23  C   UNL     1       8.465   2.576  -0.065  0.00  0.00    +0.004 C 
ATOM     24  C   UNL     1       7.343   1.536  -0.060  0.00  0.00    -0.005 C 
ENDBRANCH  22  24
ENDBRANCH  21  22
ENDBRANCH  18  21
ENDBRANCH  17  18
ENDBRANCH   1  17
TORSDOF 6
