REMARK  Name = ZINC13149313
REMARK  9 active torsions:
REMARK  status: ('A' for Active; 'I' for Inactive)
REMARK    1  A    between atoms: C_1  and  N_2
REMARK    2  A    between atoms: N_2  and  C_3
REMARK    3  A    between atoms: N_2  and  S_4
REMARK    4  A    between atoms: S_4  and  C_7
REMARK    5  A    between atoms: C_11  and  N_13
REMARK    6  A    between atoms: N_15  and  C_20
REMARK    7  A    between atoms: C_21  and  N_36
REMARK    8  A    between atoms: N_22  and  C_29
REMARK    9  A    between atoms: C_29  and  C_30
REMARK                            x       y       z     vdW  Elec       q    Type
REMARK                         _______ _______ _______ _____ _____    ______ ____
ROOT
ATOM      1  N   UNL     1       3.031  -2.679  -1.070  0.00  0.00    -0.226 NA
ATOM      2  C   UNL     1       3.658  -2.041  -0.106  0.00  0.00    +0.161 C 
ATOM      3  N   UNL     1       3.609  -0.662  -0.005  0.00  0.00    -0.273 N 
ATOM      4  C   UNL     1       4.871   0.076   0.108  0.00  0.00    +0.114 C 
ATOM      5  C   UNL     1       5.666  -0.418   1.315  0.00  0.00    +0.030 C 
ATOM      6  C   UNL     1       6.082  -1.877   1.112  0.00  0.00    +0.079 C 
ATOM      7  S   UNL     1       4.595  -2.916   1.108  0.00  0.00    -0.090 S 
ENDROOT
BRANCH   3   8
ATOM      8  C   UNL     1       2.372   0.018  -0.005  0.00  0.00    +0.139 A 
ATOM      9  C   UNL     1       2.051   0.889  -1.026  0.00  0.00    +0.128 A 
ATOM     10  N   UNL     1       0.838   1.538  -0.998  0.00  0.00    -0.276 N 
ATOM     11  C   UNL     1      -0.024   1.327   0.013  0.00  0.00    +0.331 A 
ATOM     12  O   UNL     1      -1.089   1.914   0.023  0.00  0.00    -0.246 OA
ATOM     13  N   UNL     1       0.273   0.481   1.016  0.00  0.00    -0.273 N 
ATOM     14  H   UNL     1      -0.386   0.342   1.756  0.00  0.00    +0.173 HD
ATOM     15  C   UNL     1       1.447  -0.179   1.036  0.00  0.00    +0.277 A 
ATOM     16  O   UNL     1       1.706  -0.943   1.951  0.00  0.00    -0.266 OA
BRANCH   9  17
ATOM     17  N   UNL     1       2.932   1.105  -2.059  0.00  0.00    -0.343 N 
ATOM     18  H   UNL     1       2.670   1.659  -2.812  0.00  0.00    +0.144 HD
ATOM     19  H   UNL     1       3.814   0.704  -2.036  0.00  0.00    +0.144 HD
ENDBRANCH   9  17
BRANCH  10  20
ATOM     20  C   UNL     1       0.483   2.465  -2.075  0.00  0.00    +0.163 C 
BRANCH  20  21
ATOM     21  C   UNL     1       0.951   3.853  -1.718  0.00  0.00    -0.028 A 
ATOM     22  C   UNL     1       0.114   4.708  -1.027  0.00  0.00    +0.005 A 
ATOM     23  C   UNL     1       0.545   5.979  -0.695  0.00  0.00    +0.000 A 
ATOM     24  C   UNL     1       1.810   6.398  -1.064  0.00  0.00    +0.000 A 
ATOM     25  C   UNL     1       2.645   5.544  -1.760  0.00  0.00    +0.000 A 
ATOM     26  C   UNL     1       2.216   4.272  -2.087  0.00  0.00    +0.005 A 
ENDBRANCH  20  21
ENDBRANCH  10  20
ENDBRANCH   3   8
BRANCH   1  31
ATOM     27  C   UNL     1       2.017  -6.166  -1.457  0.00  0.00    +0.107 A 
ATOM     28  C   UNL     1       3.232  -6.806  -1.291  0.00  0.00    +0.028 A 
ATOM     29  C   UNL     1       4.381  -6.073  -1.052  0.00  0.00    +0.004 A 
ATOM     30  C   UNL     1       4.322  -4.696  -0.982  0.00  0.00    +0.028 A 
ATOM     31  C   UNL     1       3.098  -4.044  -1.143  0.00  0.00    +0.068 A 
ATOM     32  C   UNL     1       1.942  -4.791  -1.385  0.00  0.00    +0.056 A 
BRANCH  27  33
ATOM     33  S   UNL     1       0.560  -7.111  -1.762  0.00  0.00    +0.060 S 
ATOM     34  O   UNL     1       0.803  -8.410  -1.242  0.00  0.00    -0.153 OA
ATOM     35  O   UNL     1      -0.537  -6.313  -1.339  0.00  0.00    -0.153 OA
BRANCH  33  37
ATOM     36  C   UNL     1       1.039  -8.418  -4.081  0.00  0.00    +0.131 C 
ATOM     37  N   UNL     1       0.419  -7.276  -3.404  0.00  0.00    -0.183 NA
ATOM     38  C   UNL     1      -0.326  -6.281  -4.179  0.00  0.00    +0.131 C 
ENDBRANCH  33  37
ENDBRANCH  27  33
ENDBRANCH   1  31
TORSDOF 7
