REMARK  Name = ZINC39227704
REMARK  11 active torsions:
REMARK  status: ('A' for Active; 'I' for Inactive)
REMARK    1  A    between atoms: C_1  and  C_2
REMARK    2  A    between atoms: C_2  and  C_4
REMARK    3  A    between atoms: C_2  and  O_35
REMARK    4  A    between atoms: C_4  and  N_5
REMARK    5  A    between atoms: N_5  and  C_6
REMARK    6  A    between atoms: C_6  and  C_7
REMARK    7  A    between atoms: C_7  and  C_9
REMARK    8  A    between atoms: C_7  and  O_10
REMARK    9  A    between atoms: C_11  and  C_13
REMARK   10  A    between atoms: C_16  and  C_19
REMARK   11  A    between atoms: N_31  and  C_34
REMARK                            x       y       z     vdW  Elec       q    Type
REMARK                         _______ _______ _______ _____ _____    ______ ____
ROOT
ATOM      1  C   UNL     1       1.335  -4.283  -1.039  0.00  0.00    +0.037 A 
ATOM      2  C   UNL     1       0.224  -4.769  -1.733  0.00  0.00    +0.013 A 
ATOM      3  C   UNL     1       0.029  -6.126  -1.855  0.00  0.00    +0.009 A 
ATOM      4  C   UNL     1       0.940  -7.016  -1.287  0.00  0.00    -0.018 A 
ATOM      5  C   UNL     1       2.050  -6.532  -0.593  0.00  0.00    +0.009 A 
ATOM      6  C   UNL     1       2.250  -5.176  -0.474  0.00  0.00    +0.013 A 
ENDROOT
BRANCH   4   7
ATOM      7  C   UNL     1       0.729  -8.477  -1.419  0.00  0.00    -0.017 A 
ATOM      8  C   UNL     1      -0.377  -8.965  -2.116  0.00  0.00    +0.012 A 
ATOM      9  C   UNL     1      -0.568 -10.323  -2.233  0.00  0.00    +0.046 A 
ATOM     10  C   UNL     1       0.337 -11.214  -1.660  0.00  0.00    +0.124 A 
ATOM     11  C   UNL     1       1.438 -10.732  -0.971  0.00  0.00    -0.005 A 
ATOM     12  C   UNL     1       1.637  -9.369  -0.853  0.00  0.00    +0.015 A 
ATOM     13  C   UNL     1       2.446 -11.666  -0.349  0.00  0.00    +0.043 C 
ATOM     14  C   UNL     1       1.835 -13.062  -0.206  0.00  0.00    +0.052 C 
ATOM     15  C   UNL     1       1.183 -13.443  -1.539  0.00  0.00    +0.108 C 
ATOM     16  O   UNL     1       0.105 -12.545  -1.794  0.00  0.00    -0.486 OA
ATOM     17  C   UNL     1       0.656 -14.877  -1.459  0.00  0.00    +0.029 C 
ATOM     18  C   UNL     1       0.080 -15.280  -2.819  0.00  0.00    -0.075 C 
ATOM     19  N   UNL     1       1.129 -15.195  -3.842  0.00  0.00    +0.378 N 
ATOM     20  C   UNL     1       1.583 -13.806  -3.976  0.00  0.00    -0.075 C 
ATOM     21  C   UNL     1       2.218 -13.345  -2.662  0.00  0.00    +0.029 C 
ATOM     22  C   UNL     1       0.594 -15.660  -5.129  0.00  0.00    -0.096 C 
ATOM     23  H   UNL     1       1.907 -15.778  -3.574  0.00  0.00    -0.082 HD
ENDBRANCH   4   7
BRANCH   1  25
ATOM     24  N   UNL     1       0.498  -1.984  -0.996  0.00  0.00    -0.293 N 
ATOM     25  C   UNL     1       1.546  -2.827  -0.907  0.00  0.00    +0.247 C 
ATOM     26  O   UNL     1       2.664  -2.389  -0.719  0.00  0.00    -0.270 OA
BRANCH  24  27
ATOM     27  C   UNL     1      -0.851  -2.512  -1.218  0.00  0.00    +0.139 C 
BRANCH  27  29
ATOM     28  C   UNL     1      -2.636  -2.897  -2.923  0.00  0.00    +0.039 C 
ATOM     29  C   UNL     1      -1.227  -2.345  -2.691  0.00  0.00    +0.129 C 
BRANCH  29  30
ATOM     30  O   UNL     1      -1.196  -0.959  -3.037  0.00  0.00    -0.391 OA
ATOM     31  H   UNL     1      -1.425  -0.779  -3.959  0.00  0.00    +0.210 HD
ENDBRANCH  29  30
ENDBRANCH  27  29
ENDBRANCH  24  27
BRANCH  24  32
ATOM     32  C   UNL     1       0.707  -0.540  -0.870  0.00  0.00    +0.139 C 
BRANCH  32  33
ATOM     33  C   UNL     1       0.550  -0.127   0.595  0.00  0.00    +0.129 C 
ATOM     34  C   UNL     1       0.669   1.394   0.712  0.00  0.00    +0.039 C 
BRANCH  33  35
ATOM     35  O   UNL     1       1.572  -0.747   1.377  0.00  0.00    -0.391 OA
ATOM     36  H   UNL     1       2.466  -0.444   1.166  0.00  0.00    +0.210 HD
ENDBRANCH  33  35
ENDBRANCH  32  33
ENDBRANCH  24  32
ENDBRANCH   1  25
TORSDOF 8
