REMARK  Name = ZINC39462198
REMARK  10 active torsions:
REMARK  status: ('A' for Active; 'I' for Inactive)
REMARK    1  A    between atoms: C_1  and  C_2
REMARK    2  A    between atoms: C_2  and  N_3
REMARK    3  A    between atoms: N_3  and  C_4
REMARK    4  A    between atoms: N_3  and  C_16
REMARK    5  A    between atoms: C_4  and  C_5
REMARK    6  A    between atoms: N_7  and  C_8
REMARK    7  A    between atoms: C_16  and  C_17
REMARK    8  A    between atoms: N_19  and  C_20
REMARK    9  A    between atoms: C_25  and  C_30
REMARK   10  A    between atoms: C_31  and  C_34
REMARK                            x       y       z     vdW  Elec       q    Type
REMARK                         _______ _______ _______ _____ _____    ______ ____
ROOT
ATOM      1  C   UNL     1       2.302  -0.935  -2.165  0.00  0.00    +0.019 C 
ENDROOT
BRANCH   1   2
ATOM      2  C   UNL     1       2.412   0.301  -1.311  0.00  0.00    +0.199 C 
ATOM      3  O   UNL     1       1.459   0.678  -0.663  0.00  0.00    -0.278 OA
ATOM      4  N   UNL     1       3.571   0.989  -1.266  0.00  0.00    -0.288 N 
ATOM      5  H   UNL     1       4.334   0.687  -1.785  0.00  0.00    +0.151 HD
BRANCH   4   6
ATOM      6  C   UNL     1       3.679   2.191  -0.436  0.00  0.00    +0.243 C 
ATOM      7  C   UNL     1       4.492   3.241  -1.146  0.00  0.00    +0.072 A 
ATOM      8  H   UNL     1       5.023   5.613  -3.306  0.00  0.00    +0.192 HD
ATOM      9  C   UNL     1       5.747   3.233  -0.603  0.00  0.00    +0.016 A 
ATOM     10  C   UNL     1       6.697   4.131  -1.103  0.00  0.00    +0.065 A 
ATOM     11  N   UNL     1       6.377   4.953  -2.067  0.00  0.00    -0.176 NA
ATOM     12  N   UNL     1       5.206   4.981  -2.593  0.00  0.00    -0.243 N 
ATOM     13  C   UNL     1       4.222   4.155  -2.179  0.00  0.00    +0.272 A 
ATOM     14  O   UNL     1       3.116   4.199  -2.695  0.00  0.00    -0.266 OA
ATOM     15  C   UNL     1       8.090   4.151  -0.529  0.00  0.00    +0.068 C 
ATOM     16  C   UNL     1       5.772   2.175   0.470  0.00  0.00    +0.150 C 
ATOM     17  O   UNL     1       4.391   1.892   0.780  0.00  0.00    -0.347 OA
ATOM     18  C   UNL     1       6.467   0.914  -0.047  0.00  0.00    +0.043 C 
ENDBRANCH   4   6
ENDBRANCH   1   2
BRANCH   1  19
ATOM     19  N   UNL     1       0.915  -1.420  -2.148  0.00  0.00    +0.391 N 
ATOM     20  H   UNL     1       0.612  -1.538  -1.193  0.00  0.00    -0.080 HD
BRANCH  19  22
ATOM     21  C   UNL     1       1.621  -3.763  -2.067  0.00  0.00    -0.017 C 
ATOM     22  C   UNL     1       0.838  -2.708  -2.850  0.00  0.00    -0.081 C 
ENDBRANCH  19  22
BRANCH  19  23
ATOM     23  C   UNL     1       0.047  -0.443  -2.819  0.00  0.00    +0.020 C 
BRANCH  23  24
ATOM     24  C   UNL     1      -1.390  -0.879  -2.694  0.00  0.00    +0.201 C 
ATOM     25  O   UNL     1      -1.664  -1.903  -2.104  0.00  0.00    -0.278 OA
ATOM     26  N   UNL     1      -2.371  -0.132  -3.238  0.00  0.00    -0.285 N 
ATOM     27  H   UNL     1      -2.161   0.725  -3.641  0.00  0.00    +0.155 HD
BRANCH  26  28
ATOM     28  C   UNL     1      -3.693  -0.593  -3.222  0.00  0.00    +0.070 A 
ATOM     29  C   UNL     1      -4.271  -1.008  -2.029  0.00  0.00    +0.064 A 
ATOM     30  C   UNL     1      -5.577  -1.462  -2.017  0.00  0.00    +0.022 A 
ATOM     31  C   UNL     1      -6.307  -1.504  -3.190  0.00  0.00    +0.003 A 
ATOM     32  C   UNL     1      -5.735  -1.092  -4.380  0.00  0.00    +0.022 A 
ATOM     33  C   UNL     1      -4.432  -0.630  -4.398  0.00  0.00    +0.064 A 
ATOM     34 CL   UNL     1      -3.717  -0.106  -5.891  0.00  0.00    -0.082 Cl
ATOM     35 CL   UNL     1      -3.355  -0.957  -0.555  0.00  0.00    -0.082 Cl
ENDBRANCH  26  28
ENDBRANCH  23  24
ENDBRANCH  19  23
ENDBRANCH   1  19
TORSDOF 7
