REMARK  Name = ZINC64802063
REMARK  11 active torsions:
REMARK  status: ('A' for Active; 'I' for Inactive)
REMARK    1  A    between atoms: C_1  and  C_2
REMARK    2  A    between atoms: C_2  and  N_3
REMARK    3  A    between atoms: C_6  and  C_30
REMARK    4  A    between atoms: C_8  and  N_10
REMARK    5  A    between atoms: N_10  and  C_11
REMARK    6  A    between atoms: C_14  and  N_17
REMARK    7  A    between atoms: N_17  and  S_18
REMARK    8  A    between atoms: S_18  and  C_21
REMARK    9  A    between atoms: C_23  and  C_29
REMARK   10  A    between atoms: C_24  and  C_28
REMARK   11  A    between atoms: C_26  and  C_27
REMARK                            x       y       z     vdW  Elec       q    Type
REMARK                         _______ _______ _______ _____ _____    ______ ____
ROOT
ATOM      1  C   UNL     1       1.806  -5.897  -3.994  0.00  0.00    +0.032 A 
ATOM      2  C   UNL     1       1.417  -7.020  -3.276  0.00  0.00    +0.025 A 
ATOM      3  C   UNL     1       1.897  -8.265  -3.630  0.00  0.00    +0.026 A 
ATOM      4  C   UNL     1       2.769  -8.395  -4.703  0.00  0.00    +0.048 A 
ATOM      5  C   UNL     1       3.158  -7.271  -5.421  0.00  0.00    +0.026 A 
ATOM      6  C   UNL     1       2.674  -6.026  -5.070  0.00  0.00    +0.025 A 
ENDROOT
BRANCH   1   7
ATOM      7  N   UNL     1       1.319  -4.633  -3.635  0.00  0.00    -0.299 N 
ATOM      8  H   UNL     1       1.175  -3.958  -4.316  0.00  0.00    +0.154 HD
BRANCH   7  14
ATOM      9  N   UNL     1       1.409  -5.885   0.886  0.00  0.00    -0.315 N 
ATOM     10  C   UNL     1       1.082  -4.953  -0.083  0.00  0.00    +0.195 A 
ATOM     11  N   UNL     1       0.513  -3.814   0.282  0.00  0.00    -0.332 N 
ATOM     12  C   UNL     1       0.185  -2.898  -0.617  0.00  0.00    +0.019 A 
ATOM     13  C   UNL     1       0.442  -3.139  -1.953  0.00  0.00    +0.064 A 
ATOM     14  C   UNL     1       1.042  -4.348  -2.308  0.00  0.00    +0.128 A 
ATOM     15  N   UNL     1       1.350  -5.221  -1.352  0.00  0.00    -0.201 NA
ATOM     16  C   UNL     1      -0.462  -1.606  -0.187  0.00  0.00    +0.063 C 
ATOM     17  H   UNL     1       1.830  -6.722   0.633  0.00  0.00    +0.149 HD
ATOM     18  H   UNL     1       0.334  -3.648   1.221  0.00  0.00    +0.168 HD
BRANCH   9  20
ATOM     19  C   UNL     1       1.579  -6.790   3.152  0.00  0.00    +0.024 C 
ATOM     20  C   UNL     1       1.121  -5.608   2.296  0.00  0.00    +0.101 C 
ENDBRANCH   9  20
ENDBRANCH   7  14
ENDBRANCH   1   7
BRANCH   4  21
ATOM     21  N   UNL     1       3.256  -9.657  -5.061  0.00  0.00    -0.216 N 
ATOM     22  H   UNL     1       3.584 -10.262  -4.377  0.00  0.00    +0.174 HD
BRANCH  21  23
ATOM     23  S   UNL     1       3.272 -10.118  -6.652  0.00  0.00    +0.073 S 
ATOM     24  O   UNL     1       3.763 -11.451  -6.683  0.00  0.00    -0.150 OA
ATOM     25  O   UNL     1       2.008  -9.758  -7.191  0.00  0.00    -0.150 OA
BRANCH  23  26
ATOM     26  C   UNL     1       4.472  -9.120  -7.471  0.00  0.00    +0.112 A 
ATOM     27  C   UNL     1       4.074  -8.211  -8.434  0.00  0.00    +0.032 A 
ATOM     28  C   UNL     1       5.015  -7.429  -9.076  0.00  0.00    -0.046 A 
ATOM     29  C   UNL     1       6.354  -7.555  -8.756  0.00  0.00    -0.047 A 
ATOM     30  C   UNL     1       6.752  -8.463  -7.793  0.00  0.00    +0.009 A 
ATOM     31  C   UNL     1       5.810  -9.243  -7.147  0.00  0.00    -0.024 A 
ATOM     32  C   UNL     1       6.243 -10.229  -6.093  0.00  0.00    +0.046 C 
ATOM     33  C   UNL     1       7.380  -6.703  -9.457  0.00  0.00    +0.044 C 
ATOM     34  C   UNL     1       4.582  -6.439 -10.126  0.00  0.00    +0.044 C 
ENDBRANCH  23  26
ENDBRANCH  21  23
ENDBRANCH   4  21
TORSDOF 6
