REMARK  Name = ZINC34849348
REMARK  10 active torsions:
REMARK  status: ('A' for Active; 'I' for Inactive)
REMARK    1  A    between atoms: C_1  and  C_2
REMARK    2  A    between atoms: C_2  and  N_3
REMARK    3  A    between atoms: C_7  and  C_9
REMARK    4  A    between atoms: C_9  and  N_10
REMARK    5  A    between atoms: C_11  and  C_35
REMARK    6  A    between atoms: C_19  and  C_25
REMARK    7  A    between atoms: N_27  and  C_28
REMARK    8  A    between atoms: C_32  and  C_34
REMARK    9  A    between atoms: N_37  and  C_38
REMARK   10  A    between atoms: C_44  and  C_46
REMARK                            x       y       z     vdW  Elec       q    Type
REMARK                         _______ _______ _______ _____ _____    ______ ____
ROOT
ATOM      1  N   UNL     1       3.587  -1.566  -0.469  0.00  0.00    -0.288 N 
ATOM      2  C   UNL     1       4.205  -0.204  -0.429  0.00  0.00    +0.198 C 
ATOM      3  C   UNL     1       5.082  -0.298   0.780  0.00  0.00    +0.127 C 
ATOM      4  C   UNL     1       6.295  -1.184   0.561  0.00  0.00    +0.009 C 
ATOM      5  C   UNL     1       6.968  -1.161   1.702  0.00  0.00    +0.004 C 
ATOM      6  C   UNL     1       6.121  -0.298   2.646  0.00  0.00    +0.155 C 
ATOM      7  O   UNL     1       5.526   0.678   1.693  0.00  0.00    -0.358 OA
ATOM      8  C   UNL     1       4.908  -1.255   2.970  0.00  0.00    +0.123 C 
ATOM      9  C   UNL     1       4.060  -1.064   1.713  0.00  0.00    +0.128 C 
ATOM     10  C   UNL     1       3.593  -2.114   0.791  0.00  0.00    +0.223 C 
ATOM     11  O   UNL     1       3.277  -3.246   1.088  0.00  0.00    -0.275 OA
ENDROOT
BRANCH   8  12
ATOM     12  C   UNL     1       5.370  -2.681   3.123  0.00  0.00    +0.224 C 
ATOM     13  O   UNL     1       4.952  -3.537   2.373  0.00  0.00    -0.275 OA
ATOM     14  N   UNL     1       6.248  -3.005   4.093  0.00  0.00    -0.285 N 
ATOM     15  H   UNL     1       6.641  -2.310   4.643  0.00  0.00    +0.155 HD
BRANCH  14  16
ATOM     16  C   UNL     1       6.593  -4.345   4.306  0.00  0.00    +0.034 A 
ATOM     17  C   UNL     1       7.872  -4.674   4.734  0.00  0.00    +0.023 A 
ATOM     18  C   UNL     1       8.209  -5.997   4.943  0.00  0.00    +0.002 A 
ATOM     19  C   UNL     1       7.274  -6.993   4.726  0.00  0.00    +0.003 A 
ATOM     20  C   UNL     1       6.000  -6.668   4.299  0.00  0.00    -0.049 A 
ATOM     21  C   UNL     1       5.654  -5.346   4.095  0.00  0.00    +0.026 A 
ATOM     22  C   UNL     1       4.984  -7.756   4.064  0.00  0.00    +0.044 C 
ENDBRANCH  14  16
ENDBRANCH   8  12
BRANCH   2  23
ATOM     23  C   UNL     1       5.022   0.053  -1.669  0.00  0.00    +0.237 C 
ATOM     24  O   UNL     1       5.387  -0.875  -2.359  0.00  0.00    -0.274 OA
ATOM     25  N   UNL     1       5.348   1.315  -2.012  0.00  0.00    -0.311 N 
ATOM     26  H   UNL     1       5.057   2.058  -1.460  0.00  0.00    +0.149 HD
BRANCH  25  27
ATOM     27  C   UNL     1       6.142   1.566  -3.217  0.00  0.00    +0.076 C 
ATOM     28  C   UNL     1       7.630   1.428  -2.885  0.00  0.00    +0.022 C 
ATOM     29  C   UNL     1       8.008   2.443  -1.806  0.00  0.00    +0.002 C 
ATOM     30  C   UNL     1       7.728   3.858  -2.316  0.00  0.00    +0.000 C 
ATOM     31  C   UNL     1       6.241   3.996  -2.647  0.00  0.00    +0.005 C 
ATOM     32  C   UNL     1       5.863   2.981  -3.727  0.00  0.00    +0.006 C 
ATOM     33  C   UNL     1       4.375   3.119  -4.059  0.00  0.00    +0.009 C 
ENDBRANCH  25  27
ENDBRANCH   2  23
BRANCH   1  34
ATOM     34  C   UNL     1       3.051  -2.215  -1.669  0.00  0.00    +0.093 C 
BRANCH  34  39
ATOM     35  N   UNL     1       1.410  -0.390  -1.833  0.00  0.00    +0.382 N 
ATOM     36  C   UNL     1       0.786   0.007  -3.114  0.00  0.00    -0.078 C 
ATOM     37  C   UNL     1       1.138  -1.137  -4.097  0.00  0.00    -0.020 C 
ATOM     38  C   UNL     1       1.043  -2.382  -3.176  0.00  0.00    -0.016 C 
ATOM     39  C   UNL     1       1.572  -1.856  -1.825  0.00  0.00    -0.051 C 
ATOM     40  H   UNL     1       2.313   0.052  -1.746  0.00  0.00    -0.081 HD
BRANCH  35  42
ATOM     41  C   UNL     1       0.484   1.546  -0.654  0.00  0.00    -0.017 C 
ATOM     42  C   UNL     1       0.548   0.018  -0.716  0.00  0.00    -0.082 C 
ENDBRANCH  35  42
ENDBRANCH  34  39
ENDBRANCH   1  34
TORSDOF 7
