REMARK  Name = ZINC21323868
REMARK  12 active torsions:
REMARK  status: ('A' for Active; 'I' for Inactive)
REMARK    1  A    between atoms: C_1  and  C_2
REMARK    2  A    between atoms: C_2  and  C_26
REMARK    3  A    between atoms: N_3  and  N_4
REMARK    4  A    between atoms: C_8  and  S_11
REMARK    5  A    between atoms: N_9  and  N_10
REMARK    6  A    between atoms: S_11  and  C_12
REMARK    7  A    between atoms: C_12  and  C_13
REMARK    8  A    between atoms: N_15  and  C_16
REMARK    9  A    between atoms: C_18  and  O_24
REMARK   10  A    between atoms: C_21  and  O_22
REMARK   11  A    between atoms: O_22  and  C_23
REMARK   12  A    between atoms: O_24  and  C_25
REMARK                            x       y       z     vdW  Elec       q    Type
REMARK                         _______ _______ _______ _____ _____    ______ ____
ROOT
ATOM      1  N   UNL     1       6.008   6.032   0.036  0.00  0.00    -0.204 N 
ATOM      2  C   UNL     1       5.989   7.419   0.034  0.00  0.00    +0.254 A 
ATOM      3  N   UNL     1       4.917   8.175   0.050  0.00  0.00    -0.109 NA
ATOM      4  N   UNL     1       5.331   9.513   0.042  0.00  0.00    -0.119 NA
ATOM      5  C   UNL     1       6.643   9.531   0.022  0.00  0.00    +0.210 A 
ATOM      6  N   UNL     1       7.083   8.238   0.023  0.00  0.00    -0.211 N 
ATOM      7  H   UNL     1       6.969   5.495   0.022  0.00  0.00    +0.178 HD
ENDROOT
BRANCH   1  10
ATOM      8  C   UNL     1       6.139   3.280   0.037  0.00  0.00    +0.068 C 
ATOM      9  C   UNL     1       4.824   4.015   0.055  0.00  0.00    +0.063 C 
ATOM     10  N   UNL     1       4.805   5.314   0.054  0.00  0.00    -0.184 NA
BRANCH   9  11
ATOM     11  C   UNL     1       3.558   3.260   0.075  0.00  0.00    -0.002 A 
ATOM     12  C   UNL     1       3.584   1.853   0.076  0.00  0.00    +0.010 A 
ATOM     13  C   UNL     1       2.432   1.136   0.093  0.00  0.00    +0.009 A 
ATOM     14  C   UNL     1       1.190   1.799   0.110  0.00  0.00    -0.018 A 
ATOM     15  C   UNL     1      -0.015   1.077   0.128  0.00  0.00    +0.008 A 
ATOM     16  C   UNL     1      -1.201   1.745   0.140  0.00  0.00    +0.001 A 
ATOM     17  C   UNL     1      -1.241   3.138   0.144  0.00  0.00    +0.001 A 
ATOM     18  C   UNL     1      -0.094   3.871   0.127  0.00  0.00    +0.008 A 
ATOM     19  C   UNL     1       1.150   3.216   0.109  0.00  0.00    -0.017 A 
ATOM     20  C   UNL     1       2.351   3.942   0.091  0.00  0.00    +0.018 A 
ENDBRANCH   9  11
ENDBRANCH   1  10
BRANCH   6  21
ATOM     21  N   UNL     1       8.388   7.835   0.011  0.00  0.00    -0.294 N 
ATOM     22  H   UNL     1       9.195   8.582   0.002  0.00  0.00    +0.163 HD
ATOM     23  H   UNL     1       8.632   6.762   0.010  0.00  0.00    +0.163 HD
ENDBRANCH   6  21
BRANCH   5  24
ATOM     24  S   UNL     1       7.658  10.971   0.004  0.00  0.00    -0.075 S 
BRANCH  24  25
ATOM     25  C   UNL     1       6.473  12.344   0.021  0.00  0.00    +0.173 C 
BRANCH  25  26
ATOM     26  C   UNL     1       7.220  13.653   0.008  0.00  0.00    +0.228 C 
ATOM     27  O   UNL     1       8.433  13.659  -0.011  0.00  0.00    -0.275 OA
ATOM     28  N   UNL     1       6.541  14.817   0.016  0.00  0.00    -0.282 N 
ATOM     29  H   UNL     1       5.443  14.814  -0.059  0.00  0.00    +0.155 HD
BRANCH  28  30
ATOM     30  C   UNL     1       7.232  16.031   0.121  0.00  0.00    +0.079 A 
ATOM     31  C   UNL     1       8.486  16.068   0.714  0.00  0.00    +0.072 A 
ATOM     32  C   UNL     1       9.170  17.269   0.811  0.00  0.00    +0.122 A 
ATOM     33  C   UNL     1       8.597  18.436   0.326  0.00  0.00    +0.049 A 
ATOM     34  C   UNL     1       7.346  18.403  -0.260  0.00  0.00    +0.051 A 
ATOM     35  C   UNL     1       6.660  17.204  -0.365  0.00  0.00    +0.141 A 
BRANCH  35  36
ATOM     36  O   UNL     1       5.428  17.172  -0.942  0.00  0.00    -0.493 OA
ATOM     37  C   UNL     1       4.903  18.413  -1.418  0.00  0.00    +0.277 C 
ENDBRANCH  35  36
BRANCH  32  38
ATOM     38  O   UNL     1      10.401  17.305   1.388  0.00  0.00    -0.495 OA
ATOM     39  C   UNL     1      11.046  18.578   1.460  0.00  0.00    +0.277 C 
ENDBRANCH  32  38
ENDBRANCH  28  30
ENDBRANCH  25  26
ENDBRANCH  24  25
ENDBRANCH   5  24
TORSDOF 9
