REMARK  Name = ZINC17303971
REMARK  8 active torsions:
REMARK  status: ('A' for Active; 'I' for Inactive)
REMARK    1  A    between atoms: C_1  and  O_2
REMARK    2  A    between atoms: O_2  and  C_3
REMARK    3  A    between atoms: C_6  and  N_9
REMARK    4  A    between atoms: N_9  and  C_10
REMARK    5  A    between atoms: N_9  and  S_13
REMARK    6  A    between atoms: C_10  and  C_11
REMARK    7  A    between atoms: S_13  and  C_16
REMARK    8  A    between atoms: C_20  and  C_22
REMARK                            x       y       z     vdW  Elec       q    Type
REMARK                         _______ _______ _______ _____ _____    ______ ____
ROOT
ATOM      1  C   UNL     1       9.945   3.936  -1.054  0.00  0.00    +0.110 A 
ATOM      2  C   UNL     1      11.164   3.420  -1.460  0.00  0.00    +0.030 A 
ATOM      3  C   UNL     1      11.215   2.276  -2.235  0.00  0.00    +0.022 A 
ATOM      4  C   UNL     1      10.048   1.636  -2.605  0.00  0.00    +0.053 A 
ATOM      5  C   UNL     1       8.814   2.155  -2.203  0.00  0.00    +0.057 A 
ATOM      6  C   UNL     1       8.772   3.311  -1.421  0.00  0.00    +0.043 A 
ATOM      7 CL   UNL     1      10.113   0.196  -3.571  0.00  0.00    -0.083 Cl
ENDROOT
BRANCH   5   8
ATOM      8  C   UNL     1       7.561   1.480  -2.599  0.00  0.00    +0.252 C 
ATOM      9  O   UNL     1       7.601   0.474  -3.280  0.00  0.00    -0.270 OA
ATOM     10  N   UNL     1       6.373   1.980  -2.205  0.00  0.00    -0.252 N 
ATOM     11  C   UNL     1       5.199   1.348  -2.576  0.00  0.00    +0.201 A 
ATOM     12  N   UNL     1       5.124   0.217  -3.336  0.00  0.00    -0.326 N 
ATOM     13  H   UNL     1       5.895  -0.294  -3.717  0.00  0.00    +0.169 HD
ATOM     14  C   UNL     1       3.783  -0.092  -3.481  0.00  0.00    +0.067 A 
ATOM     15  C   UNL     1       3.094  -1.104  -4.132  0.00  0.00    +0.028 A 
ATOM     16  C   UNL     1       1.715  -1.132  -4.091  0.00  0.00    +0.002 A 
ATOM     17  C   UNL     1       1.012  -0.160  -3.395  0.00  0.00    +0.002 A 
ATOM     18  C   UNL     1       1.680   0.853  -2.744  0.00  0.00    +0.030 A 
ATOM     19  C   UNL     1       3.076   0.899  -2.779  0.00  0.00    +0.091 A 
ATOM     20  N   UNL     1       3.996   1.747  -2.250  0.00  0.00    -0.214 NA
ATOM     21  H   UNL     1       6.341   2.783  -1.661  0.00  0.00    +0.158 HD
ENDBRANCH   5   8
BRANCH   1  22
ATOM     22  S   UNL     1       9.893   5.394  -0.067  0.00  0.00    +0.075 S 
ATOM     23  O   UNL     1      11.154   6.031  -0.216  0.00  0.00    -0.150 OA
ATOM     24  O   UNL     1       8.668   6.047  -0.372  0.00  0.00    -0.150 OA
BRANCH  22  25
ATOM     25  N   UNL     1       9.790   4.911   1.514  0.00  0.00    -0.199 N 
BRANCH  25  29
ATOM     26  C   UNL     1      13.262   4.127   3.683  0.00  0.00    +0.120 A 
ATOM     27  C   UNL     1      12.394   5.124   4.102  0.00  0.00    +0.047 A 
ATOM     28  C   UNL     1      11.243   5.384   3.384  0.00  0.00    +0.028 A 
ATOM     29  C   UNL     1      10.956   4.648   2.242  0.00  0.00    +0.052 A 
ATOM     30  C   UNL     1      11.823   3.646   1.827  0.00  0.00    +0.028 A 
ATOM     31  C   UNL     1      12.977   3.391   2.543  0.00  0.00    +0.047 A 
BRANCH  26  33
ATOM     32  C   UNL     1      15.244   2.830   3.903  0.00  0.00    +0.277 C 
ATOM     33  O   UNL     1      14.395   3.871   4.391  0.00  0.00    -0.495 OA
ENDBRANCH  26  33
ENDBRANCH  25  29
BRANCH  25  34
ATOM     34  C   UNL     1       8.479   4.760   2.150  0.00  0.00    +0.158 C 
BRANCH  34  35
ATOM     35  C   UNL     1       8.040   3.321   2.058  0.00  0.00    -0.014 C 
ATOM     36  C   UNL     1       7.713   2.666   3.144  0.00  0.00    +0.005 C 
ENDBRANCH  34  35
ENDBRANCH  25  34
ENDBRANCH  22  25
ENDBRANCH   1  22
TORSDOF 7
