REMARK  Name = ZINC28315260
REMARK  8 active torsions:
REMARK  status: ('A' for Active; 'I' for Inactive)
REMARK    1  A    between atoms: C_1  and  C_2
REMARK    2  A    between atoms: C_6  and  S_8
REMARK    3  A    between atoms: S_8  and  N_11
REMARK    4  A    between atoms: N_11  and  C_12
REMARK    5  A    between atoms: C_12  and  C_14
REMARK    6  A    between atoms: C_12  and  C_22
REMARK    7  A    between atoms: C_14  and  C_15
REMARK    8  A    between atoms: C_15  and  C_16
REMARK                            x       y       z     vdW  Elec       q    Type
REMARK                         _______ _______ _______ _____ _____    ______ ____
ROOT
ATOM      1  C   UNL     1      -3.362  -0.482   0.575  0.00  0.00    +0.107 C 
ENDROOT
BRANCH   1   2
ATOM      2  C   UNL     1      -2.301   0.176   1.419  0.00  0.00    -0.025 A 
ATOM      3  C   UNL     1      -2.396   1.522   1.722  0.00  0.00    +0.009 A 
ATOM      4  C   UNL     1      -1.423   2.130   2.493  0.00  0.00    +0.050 A 
ATOM      5  C   UNL     1      -0.351   1.390   2.969  0.00  0.00    +0.162 A 
ATOM      6  C   UNL     1      -0.257   0.037   2.666  0.00  0.00    +0.162 A 
ATOM      7  C   UNL     1      -1.235  -0.566   1.889  0.00  0.00    +0.054 A 
ATOM      8  O   UNL     1       0.786  -0.708   3.124  0.00  0.00    -0.485 OA
ATOM      9  C   UNL     1       1.937   0.010   3.582  0.00  0.00    +0.270 C 
ATOM     10  C   UNL     1       1.461   1.152   4.490  0.00  0.00    +0.270 C 
ATOM     11  O   UNL     1       0.600   2.003   3.725  0.00  0.00    -0.485 OA
ENDBRANCH   1   2
BRANCH   1  12
ATOM     12  N   UNL     1      -4.680   0.029   0.961  0.00  0.00    -0.183 NA
ATOM     13  H   UNL     1      -4.879   1.111   0.934  0.00  0.00    +0.149 HD
BRANCH  12  14
ATOM     14  S   UNL     1      -5.785  -0.980   1.669  0.00  0.00    +0.060 S 
ATOM     15  O   UNL     1      -6.967  -0.216   1.862  0.00  0.00    -0.153 OA
ATOM     16  O   UNL     1      -5.771  -2.187   0.919  0.00  0.00    -0.153 OA
BRANCH  14  22
ATOM     17  C   UNL     1      -5.826  -0.411   6.864  0.00  0.00    +0.044 C 
ATOM     18  C   UNL     1      -5.236  -1.077   5.648  0.00  0.00    -0.049 A 
ATOM     19  C   UNL     1      -4.217  -2.000   5.792  0.00  0.00    +0.005 A 
ATOM     20  C   UNL     1      -3.675  -2.611   4.677  0.00  0.00    +0.022 A 
ATOM     21  C   UNL     1      -4.158  -2.304   3.417  0.00  0.00    +0.067 A 
ATOM     22  C   UNL     1      -5.174  -1.377   3.273  0.00  0.00    +0.124 A 
ATOM     23  C   UNL     1      -5.715  -0.766   4.389  0.00  0.00    +0.033 A 
ATOM     24 CL   UNL     1      -3.484  -3.078   2.017  0.00  0.00    -0.082 Cl
ENDBRANCH  14  22
ENDBRANCH  12  14
ENDBRANCH   1  12
BRANCH   1  25
ATOM     25  C   UNL     1      -3.106  -0.170  -0.901  0.00  0.00    +0.030 C 
BRANCH  25  26
ATOM     26  C   UNL     1      -4.148  -0.886  -1.762  0.00  0.00    +0.037 C 
BRANCH  26  27
ATOM     27  C   UNL     1      -3.833  -0.664  -3.219  0.00  0.00    -0.047 A 
ATOM     28  C   UNL     1      -4.373   0.420  -3.886  0.00  0.00    +0.003 A 
ATOM     29  C   UNL     1      -4.080   0.625  -5.221  0.00  0.00    +0.000 A 
ATOM     30  C   UNL     1      -3.256  -0.259  -5.892  0.00  0.00    +0.000 A 
ATOM     31  C   UNL     1      -2.721  -1.346  -5.227  0.00  0.00    +0.000 A 
ATOM     32  C   UNL     1      -3.010  -1.548  -3.890  0.00  0.00    +0.003 A 
ENDBRANCH  26  27
ENDBRANCH  25  26
ENDBRANCH   1  25
TORSDOF 7
