REMARK  Name = ZINC25382150
REMARK  11 active torsions:
REMARK  status: ('A' for Active; 'I' for Inactive)
REMARK    1  A    between atoms: C_1  and  C_2
REMARK    2  A    between atoms: C_6  and  O_33
REMARK    3  A    between atoms: C_12  and  C_13
REMARK    4  A    between atoms: C_13  and  C_14
REMARK    5  A    between atoms: C_14  and  C_15
REMARK    6  A    between atoms: N_17  and  C_18
REMARK    7  A    between atoms: C_18  and  C_19
REMARK    8  A    between atoms: C_19  and  C_21
REMARK    9  A    between atoms: C_19  and  N_26
REMARK   10  A    between atoms: C_29  and  C_32
REMARK   11  A    between atoms: O_33  and  C_34
REMARK                            x       y       z     vdW  Elec       q    Type
REMARK                         _______ _______ _______ _____ _____    ______ ____
ROOT
ATOM      1  C   UNL     1       6.618  -4.098   1.312  0.00  0.00    +0.213 C 
ATOM      2  O   UNL     1       7.187  -4.330   0.266  0.00  0.00    -0.276 OA
ATOM      3  N   UNL     1       7.210  -4.404   2.483  0.00  0.00    -0.317 N 
ATOM      4  H   UNL     1       6.695  -4.194   3.432  0.00  0.00    +0.149 HD
ENDROOT
BRANCH   1   5
ATOM      5  C   UNL     1       5.250  -3.468   1.302  0.00  0.00    +0.100 C 
BRANCH   5   6
ATOM      6  C   UNL     1       4.811  -3.224  -0.144  0.00  0.00    +0.052 C 
BRANCH   6  18
ATOM      7  C   UNL     1       4.530  -0.351  -0.089  0.00  0.00    +0.045 C 
ATOM      8  C   UNL     1       3.315  -1.242  -0.128  0.00  0.00    -0.030 A 
ATOM      9  C   UNL     1       1.966  -0.673  -0.139  0.00  0.00    +0.021 A 
ATOM     10  C   UNL     1       1.767   0.712  -0.114  0.00  0.00    +0.015 A 
ATOM     11  C   UNL     1       0.498   1.215  -0.124  0.00  0.00    +0.046 A 
ATOM     12  C   UNL     1      -0.601   0.359  -0.160  0.00  0.00    +0.124 A 
ATOM     13  C   UNL     1      -0.422  -1.014  -0.186  0.00  0.00    +0.092 A 
ATOM     14  C   UNL     1       0.860  -1.543  -0.175  0.00  0.00    +0.143 A 
ATOM     15  O   UNL     1       1.056  -2.879  -0.200  0.00  0.00    -0.422 OA
ATOM     16  C   UNL     1       2.290  -3.406  -0.190  0.00  0.00    +0.341 A 
ATOM     17  O   UNL     1       2.418  -4.617  -0.213  0.00  0.00    -0.245 OA
ATOM     18  C   UNL     1       3.442  -2.594  -0.154  0.00  0.00    +0.041 A 
BRANCH  12  19
ATOM     19  O   UNL     1      -1.856   0.875  -0.176  0.00  0.00    -0.495 OA
ATOM     20  C   UNL     1      -1.972   2.299  -0.148  0.00  0.00    +0.277 C 
ENDBRANCH  12  19
ENDBRANCH   6  18
ENDBRANCH   5   6
ENDBRANCH   1   5
BRANCH   3  21
ATOM     21  C   UNL     1       8.541  -5.017   2.494  0.00  0.00    +0.094 C 
BRANCH  21  22
ATOM     22  C   UNL     1       9.035  -5.141   3.936  0.00  0.00    -0.013 C 
BRANCH  22  23
ATOM     23  N   UNL     1       8.034  -5.860   4.736  0.00  0.00    +0.386 N 
ATOM     24  C   UNL     1       7.695  -7.149   4.120  0.00  0.00    -0.078 C 
ATOM     25  C   UNL     1       6.549  -7.801   4.897  0.00  0.00    -0.015 C 
ATOM     26  C   UNL     1       6.979  -8.008   6.352  0.00  0.00    -0.018 C 
ATOM     27  C   UNL     1       7.373  -6.657   6.956  0.00  0.00    -0.015 C 
ATOM     28  C   UNL     1       8.494  -6.037   6.119  0.00  0.00    -0.078 C 
ATOM     29  C   UNL     1       5.816  -8.604   7.149  0.00  0.00    +0.007 C 
ATOM     30  H   UNL     1       7.119  -5.250   4.763  0.00  0.00    -0.081 HD
ENDBRANCH  22  23
BRANCH  22  31
ATOM     31  C   UNL     1       9.246  -3.766   4.515  0.00  0.00    -0.022 A 
ATOM     32  C   UNL     1      10.401  -3.071   4.664  0.00  0.00    +0.009 A 
ATOM     33  C   UNL     1      10.356  -1.809   5.227  0.00  0.00    +0.008 A 
ATOM     34  C   UNL     1       9.159  -1.304   5.612  0.00  0.00    +0.045 A 
ATOM     35  S   UNL     1       8.041  -2.625   5.174  0.00  0.00    -0.103 S 
ENDBRANCH  22  31
ENDBRANCH  21  22
ENDBRANCH   3  21
TORSDOF 8
