REMARK  Name = ZINC66760660
REMARK  9 active torsions:
REMARK  status: ('A' for Active; 'I' for Inactive)
REMARK    1  A    between atoms: C_1  and  C_2
REMARK    2  A    between atoms: C_2  and  C_3
REMARK    3  A    between atoms: C_3  and  C_4
REMARK    4  A    between atoms: C_4  and  N_5
REMARK    5  A    between atoms: C_11  and  N_14
REMARK    6  A    between atoms: C_15  and  C_17
REMARK    7  A    between atoms: C_17  and  C_18
REMARK    8  A    between atoms: C_18  and  C_20
REMARK    9  A    between atoms: C_18  and  N_25
REMARK                            x       y       z     vdW  Elec       q    Type
REMARK                         _______ _______ _______ _____ _____    ______ ____
ROOT
ATOM      1  N   UNL     1      -4.303  -6.755  -0.147  0.00  0.00    -0.285 N 
ATOM      2  C   UNL     1      -5.208  -7.684  -0.516  0.00  0.00    +0.219 C 
ATOM      3  O   UNL     1      -6.366  -7.572  -0.174  0.00  0.00    -0.275 OA
ATOM      4  H   UNL     1      -3.396  -6.801  -0.486  0.00  0.00    +0.155 HD
ENDROOT
BRANCH   1  11
ATOM      5  N   UNL     1      -2.792  -2.572   0.038  0.00  0.00    +0.385 N 
ATOM      6  C   UNL     1      -3.422  -2.336   1.357  0.00  0.00    -0.042 C 
ATOM      7  C   UNL     1      -4.345  -3.511   1.586  0.00  0.00    -0.061 A 
ATOM      8  C   UNL     1      -5.404  -3.694   2.456  0.00  0.00    +0.002 A 
ATOM      9  C   UNL     1      -6.098  -4.890   2.464  0.00  0.00    +0.002 A 
ATOM     10  C   UNL     1      -5.736  -5.907   1.603  0.00  0.00    +0.023 A 
ATOM     11  C   UNL     1      -4.673  -5.727   0.727  0.00  0.00    +0.035 A 
ATOM     12  C   UNL     1      -3.978  -4.526   0.721  0.00  0.00    -0.041 A 
ATOM     13  C   UNL     1      -2.803  -4.046  -0.101  0.00  0.00    -0.040 C 
ATOM     14  H   UNL     1      -3.335  -2.144  -0.697  0.00  0.00    -0.081 HD
BRANCH   5  15
ATOM     15  C   UNL     1      -1.415  -2.063   0.026  0.00  0.00    -0.078 C 
BRANCH  15  16
ATOM     16  C   UNL     1      -1.436  -0.533   0.045  0.00  0.00    -0.019 C 
BRANCH  16  18
ATOM     17  C   UNL     1      -0.023   1.527   0.052  0.00  0.00    +0.004 C 
ATOM     18  C   UNL     1      -0.001  -0.003   0.032  0.00  0.00    -0.005 C 
ENDBRANCH  16  18
ENDBRANCH  15  16
ENDBRANCH   5  15
ENDBRANCH   1  11
BRANCH   2  19
ATOM     19  C   UNL     1      -4.781  -8.860  -1.356  0.00  0.00    +0.123 C 
BRANCH  19  20
ATOM     20  C   UNL     1      -5.990  -9.755  -1.633  0.00  0.00    +0.120 C 
BRANCH  20  21
ATOM     21  N   UNL     1      -6.470 -10.331  -0.375  0.00  0.00    -0.292 N 
ATOM     22  C   UNL     1      -7.756 -10.718  -0.258  0.00  0.00    +0.298 C 
ATOM     23  O   UNL     1      -8.517 -10.590  -1.197  0.00  0.00    -0.253 OA
ATOM     24  N   UNL     1      -8.197 -11.248   0.900  0.00  0.00    -0.313 N 
ATOM     25  H   UNL     1      -5.863 -10.433   0.374  0.00  0.00    +0.151 HD
ATOM     26  H   UNL     1      -7.590 -11.351   1.649  0.00  0.00    +0.146 HD
ATOM     27  H   UNL     1      -9.123 -11.527   0.984  0.00  0.00    +0.146 HD
ENDBRANCH  20  21
BRANCH  20  28
ATOM     28  C   UNL     1      -5.590 -10.863  -2.573  0.00  0.00    +0.010 A 
ATOM     29  C   UNL     1      -5.784 -10.959  -3.911  0.00  0.00    +0.013 A 
ATOM     30  C   UNL     1      -5.326 -12.081  -4.576  0.00  0.00    +0.008 A 
ATOM     31  C   UNL     1      -4.697 -13.052  -3.870  0.00  0.00    +0.045 A 
ATOM     32  S   UNL     1      -4.732 -12.386  -2.214  0.00  0.00    -0.100 S 
ENDBRANCH  20  28
ENDBRANCH  19  20
ENDBRANCH   2  19
TORSDOF 8
