REMARK  Name = ZINC35442256
REMARK  6 active torsions:
REMARK  status: ('A' for Active; 'I' for Inactive)
REMARK    1  A    between atoms: C_3  and  C_8
REMARK    2  A    between atoms: C_8  and  N_9
REMARK    3  A    between atoms: N_9  and  C_10
REMARK    4  A    between atoms: C_19  and  C_23
REMARK    5  A    between atoms: C_23  and  C_24
REMARK    6  A    between atoms: C_24  and  C_25
REMARK                            x       y       z     vdW  Elec       q    Type
REMARK                         _______ _______ _______ _____ _____    ______ ____
ROOT
ATOM      1  C   UNL     1       5.129   3.254   1.518  0.00  0.00    +0.036 C 
ATOM      2  C   UNL     1       4.926   4.797   1.490  0.00  0.00    +0.010 C 
ATOM      3  C   UNL     1       6.072   5.278   2.392  0.00  0.00    +0.021 C 
ATOM      4  C   UNL     1       5.881   6.627   3.004  0.00  0.00    +0.200 C 
ATOM      5  O   UNL     1       5.305   7.504   2.397  0.00  0.00    -0.278 OA
ATOM      6  N   UNL     1       6.361   6.854   4.243  0.00  0.00    -0.318 N 
ATOM      7  C   UNL     1       6.956   5.832   5.096  0.00  0.00    +0.089 C 
ATOM      8  C   UNL     1       7.190   4.515   4.341  0.00  0.00    -0.050 C 
ATOM      9  N   UNL     1       6.044   4.272   3.487  0.00  0.00    +0.391 N 
ATOM     10  C   UNL     1       5.936   2.979   2.813  0.00  0.00    -0.059 C 
ATOM     11  H   UNL     1       6.306   7.757   4.591  0.00  0.00    +0.149 HD
ATOM     12  H   UNL     1       5.209   4.411   4.037  0.00  0.00    -0.080 HD
ENDROOT
BRANCH   1  13
ATOM     13  N   UNL     1       3.831   2.569   1.569  0.00  0.00    -0.311 NA
ATOM     14  H   UNL     1       3.171   3.085   2.131  0.00  0.00    +0.122 HD
BRANCH  13  15
ATOM     15  C   UNL     1       3.304   2.338   0.217  0.00  0.00    +0.116 C 
BRANCH  15  18
ATOM     16  C   UNL     1      -0.413   1.725   0.473  0.00  0.00    +0.002 A 
ATOM     17  C   UNL     1       0.807   2.370   0.389  0.00  0.00    +0.005 A 
ATOM     18  C   UNL     1       1.975   1.634   0.309  0.00  0.00    -0.032 A 
ATOM     19  C   UNL     1       1.923   0.253   0.315  0.00  0.00    +0.025 A 
ATOM     20  C   UNL     1       0.703  -0.393   0.400  0.00  0.00    +0.041 A 
ATOM     21  C   UNL     1      -0.466   0.344   0.479  0.00  0.00    +0.020 A 
ATOM     22 CL   UNL     1       0.637  -2.128   0.405  0.00  0.00    -0.084 Cl
ENDBRANCH  15  18
ENDBRANCH  13  15
ENDBRANCH   1  13
BRANCH   8  23
ATOM     23  C   UNL     1       7.348   3.365   5.338  0.00  0.00    -0.005 C 
BRANCH  23  24
ATOM     24  C   UNL     1       8.620   3.574   6.161  0.00  0.00    +0.094 C 
BRANCH  24  25
ATOM     25  C   UNL     1       8.842   2.382   7.056  0.00  0.00    +0.216 C 
ATOM     26  O   UNL     1       8.058   1.456   7.037  0.00  0.00    -0.276 OA
ATOM     27  N   UNL     1       9.910   2.345   7.877  0.00  0.00    -0.301 N 
ATOM     28  C   UNL     1      10.930   3.396   8.005  0.00  0.00    +0.108 C 
ATOM     29  C   UNL     1      11.966   2.906   9.038  0.00  0.00    +0.020 C 
ATOM     30  C   UNL     1      11.777   1.366   9.016  0.00  0.00    +0.020 C 
ATOM     31  C   UNL     1      10.246   1.246   8.800  0.00  0.00    +0.108 C 
ENDBRANCH  24  25
ENDBRANCH  23  24
ENDBRANCH   8  23
TORSDOF 6
