REMARK  Name = ZINC63258810
REMARK  9 active torsions:
REMARK  status: ('A' for Active; 'I' for Inactive)
REMARK    1  A    between atoms: C_7  and  C_10
REMARK    2  A    between atoms: C_10  and  C_11
REMARK    3  A    between atoms: C_11  and  C_13
REMARK    4  A    between atoms: C_11  and  N_30
REMARK    5  A    between atoms: C_13  and  O_15
REMARK    6  A    between atoms: O_15  and  C_16
REMARK    7  A    between atoms: C_16  and  C_17
REMARK    8  A    between atoms: C_17  and  C_19
REMARK    9  A    between atoms: C_31  and  C_33
REMARK                            x       y       z     vdW  Elec       q    Type
REMARK                         _______ _______ _______ _____ _____    ______ ____
ROOT
ATOM      1  C   UNL     1       0.576  -3.621  -1.486  0.00  0.00    +0.186 C 
ENDROOT
BRANCH   1   2
ATOM      2  N   UNL     1       1.860  -4.164  -1.937  0.00  0.00    -0.298 N 
ATOM      3  C   UNL     1       2.854  -3.329  -2.298  0.00  0.00    +0.245 C 
ATOM      4  O   UNL     1       2.686  -2.126  -2.251  0.00  0.00    -0.270 OA
ATOM      5  H   UNL     1       1.994  -5.124  -1.974  0.00  0.00    +0.150 HD
BRANCH   3   6
ATOM      6  C   UNL     1       4.149  -3.877  -2.752  0.00  0.00    +0.037 A 
ATOM      7  C   UNL     1       4.343  -5.258  -2.813  0.00  0.00    +0.016 A 
ATOM      8  C   UNL     1       5.553  -5.764  -3.237  0.00  0.00    +0.039 A 
ATOM      9  C   UNL     1       6.577  -4.903  -3.603  0.00  0.00    +0.123 A 
ATOM     10  C   UNL     1       6.390  -3.531  -3.544  0.00  0.00    +0.039 A 
ATOM     11  C   UNL     1       5.182  -3.015  -3.127  0.00  0.00    +0.016 A 
ATOM     12  F   UNL     1       7.761  -5.404  -4.017  0.00  0.00    -0.205 F 
ENDBRANCH   3   6
ENDBRANCH   1   2
BRANCH   1  13
ATOM     13  C   UNL     1      -0.522  -4.607  -1.792  0.00  0.00    +0.328 C 
ATOM     14  O   UNL     1      -0.259  -5.656  -2.331  0.00  0.00    -0.249 OA
BRANCH  13  15
ATOM     15  O   UNL     1      -1.792  -4.321  -1.466  0.00  0.00    -0.455 OA
BRANCH  15  16
ATOM     16  C   UNL     1      -2.781  -5.302  -1.785  0.00  0.00    +0.311 C 
BRANCH  16  17
ATOM     17  C   UNL     1      -4.136  -4.809  -1.348  0.00  0.00    +0.200 C 
ATOM     18  O   UNL     1      -4.245  -3.724  -0.815  0.00  0.00    -0.288 OA
BRANCH  17  19
ATOM     19  C   UNL     1      -5.326  -5.642  -1.567  0.00  0.00    +0.023 A 
ATOM     20  C   UNL     1      -5.202  -6.896  -2.176  0.00  0.00    +0.015 A 
ATOM     21  C   UNL     1      -6.318  -7.678  -2.381  0.00  0.00    +0.048 A 
ATOM     22  C   UNL     1      -7.568  -7.224  -1.984  0.00  0.00    +0.142 A 
ATOM     23  C   UNL     1      -7.700  -5.973  -1.375  0.00  0.00    +0.076 A 
ATOM     24  C   UNL     1      -6.587  -5.186  -1.161  0.00  0.00    +0.038 A 
ATOM     25  N   UNL     1      -8.973  -5.533  -0.982  0.00  0.00    -0.280 N 
ATOM     26  C   UNL     1      -9.979  -6.430  -0.905  0.00  0.00    +0.255 C 
ATOM     27  O   UNL     1     -11.095  -6.068  -0.596  0.00  0.00    -0.272 OA
ATOM     28  C   UNL     1      -9.711  -7.883  -1.204  0.00  0.00    +0.325 C 
ATOM     29  O   UNL     1      -8.673  -7.989  -2.182  0.00  0.00    -0.481 OA
ATOM     30  H   UNL     1      -9.127  -4.599  -0.769  0.00  0.00    +0.155 HD
ENDBRANCH  17  19
ENDBRANCH  16  17
ENDBRANCH  15  16
ENDBRANCH  13  15
ENDBRANCH   1  13
BRANCH   1  31
ATOM     31  C   UNL     1       0.629  -3.369   0.022  0.00  0.00    +0.067 C 
BRANCH  31  38
ATOM     32  C   UNL     1       4.574  -5.189   1.499  0.00  0.00    +0.001 A 
ATOM     33  C   UNL     1       4.419  -6.433   2.125  0.00  0.00    +0.002 A 
ATOM     34  C   UNL     1       3.218  -7.030   2.274  0.00  0.00    +0.026 A 
ATOM     35  C   UNL     1       2.038  -6.402   1.789  0.00  0.00    +0.043 A 
ATOM     36  N   UNL     1       0.780  -6.771   1.811  0.00  0.00    -0.380 N 
ATOM     37  C   UNL     1      -0.024  -5.730   1.161  0.00  0.00    +0.144 C 
ATOM     38  C   UNL     1       0.952  -4.656   0.735  0.00  0.00    -0.039 C 
ATOM     39  C   UNL     1       2.175  -5.086   1.123  0.00  0.00    -0.001 A 
ATOM     40  C   UNL     1       3.517  -4.506   1.003  0.00  0.00    +0.010 A 
ATOM     41  H   UNL     1       0.439  -7.594   2.192  0.00  0.00    +0.160 HD
ENDBRANCH  31  38
ENDBRANCH   1  31
TORSDOF 9
