REMARK  Name = ZINC67654828
REMARK  8 active torsions:
REMARK  status: ('A' for Active; 'I' for Inactive)
REMARK    1  A    between atoms: C_1  and  C_2
REMARK    2  A    between atoms: C_2  and  C_3
REMARK    3  A    between atoms: C_2  and  C_4
REMARK    4  A    between atoms: C_2  and  N_20
REMARK    5  A    between atoms: N_6  and  C_9
REMARK    6  A    between atoms: C_12  and  C_16
REMARK    7  A    between atoms: N_18  and  C_19
REMARK    8  A    between atoms: C_21  and  C_23
REMARK                            x       y       z     vdW  Elec       q    Type
REMARK                         _______ _______ _______ _____ _____    ______ ____
ROOT
ATOM      1  C   UNL     1      -1.412  -0.526   0.013  0.00  0.00    +0.106 A 
ATOM      2  C   UNL     1      -2.352  -0.298   0.959  0.00  0.00    +0.136 A 
ATOM      3  N   UNL     1      -3.461  -0.959   0.556  0.00  0.00    -0.250 N 
ATOM      4  N   UNL     1      -3.199  -1.544  -0.560  0.00  0.00    -0.065 NA
ATOM      5  N   UNL     1      -1.986  -1.300  -0.914  0.00  0.00    -0.132 NA
ENDROOT
BRANCH   3   6
ATOM      6  C   UNL     1      -4.741  -1.003   1.267  0.00  0.00    +0.091 C 
ATOM      7  C   UNL     1      -5.584   0.244   0.930  0.00  0.00    +0.018 C 
ATOM      8  C   UNL     1      -5.792   0.965   2.279  0.00  0.00    +0.018 C 
ATOM      9  N   UNL     1      -5.632  -0.100   3.302  0.00  0.00    +0.388 N 
ATOM     10  C   UNL     1      -4.510  -0.933   2.792  0.00  0.00    -0.054 C 
ATOM     11  H   UNL     1      -5.395   0.302   4.196  0.00  0.00    -0.085 HD
ATOM     12  H   UNL     1      -6.474  -0.651   3.372  0.00  0.00    -0.085 HD
BRANCH   8  13
ATOM     13  C   UNL     1      -7.174   1.562   2.349  0.00  0.00    +0.199 C 
ATOM     14  O   UNL     1      -8.052   0.988   2.959  0.00  0.00    -0.278 OA
ATOM     15  N   UNL     1      -7.435   2.732   1.735  0.00  0.00    -0.320 N 
ATOM     16  C   UNL     1      -8.778   3.312   1.803  0.00  0.00    +0.128 C 
ATOM     17  H   UNL     1      -6.733   3.191   1.247  0.00  0.00    +0.148 HD
ENDBRANCH   8  13
ENDBRANCH   3   6
BRANCH   1  19
ATOM     18  C   UNL     1      -0.019   1.526   0.010  0.00  0.00    +0.038 C 
ATOM     19  C   UNL     1       0.002  -0.004   0.002  0.00  0.00    +0.075 C 
ATOM     20  C   UNL     1       0.742  -0.511   1.242  0.00  0.00    +0.038 C 
BRANCH  19  21
ATOM     21  N   UNL     1       0.688  -0.476  -1.203  0.00  0.00    -0.301 N 
ATOM     22  C   UNL     1       1.972  -0.132  -1.427  0.00  0.00    +0.246 C 
ATOM     23  O   UNL     1       2.560   0.570  -0.629  0.00  0.00    -0.270 OA
ATOM     24  H   UNL     1       0.218  -1.037  -1.840  0.00  0.00    +0.150 HD
BRANCH  22  25
ATOM     25  C   UNL     1       2.663  -0.609  -2.643  0.00  0.00    +0.055 A 
ATOM     26  C   UNL     1       1.988  -1.411  -3.565  0.00  0.00    +0.014 A 
ATOM     27  C   UNL     1       2.639  -1.852  -4.698  0.00  0.00    +0.001 A 
ATOM     28  C   UNL     1       3.959  -1.502  -4.922  0.00  0.00    +0.001 A 
ATOM     29  C   UNL     1       4.635  -0.708  -4.014  0.00  0.00    +0.021 A 
ATOM     30  C   UNL     1       3.994  -0.254  -2.878  0.00  0.00    +0.053 A 
ATOM     31 CL   UNL     1       4.841   0.749  -1.742  0.00  0.00    -0.083 Cl
ENDBRANCH  22  25
ENDBRANCH  19  21
ENDBRANCH   1  19
TORSDOF 5
