REMARK  Name = ZINC27541428
REMARK  11 active torsions:
REMARK  status: ('A' for Active; 'I' for Inactive)
REMARK    1  A    between atoms: C_1  and  C_2
REMARK    2  A    between atoms: C_2  and  C_3
REMARK    3  A    between atoms: C_3  and  C_4
REMARK    4  A    between atoms: C_4  and  N_5
REMARK    5  A    between atoms: C_6  and  C_8
REMARK    6  A    between atoms: C_8  and  N_9
REMARK    7  A    between atoms: N_12  and  C_15
REMARK    8  A    between atoms: C_15  and  C_17
REMARK    9  A    between atoms: C_15  and  C_18
REMARK   10  A    between atoms: N_20  and  C_21
REMARK   11  A    between atoms: C_24  and  C_28
REMARK                            x       y       z     vdW  Elec       q    Type
REMARK                         _______ _______ _______ _____ _____    ______ ____
ROOT
ATOM      1  N   UNL     1       3.688  -4.988   1.446  0.00  0.00    +0.387 N 
ATOM      2  C   UNL     1       4.414  -4.674   0.208  0.00  0.00    -0.063 C 
ATOM      3  C   UNL     1       4.718  -3.175   0.164  0.00  0.00    +0.066 C 
ATOM      4  N   UNL     1       3.460  -2.420   0.239  0.00  0.00    -0.295 NA
ATOM      5  C   UNL     1       2.734  -2.733   1.478  0.00  0.00    +0.066 C 
ATOM      6  C   UNL     1       2.429  -4.232   1.522  0.00  0.00    -0.063 C 
ATOM      7  H   UNL     1       4.317  -4.684   2.296  0.00  0.00    -0.081 HD
ENDROOT
BRANCH   4   8
ATOM      8  C   UNL     1       3.705  -0.976   0.124  0.00  0.00    +0.140 C 
ATOM      9  C   UNL     1       4.515  -0.498   1.331  0.00  0.00    +0.034 C 
BRANCH   8  10
ATOM     10  C   UNL     1       2.388  -0.244   0.082  0.00  0.00    +0.234 C 
ATOM     11  O   UNL     1       1.347  -0.865   0.142  0.00  0.00    -0.274 OA
ATOM     12  N   UNL     1       2.366   1.099  -0.023  0.00  0.00    -0.283 N 
ATOM     13  H   UNL     1       3.304   1.655  -0.168  0.00  0.00    +0.155 HD
BRANCH  12  14
ATOM     14  C   UNL     1       1.149   1.787   0.054  0.00  0.00    +0.048 A 
ATOM     15  C   UNL     1       0.070   1.220   0.717  0.00  0.00    +0.024 A 
ATOM     16  C   UNL     1      -1.131   1.899   0.787  0.00  0.00    +0.005 A 
ATOM     17  C   UNL     1      -1.256   3.148   0.206  0.00  0.00    -0.049 A 
ATOM     18  C   UNL     1      -0.183   3.716  -0.456  0.00  0.00    +0.020 A 
ATOM     19  C   UNL     1       1.020   3.039  -0.534  0.00  0.00    +0.039 A 
ATOM     20 BR   UNL     1       2.487   3.817  -1.439  0.00  0.00    -0.048 Br
ATOM     21  C   UNL     1      -2.566   3.888   0.288  0.00  0.00    +0.044 C 
ENDBRANCH  12  14
ENDBRANCH   8  10
ENDBRANCH   4   8
BRANCH   1  22
ATOM     22  C   UNL     1       3.443  -6.432   1.562  0.00  0.00    +0.019 C 
BRANCH  22  24
ATOM     23  N   UNL     1       4.768  -8.481   1.966  0.00  0.00    -0.317 N 
ATOM     24  C   UNL     1       4.754  -7.150   1.754  0.00  0.00    +0.196 C 
ATOM     25  O   UNL     1       5.796  -6.530   1.717  0.00  0.00    -0.278 OA
ATOM     26  H   UNL     1       3.823  -9.043   1.999  0.00  0.00    +0.149 HD
BRANCH  23  27
ATOM     27  C   UNL     1       6.043  -9.179   2.152  0.00  0.00    +0.104 C 
BRANCH  27  28
ATOM     28  C   UNL     1       5.780 -10.670   2.373  0.00  0.00    +0.018 C 
BRANCH  28  30
ATOM     29  C   UNL     1       6.848 -12.890   2.789  0.00  0.00    +0.004 C 
ATOM     30  C   UNL     1       7.111 -11.399   2.568  0.00  0.00    -0.002 C 
ENDBRANCH  28  30
ENDBRANCH  27  28
ENDBRANCH  23  27
ENDBRANCH  22  24
ENDBRANCH   1  22
TORSDOF 8
