REMARK  Name = ZINC09059145
REMARK  5 active torsions:
REMARK  status: ('A' for Active; 'I' for Inactive)
REMARK    1  A    between atoms: C_1  and  C_2
REMARK    2  A    between atoms: C_2  and  C_4
REMARK    3  A    between atoms: C_2  and  O_33
REMARK    4  A    between atoms: N_12  and  C_15
REMARK    5  A    between atoms: C_15  and  C_16
REMARK                            x       y       z     vdW  Elec       q    Type
REMARK                         _______ _______ _______ _____ _____    ______ ____
ROOT
ATOM      1  C   UNL     1       3.673   4.044   0.778  0.00  0.00    -0.028 C 
ATOM      2  C   UNL     1       4.038   4.185  -0.715  0.00  0.00    +0.075 C 
ATOM      3  C   UNL     1       4.121   2.726  -1.245  0.00  0.00    +0.088 C 
ATOM      4  C   UNL     1       5.580   2.575  -1.617  0.00  0.00    +0.225 C 
ATOM      5  O   UNL     1       6.082   1.577  -2.087  0.00  0.00    -0.275 OA
ATOM      6  N   UNL     1       6.228   3.713  -1.348  0.00  0.00    -0.239 N 
ATOM      7  C   UNL     1       5.454   4.698  -0.837  0.00  0.00    +0.224 C 
ATOM      8  O   UNL     1       5.826   5.809  -0.524  0.00  0.00    -0.275 OA
ATOM      9  C   UNL     1       3.810   1.853  -0.023  0.00  0.00    +0.050 C 
ATOM     10  C   UNL     1       2.375   1.410  -0.013  0.00  0.00    -0.026 A 
ATOM     11  C   UNL     1       1.174   2.084   0.002  0.00  0.00    +0.004 A 
ATOM     12  C   UNL     1      -0.017   1.379   0.010  0.00  0.00    +0.002 A 
ATOM     13  C   UNL     1       0.002  -0.004   0.002  0.00  0.00    +0.022 A 
ATOM     14  C   UNL     1       1.203  -0.684  -0.013  0.00  0.00    +0.062 A 
ATOM     15  C   UNL     1       2.407   0.019  -0.021  0.00  0.00    +0.054 A 
ATOM     16  N   UNL     1       3.728  -0.434  -0.035  0.00  0.00    -0.285 N 
ATOM     17  C   UNL     1       4.613   0.582  -0.037  0.00  0.00    +0.211 C 
ATOM     18  O   UNL     1       5.822   0.489  -0.047  0.00  0.00    -0.277 OA
ATOM     19 CL   UNL     1       1.214  -2.420  -0.024  0.00  0.00    -0.082 Cl
ATOM     20  H   UNL     1       3.980  -1.371  -0.044  0.00  0.00    +0.155 HD
ATOM     21  N   UNL     1       4.113   2.691   1.124  0.00  0.00    +0.396 N 
ATOM     22  H   UNL     1       3.608   2.354   1.953  0.00  0.00    -0.083 HD
ATOM     23  H   UNL     1       5.123   2.683   1.312  0.00  0.00    -0.083 HD
ENDROOT
BRANCH   1  25
ATOM     24  C   UNL     1       4.090   4.894   3.090  0.00  0.00    +0.036 C 
ATOM     25  C   UNL     1       4.406   5.100   1.607  0.00  0.00    +0.098 C 
BRANCH  25  26
ATOM     26  O   UNL     1       3.979   6.403   1.205  0.00  0.00    -0.394 OA
ATOM     27  H   UNL     1       4.404   7.123   1.690  0.00  0.00    +0.210 HD
ENDBRANCH  25  26
ENDBRANCH   1  25
BRANCH   6  28
ATOM     28  C   UNL     1       7.662   3.885  -1.593  0.00  0.00    +0.148 C 
BRANCH  28  29
ATOM     29  C   UNL     1       7.877   4.422  -3.009  0.00  0.00    +0.136 C 
ATOM     30  C   UNL     1       9.386   4.529  -3.320  0.00  0.00    +0.035 C 
ATOM     31  C   UNL     1       9.505   5.818  -4.164  0.00  0.00    +0.031 C 
ATOM     32  C   UNL     1       8.053   6.337  -4.263  0.00  0.00    +0.160 C 
ATOM     33  O   UNL     1       7.379   5.773  -3.116  0.00  0.00    -0.375 OA
ENDBRANCH  28  29
ENDBRANCH   6  28
TORSDOF 4
