REMARK  Name = ZINC64623136
REMARK  7 active torsions:
REMARK  status: ('A' for Active; 'I' for Inactive)
REMARK    1  A    between atoms: C_1  and  O_2
REMARK    2  A    between atoms: O_2  and  C_3
REMARK    3  A    between atoms: C_6  and  C_9
REMARK    4  A    between atoms: N_27  and  C_28
REMARK    5  A    between atoms: C_32  and  C_34
REMARK    6  A    between atoms: C_34  and  O_36
REMARK    7  A    between atoms: O_36  and  C_37
REMARK                            x       y       z     vdW  Elec       q    Type
REMARK                         _______ _______ _______ _____ _____    ______ ____
ROOT
ATOM      1  C   UNL     1      -4.883  -3.462   0.596  0.00  0.00    +0.134 C 
ATOM      2  C   UNL     1      -5.362  -4.391   1.717  0.00  0.00    +0.131 C 
ATOM      3  C   UNL     1      -6.664  -5.019   1.235  0.00  0.00    -0.035 C 
ATOM      4  C   UNL     1      -7.578  -4.739   2.156  0.00  0.00    +0.001 A 
ATOM      5  C   UNL     1      -8.992  -5.129   2.283  0.00  0.00    +0.030 A 
ATOM      6  C   UNL     1      -9.652  -4.647   3.369  0.00  0.00    +0.042 A 
ATOM      7  C   UNL     1      -9.053  -3.825   4.331  0.00  0.00    +0.022 A 
ATOM      8  C   UNL     1      -7.759  -3.421   4.296  0.00  0.00    +0.027 A 
ATOM      9  C   UNL     1      -6.961  -3.868   3.202  0.00  0.00    +0.043 A 
ATOM     10  N   UNL     1      -5.685  -3.650   2.938  0.00  0.00    -0.375 N 
ATOM     11 CL   UNL     1     -11.323  -5.071   3.574  0.00  0.00    -0.084 Cl
ATOM     12  C   UNL     1      -6.780  -5.726  -0.093  0.00  0.00    +0.052 C 
ATOM     13  C   UNL     1      -6.200  -4.773  -1.154  0.00  0.00    +0.114 C 
ATOM     14  N   UNL     1      -4.934  -4.214  -0.668  0.00  0.00    -0.276 N 
ATOM     15  C   UNL     1      -3.807  -4.391  -1.385  0.00  0.00    +0.307 C 
ATOM     16  O   UNL     1      -2.731  -4.078  -0.913  0.00  0.00    -0.252 OA
ATOM     17  N   UNL     1      -3.872  -4.917  -2.624  0.00  0.00    -0.269 N 
ATOM     18  H   UNL     1      -4.734  -5.078  -3.038  0.00  0.00    +0.156 HD
ATOM     19  H   UNL     1      -5.069  -3.100   3.447  0.00  0.00    +0.160 HD
ENDROOT
BRANCH   1  23
ATOM     20  C   UNL     1      -0.873  -2.207   1.371  0.00  0.00    +0.120 A 
ATOM     21  C   UNL     1      -1.273  -3.494   1.697  0.00  0.00    +0.046 A 
ATOM     22  C   UNL     1      -2.570  -3.898   1.445  0.00  0.00    +0.009 A 
ATOM     23  C   UNL     1      -3.469  -3.019   0.869  0.00  0.00    -0.024 A 
ATOM     24  C   UNL     1      -3.073  -1.735   0.543  0.00  0.00    +0.009 A 
ATOM     25  C   UNL     1      -1.778  -1.325   0.798  0.00  0.00    +0.046 A 
BRANCH  20  27
ATOM     26  C   UNL     1       1.280  -2.768   2.209  0.00  0.00    +0.277 C 
ATOM     27  O   UNL     1       0.403  -1.807   1.618  0.00  0.00    -0.495 OA
ENDBRANCH  20  27
ENDBRANCH   1  23
BRANCH  17  28
ATOM     28  C   UNL     1      -2.695  -5.229  -3.314  0.00  0.00    +0.036 A 
ATOM     29  C   UNL     1      -1.538  -4.496  -3.082  0.00  0.00    +0.023 A 
ATOM     30  C   UNL     1      -0.373  -4.801  -3.760  0.00  0.00    +0.003 A 
ATOM     31  C   UNL     1      -0.351  -5.835  -4.674  0.00  0.00    +0.015 A 
ATOM     32  C   UNL     1      -1.508  -6.578  -4.915  0.00  0.00    +0.061 A 
ATOM     33  C   UNL     1      -2.683  -6.274  -4.225  0.00  0.00    +0.038 A 
BRANCH  32  34
ATOM     34  C   UNL     1      -1.489  -7.685  -5.893  0.00  0.00    +0.339 C 
ATOM     35  O   UNL     1      -2.497  -8.330  -6.100  0.00  0.00    -0.245 OA
BRANCH  34  36
ATOM     36  O   UNL     1      -0.352  -7.980  -6.553  0.00  0.00    -0.464 OA
ATOM     37  C   UNL     1      -0.405  -9.063  -7.484  0.00  0.00    +0.280 C 
ENDBRANCH  34  36
ENDBRANCH  32  34
ENDBRANCH  17  28
TORSDOF 5
