REMARK  Name = ZINC33332064
REMARK  8 active torsions:
REMARK  status: ('A' for Active; 'I' for Inactive)
REMARK    1  A    between atoms: C_1  and  C_2
REMARK    2  A    between atoms: C_7  and  C_8
REMARK    3  A    between atoms: C_8  and  C_9
REMARK    4  A    between atoms: C_9  and  N_10
REMARK    5  A    between atoms: C_11  and  C_13
REMARK    6  A    between atoms: C_13  and  C_14
REMARK    7  A    between atoms: C_14  and  C_15
REMARK    8  A    between atoms: C_15  and  N_16
REMARK                            x       y       z     vdW  Elec       q    Type
REMARK                         _______ _______ _______ _____ _____    ______ ____
ROOT
ATOM      1  C   UNL     1      -1.433  -0.534   0.013  0.00  0.00    +0.126 C 
ENDROOT
BRANCH   1   2
ATOM      2  N   UNL     1      -1.413  -1.998   0.005  0.00  0.00    -0.305 N 
ATOM      3  C   UNL     1      -1.421  -2.684  -1.210  0.00  0.00    +0.070 A 
ATOM      4  C   UNL     1      -1.438  -1.971  -2.402  0.00  0.00    +0.043 A 
ATOM      5  C   UNL     1      -1.440  -2.642  -3.610  0.00  0.00    +0.020 A 
ATOM      6  C   UNL     1      -1.421  -4.027  -3.637  0.00  0.00    +0.017 A 
ATOM      7  C   UNL     1      -1.400  -4.744  -2.458  0.00  0.00    +0.029 A 
ATOM      8  C   UNL     1      -1.397  -4.078  -1.239  0.00  0.00    +0.070 A 
ATOM      9  N   UNL     1      -1.376  -4.809  -0.046  0.00  0.00    -0.310 N 
ATOM     10  C   UNL     1      -1.355  -6.141   0.205  0.00  0.00    +0.092 A 
ATOM     11  C   UNL     1      -1.339  -6.335   1.547  0.00  0.00    +0.020 A 
ATOM     12  C   UNL     1      -1.351  -5.080   2.163  0.00  0.00    +0.033 A 
ATOM     13  C   UNL     1      -1.373  -4.138   1.159  0.00  0.00    +0.112 A 
ATOM     14  C   UNL     1      -1.393  -2.674   1.171  0.00  0.00    +0.276 A 
ATOM     15  O   UNL     1      -1.391  -2.070   2.228  0.00  0.00    -0.265 OA
ATOM     16 BR   UNL     1      -1.470  -1.668  -5.230  0.00  0.00    -0.050 Br
ENDBRANCH   1   2
BRANCH   1  17
ATOM     17  C   UNL     1       0.002  -0.004   0.002  0.00  0.00    +0.031 C 
BRANCH  17  18
ATOM     18  C   UNL     1      -0.019   1.526   0.010  0.00  0.00    +0.097 C 
BRANCH  18  20
ATOM     19  N   UNL     1       1.623   3.376   0.005  0.00  0.00    -0.315 N 
ATOM     20  C   UNL     1       1.395   2.047  -0.000  0.00  0.00    +0.213 C 
ATOM     21  O   UNL     1       2.328   1.272  -0.013  0.00  0.00    -0.276 OA
ATOM     22  H   UNL     1       0.778   4.079   0.017  0.00  0.00    +0.149 HD
BRANCH  19  23
ATOM     23  C   UNL     1       2.998   3.883  -0.006  0.00  0.00    +0.109 C 
BRANCH  23  24
ATOM     24  C   UNL     1       2.977   5.413   0.003  0.00  0.00    +0.054 C 
BRANCH  24  31
ATOM     25  C   UNL     1       4.384   5.721  -2.502  0.00  0.00    +0.044 C 
ATOM     26  C   UNL     1       5.064   6.082  -1.206  0.00  0.00    -0.047 A 
ATOM     27  C   UNL     1       6.361   6.561  -1.216  0.00  0.00    +0.003 A 
ATOM     28  C   UNL     1       6.984   6.892  -0.028  0.00  0.00    +0.000 A 
ATOM     29  C   UNL     1       6.311   6.744   1.171  0.00  0.00    +0.000 A 
ATOM     30  C   UNL     1       5.013   6.270   1.180  0.00  0.00    +0.004 A 
ATOM     31  C   UNL     1       4.391   5.934  -0.008  0.00  0.00    -0.043 A 
ENDBRANCH  24  31
ENDBRANCH  23  24
ENDBRANCH  19  23
ENDBRANCH  18  20
ENDBRANCH  17  18
ENDBRANCH   1  17
TORSDOF 7
