REMARK  Name = ZINC65963902
REMARK  9 active torsions:
REMARK  status: ('A' for Active; 'I' for Inactive)
REMARK    1  A    between atoms: C_1  and  C_2
REMARK    2  A    between atoms: C_4  and  C_29
REMARK    3  A    between atoms: C_5  and  N_9
REMARK    4  A    between atoms: C_6  and  C_8
REMARK    5  A    between atoms: C_10  and  C_12
REMARK    6  A    between atoms: C_12  and  C_13
REMARK    7  A    between atoms: C_12  and  N_14
REMARK    8  A    between atoms: C_17  and  N_20
REMARK    9  A    between atoms: C_21  and  C_23
REMARK                            x       y       z     vdW  Elec       q    Type
REMARK                         _______ _______ _______ _____ _____    ______ ____
ROOT
ATOM      1  N   UNL     1      -0.337  -6.979   2.228  0.00  0.00    +0.387 N 
ATOM      2  C   UNL     1      -0.373  -8.446   2.212  0.00  0.00    -0.076 C 
ATOM      3  C   UNL     1      -0.331  -8.976   3.647  0.00  0.00    +0.004 C 
ATOM      4  C   UNL     1      -1.541  -8.442   4.419  0.00  0.00    +0.069 C 
ATOM      5  C   UNL     1      -1.533  -6.912   4.365  0.00  0.00    +0.004 C 
ATOM      6  C   UNL     1      -1.531  -6.458   2.904  0.00  0.00    -0.076 C 
ATOM      7  H   UNL     1       0.489  -6.670   2.720  0.00  0.00    -0.081 HD
ENDROOT
BRANCH   4   8
ATOM      8  N   UNL     1      -1.466  -8.884   5.814  0.00  0.00    -0.312 N 
ATOM      9  C   UNL     1      -2.591  -8.989   6.548  0.00  0.00    +0.216 C 
ATOM     10  O   UNL     1      -3.666  -8.719   6.054  0.00  0.00    -0.276 OA
ATOM     11  H   UNL     1      -0.607  -9.100   6.209  0.00  0.00    +0.149 HD
BRANCH   9  12
ATOM     12  C   UNL     1      -2.515  -9.444   7.983  0.00  0.00    +0.075 C 
ATOM     13  C   UNL     1      -1.902 -10.844   8.043  0.00  0.00    +0.013 C 
ATOM     14  C   UNL     1      -1.824 -11.305   9.499  0.00  0.00    +0.001 C 
ATOM     15  C   UNL     1      -3.231 -11.339  10.100  0.00  0.00    +0.000 C 
ATOM     16  C   UNL     1      -3.844  -9.938  10.040  0.00  0.00    +0.001 C 
ATOM     17  C   UNL     1      -3.922  -9.477   8.583  0.00  0.00    +0.013 C 
ENDBRANCH   9  12
ENDBRANCH   4   8
BRANCH   1  18
ATOM     18  C   UNL     1      -0.299  -6.477   0.848  0.00  0.00    +0.016 C 
ATOM     19  C   UNL     1       0.886  -7.104   0.110  0.00  0.00    -0.004 C 
BRANCH  18  21
ATOM     20  N   UNL     1      -0.314  -4.272  -0.273  0.00  0.00    -0.286 N 
ATOM     21  C   UNL     1      -0.145  -4.978   0.862  0.00  0.00    +0.203 C 
ATOM     22  O   UNL     1       0.130  -4.407   1.896  0.00  0.00    -0.277 OA
ATOM     23  H   UNL     1      -0.453  -4.734  -1.115  0.00  0.00    +0.155 HD
BRANCH  20  28
ATOM     24  C   UNL     1      -0.208   1.398  -0.133  0.00  0.00    +0.044 C 
ATOM     25  C   UNL     1      -0.236  -0.108  -0.170  0.00  0.00    -0.050 A 
ATOM     26  C   UNL     1       0.846  -0.830   0.300  0.00  0.00    +0.008 A 
ATOM     27  C   UNL     1       0.823  -2.211   0.267  0.00  0.00    -0.029 A 
ATOM     28  C   UNL     1      -0.288  -2.874  -0.238  0.00  0.00    +0.039 A 
ATOM     29  C   UNL     1      -1.373  -2.146  -0.709  0.00  0.00    -0.029 A 
ATOM     30  C   UNL     1      -1.346  -0.765  -0.669  0.00  0.00    +0.008 A 
ATOM     31  C   UNL     1      -2.580  -2.861  -1.259  0.00  0.00    +0.045 C 
ATOM     32  C   UNL     1       2.002  -2.997   0.779  0.00  0.00    +0.045 C 
ENDBRANCH  20  28
ENDBRANCH  18  21
ENDBRANCH   1  18
TORSDOF 5
