REMARK  Name = ZINC09790698
REMARK  12 active torsions:
REMARK  status: ('A' for Active; 'I' for Inactive)
REMARK    1  A    between atoms: C_1  and  C_2
REMARK    2  A    between atoms: C_2  and  C_4
REMARK    3  A    between atoms: C_2  and  N_63
REMARK    4  A    between atoms: C_7  and  S_16
REMARK    5  A    between atoms: N_8  and  C_9
REMARK    6  A    between atoms: S_16  and  C_17
REMARK    7  A    between atoms: C_17  and  C_19
REMARK    8  A    between atoms: C_17  and  C_20
REMARK    9  A    between atoms: N_22  and  C_23
REMARK   10  A    between atoms: C_28  and  C_29
REMARK   11  A    between atoms: C_35  and  N_63
REMARK   12  A    between atoms: C_36  and  N_63
REMARK                            x       y       z     vdW  Elec       q    Type
REMARK                         _______ _______ _______ _____ _____    ______ ____
ROOT
ATOM      1  S   UNL     1      -1.078   3.771   0.596  0.00  0.00    -0.073 S 
ENDROOT
BRANCH   1   5
ATOM      2  C   UNL     1      -4.540   5.551   0.885  0.00  0.00    +0.125 A 
ATOM      3  N   UNL     1      -4.866   4.364   0.457  0.00  0.00    -0.135 NA
ATOM      4  N   UNL     1      -3.812   3.644   0.304  0.00  0.00    -0.122 NA
ATOM      5  C   UNL     1      -2.746   4.335   0.636  0.00  0.00    +0.197 A 
ATOM      6  N   UNL     1      -3.177   5.577   1.015  0.00  0.00    -0.275 N 
BRANCH   6   7
ATOM      7  C   UNL     1      -2.386   6.653   1.446  0.00  0.00    +0.050 A 
ATOM      8  C   UNL     1      -2.507   7.127   2.745  0.00  0.00    +0.029 A 
ATOM      9  C   UNL     1      -1.725   8.183   3.170  0.00  0.00    +0.040 A 
ATOM     10  C   UNL     1      -0.827   8.775   2.298  0.00  0.00    +0.124 A 
ATOM     11  C   UNL     1      -0.709   8.307   1.000  0.00  0.00    +0.040 A 
ATOM     12  C   UNL     1      -1.486   7.248   0.573  0.00  0.00    +0.029 A 
ATOM     13  F   UNL     1      -0.066   9.812   2.713  0.00  0.00    -0.205 F 
ENDBRANCH   6   7
BRANCH   2  15
ATOM     14  C   UNL     1      -6.213   6.412   2.500  0.00  0.00    -0.005 C 
ATOM     15  C   UNL     1      -5.487   6.685   1.181  0.00  0.00    -0.003 C 
BRANCH  15  18
ATOM     16  C   UNL     1      -7.411   7.897   0.350  0.00  0.00    -0.096 C 
ATOM     17  C   UNL     1      -5.802   6.969  -1.203  0.00  0.00    -0.096 C 
ATOM     18  N   UNL     1      -6.484   6.775   0.094  0.00  0.00    +0.382 N 
ATOM     19  H   UNL     1      -7.021   5.900   0.061  0.00  0.00    -0.082 HD
ENDBRANCH  15  18
ENDBRANCH   2  15
ENDBRANCH   1   5
BRANCH   1  20
ATOM     20  C   UNL     1      -1.332   2.079   0.005  0.00  0.00    +0.137 C 
ATOM     21  C   UNL     1      -1.895   2.114  -1.417  0.00  0.00    +0.029 C 
BRANCH  20  22
ATOM     22  C   UNL     1      -0.017   1.344   0.007  0.00  0.00    +0.230 C 
ATOM     23  O   UNL     1       1.026   1.964   0.007  0.00  0.00    -0.274 OA
ATOM     24  N   UNL     1       0.002  -0.004   0.002  0.00  0.00    -0.284 N 
ATOM     25  H   UNL     1      -0.827  -0.501   0.082  0.00  0.00    +0.155 HD
BRANCH  24  26
ATOM     26  C   UNL     1       1.216  -0.686  -0.119  0.00  0.00    +0.041 A 
ATOM     27  C   UNL     1       2.300  -0.074  -0.731  0.00  0.00    +0.024 A 
ATOM     28  C   UNL     1       3.501  -0.747  -0.844  0.00  0.00    +0.002 A 
ATOM     29  C   UNL     1       3.627  -2.038  -0.359  0.00  0.00    +0.001 A 
ATOM     30  C   UNL     1       2.555  -2.661   0.247  0.00  0.00    +0.010 A 
ATOM     31  C   UNL     1       1.341  -1.990   0.372  0.00  0.00    +0.003 A 
BRANCH  31  32
ATOM     32  C   UNL     1       0.186  -2.655   1.023  0.00  0.00    -0.016 A 
ATOM     33  C   UNL     1      -0.516  -2.004   2.036  0.00  0.00    +0.008 A 
ATOM     34  C   UNL     1      -1.594  -2.625   2.634  0.00  0.00    +0.001 A 
ATOM     35  C   UNL     1      -1.969  -3.897   2.239  0.00  0.00    +0.000 A 
ATOM     36  C   UNL     1      -1.272  -4.550   1.239  0.00  0.00    +0.001 A 
ATOM     37  C   UNL     1      -0.197  -3.936   0.629  0.00  0.00    +0.008 A 
ENDBRANCH  31  32
ENDBRANCH  24  26
ENDBRANCH  20  22
ENDBRANCH   1  20
TORSDOF 8
