REMARK  Name = ZINC02927177
REMARK  11 active torsions:
REMARK  status: ('A' for Active; 'I' for Inactive)
REMARK    1  A    between atoms: C_1  and  C_2
REMARK    2  A    between atoms: C_2  and  O_3
REMARK    3  A    between atoms: O_3  and  C_4
REMARK    4  A    between atoms: C_7  and  N_10
REMARK    5  A    between atoms: C_11  and  C_13
REMARK    6  A    between atoms: C_13  and  S_14
REMARK    7  A    between atoms: S_14  and  C_15
REMARK    8  A    between atoms: C_19  and  C_23
REMARK    9  A    between atoms: N_26  and  C_27
REMARK   10  A    between atoms: C_30  and  C_34
REMARK   11  A    between atoms: C_31  and  C_33
REMARK                            x       y       z     vdW  Elec       q    Type
REMARK                         _______ _______ _______ _____ _____    ______ ____
ROOT
ATOM      1  C   UNL     1      -4.603   2.493   2.243  0.00  0.00    +0.177 A 
ATOM      2  N   UNL     1      -3.578   2.577   3.056  0.00  0.00    -0.201 NA
ATOM      3  C   UNL     1      -2.333   2.250   2.679  0.00  0.00    +0.187 A 
ATOM      4  C   UNL     1      -2.100   1.796   1.374  0.00  0.00    +0.082 A 
ATOM      5  C   UNL     1      -0.726   1.522   1.264  0.00  0.00    +0.046 A 
ATOM      6  N   UNL     1      -0.158   1.803   2.405  0.00  0.00    -0.279 N 
ATOM      7  N   UNL     1      -1.127   2.251   3.311  0.00  0.00    -0.153 NA
ATOM      8  H   UNL     1       0.927   1.669   2.527  0.00  0.00    +0.189 HD
ATOM      9  C   UNL     1      -0.022   1.025   0.027  0.00  0.00    +0.066 C 
ATOM     10  C   UNL     1      -3.242   1.703   0.455  0.00  0.00    +0.124 A 
ATOM     11  N   UNL     1      -3.090   1.299  -0.782  0.00  0.00    -0.384 N 
ATOM     12  N   UNL     1      -4.488   2.056   0.951  0.00  0.00    -0.275 N 
ATOM     13  H   UNL     1      -3.961   1.238  -1.452  0.00  0.00    +0.157 HD
ATOM     14  H   UNL     1      -2.092   1.021  -1.152  0.00  0.00    +0.157 HD
ENDROOT
BRANCH  12  15
ATOM     15  C   UNL     1      -5.620   1.981   0.130  0.00  0.00    +0.051 A 
ATOM     16  C   UNL     1      -6.063   0.750  -0.334  0.00  0.00    +0.026 A 
ATOM     17  C   UNL     1      -7.183   0.679  -1.139  0.00  0.00    +0.005 A 
ATOM     18  C   UNL     1      -7.856   1.834  -1.493  0.00  0.00    -0.047 A 
ATOM     19  C   UNL     1      -7.414   3.062  -1.038  0.00  0.00    -0.046 A 
ATOM     20  C   UNL     1      -6.298   3.139  -0.227  0.00  0.00    +0.030 A 
ATOM     21  C   UNL     1      -8.150   4.318  -1.426  0.00  0.00    +0.044 C 
ATOM     22  C   UNL     1      -9.074   1.754  -2.377  0.00  0.00    +0.044 C 
ENDBRANCH  12  15
BRANCH   1  23
ATOM     23  S   UNL     1      -6.195   2.955   2.840  0.00  0.00    -0.078 S 
BRANCH  23  24
ATOM     24  C   UNL     1      -5.770   3.429   4.534  0.00  0.00    +0.173 C 
BRANCH  24  26
ATOM     25  N   UNL     1      -6.939   4.275   6.543  0.00  0.00    -0.285 N 
ATOM     26  C   UNL     1      -7.014   3.874   5.258  0.00  0.00    +0.227 C 
ATOM     27  O   UNL     1      -8.084   3.869   4.686  0.00  0.00    -0.275 OA
ATOM     28  H   UNL     1      -5.985   4.208   7.085  0.00  0.00    +0.155 HD
BRANCH  25  32
ATOM     29  C   UNL     1     -10.325   5.775   8.460  0.00  0.00    +0.121 A 
ATOM     30  C   UNL     1     -10.451   4.754   7.528  0.00  0.00    +0.047 A 
ATOM     31  C   UNL     1      -9.330   4.257   6.893  0.00  0.00    +0.027 A 
ATOM     32  C   UNL     1      -8.077   4.779   7.186  0.00  0.00    +0.034 A 
ATOM     33  C   UNL     1      -7.952   5.798   8.122  0.00  0.00    +0.027 A 
ATOM     34  C   UNL     1      -9.074   6.297   8.753  0.00  0.00    +0.047 A 
BRANCH  29  35
ATOM     35  O   UNL     1     -11.429   6.263   9.085  0.00  0.00    -0.492 OA
BRANCH  35  37
ATOM     36  C   UNL     1     -12.573   7.730  10.628  0.00  0.00    +0.048 C 
ATOM     37  C   UNL     1     -11.227   7.314  10.032  0.00  0.00    +0.225 C 
ENDBRANCH  35  37
ENDBRANCH  29  35
ENDBRANCH  25  32
ENDBRANCH  24  26
ENDBRANCH  23  24
ENDBRANCH   1  23
TORSDOF 7
