REMARK  Name = ZINC39694188
REMARK  6 active torsions:
REMARK  status: ('A' for Active; 'I' for Inactive)
REMARK    1  A    between atoms: N_4  and  C_6
REMARK    2  A    between atoms: C_10  and  C_12
REMARK    3  A    between atoms: C_12  and  N_13
REMARK    4  A    between atoms: C_14  and  C_16
REMARK    5  A    between atoms: C_27  and  C_29
REMARK    6  A    between atoms: C_32  and  C_34
REMARK                            x       y       z     vdW  Elec       q    Type
REMARK                         _______ _______ _______ _____ _____    ______ ____
ROOT
ATOM      1  C   UNL     1      -1.270  -6.970   3.002  0.00  0.00    +0.100 C 
ATOM      2  C   UNL     1      -0.042  -7.618   3.679  0.00  0.00    +0.121 C 
ATOM      3  N   UNL     1      -0.607  -8.692   4.530  0.00  0.00    -0.294 N 
ATOM      4  C   UNL     1      -1.699  -9.274   3.712  0.00  0.00    +0.115 C 
ATOM      5  C   UNL     1      -2.354  -8.060   3.024  0.00  0.00    -0.004 C 
ATOM      6  C   UNL     1      -2.770  -8.421   1.601  0.00  0.00    -0.010 C 
ATOM      7  C   UNL     1      -3.891  -9.464   1.651  0.00  0.00    -0.082 C 
ATOM      8  N   UNL     1      -5.035  -8.921   2.394  0.00  0.00    +0.379 N 
ATOM      9  C   UNL     1      -4.650  -8.663   3.787  0.00  0.00    -0.082 C 
ATOM     10  C   UNL     1      -3.562  -7.586   3.827  0.00  0.00    -0.010 C 
ATOM     11  C   UNL     1      -0.217  -9.058   5.767  0.00  0.00    +0.282 C 
ATOM     12  O   UNL     1      -0.786  -9.969   6.340  0.00  0.00    -0.267 OA
ATOM     13  H   UNL     1      -5.334  -8.058   1.964  0.00  0.00    -0.086 HD
ATOM     14  H   UNL     1      -5.793  -9.585   2.373  0.00  0.00    -0.086 HD
ENDROOT
BRANCH  11  15
ATOM     15  C   UNL     1       0.892  -8.360   6.422  0.00  0.00    +0.190 A 
ATOM     16  C   UNL     1       1.393  -8.634   7.676  0.00  0.00    +0.055 A 
ATOM     17  C   UNL     1       2.438  -7.732   7.898  0.00  0.00    +0.050 A 
ATOM     18  C   UNL     1       2.537  -6.948   6.784  0.00  0.00    +0.136 A 
ATOM     19  O   UNL     1       1.604  -7.339   5.899  0.00  0.00    -0.450 OA
BRANCH  18  20
ATOM     20  C   UNL     1       3.510  -5.857   6.583  0.00  0.00    +0.017 A 
ATOM     21  C   UNL     1       4.441  -5.555   7.581  0.00  0.00    +0.014 A 
ATOM     22  C   UNL     1       5.348  -4.535   7.387  0.00  0.00    +0.039 A 
ATOM     23  C   UNL     1       5.338  -3.809   6.206  0.00  0.00    +0.123 A 
ATOM     24  C   UNL     1       4.417  -4.104   5.213  0.00  0.00    +0.039 A 
ATOM     25  C   UNL     1       3.509  -5.126   5.393  0.00  0.00    +0.014 A 
ATOM     26  F   UNL     1       6.229  -2.810   6.022  0.00  0.00    -0.205 F 
ENDBRANCH  18  20
ENDBRANCH  11  15
BRANCH   1  28
ATOM     27  N   UNL     1      -1.580  -5.549   1.001  0.00  0.00    -0.311 N 
ATOM     28  C   UNL     1      -0.943  -6.585   1.582  0.00  0.00    +0.218 C 
ATOM     29  O   UNL     1      -0.106  -7.206   0.962  0.00  0.00    -0.275 OA
ATOM     30  H   UNL     1      -2.250  -5.052   1.497  0.00  0.00    +0.149 HD
BRANCH  27  31
ATOM     31  C   UNL     1      -1.262  -5.174  -0.379  0.00  0.00    +0.139 C 
BRANCH  31  36
ATOM     32  C   UNL     1      -4.120  -3.113  -1.746  0.00  0.00    +0.046 A 
ATOM     33  C   UNL     1      -3.654  -1.823  -1.534  0.00  0.00    +0.026 A 
ATOM     34  C   UNL     1      -2.419  -1.624  -0.949  0.00  0.00    +0.002 A 
ATOM     35  C   UNL     1      -1.646  -2.709  -0.576  0.00  0.00    +0.005 A 
ATOM     36  C   UNL     1      -2.108  -3.995  -0.787  0.00  0.00    -0.028 A 
ATOM     37  C   UNL     1      -3.345  -4.200  -1.366  0.00  0.00    +0.031 A 
BRANCH  32  41
ATOM     38  C   UNL     1      -7.146  -4.320  -3.171  0.00  0.00    +0.019 A 
ATOM     39  C   UNL     1      -7.326  -2.926  -3.272  0.00  0.00    +0.019 A 
ATOM     40  C   UNL     1      -6.228  -2.337  -2.756  0.00  0.00    +0.091 A 
ATOM     41  N   UNL     1      -5.374  -3.318  -2.340  0.00  0.00    -0.323 N 
ATOM     42  C   UNL     1      -5.944  -4.532  -2.597  0.00  0.00    +0.091 A 
ENDBRANCH  32  41
ENDBRANCH  31  36
ENDBRANCH  27  31
ENDBRANCH   1  28
TORSDOF 6
