REMARK  Name = ZINC49008775
REMARK  7 active torsions:
REMARK  status: ('A' for Active; 'I' for Inactive)
REMARK    1  A    between atoms: C_1  and  C_2
REMARK    2  A    between atoms: C_7  and  N_10
REMARK    3  A    between atoms: N_10  and  C_11
REMARK    4  A    between atoms: N_10  and  C_12
REMARK    5  A    between atoms: C_12  and  C_13
REMARK    6  A    between atoms: N_15  and  C_16
REMARK    7  A    between atoms: C_19  and  N_23
REMARK                            x       y       z     vdW  Elec       q    Type
REMARK                         _______ _______ _______ _____ _____    ______ ____
ROOT
ATOM      1  C   UNL     1       2.853  -0.596   4.847  0.00  0.00    +0.201 C 
ATOM      2  O   UNL     1       3.804  -1.338   4.721  0.00  0.00    -0.278 OA
ATOM      3  N   UNL     1       2.389  -0.297   6.077  0.00  0.00    -0.286 N 
ATOM      4  H   UNL     1       1.682   0.358   6.183  0.00  0.00    +0.155 HD
ENDROOT
BRANCH   3   5
ATOM      5  C   UNL     1       2.930  -0.934   7.203  0.00  0.00    +0.052 A 
ATOM      6  C   UNL     1       3.528  -2.181   7.075  0.00  0.00    +0.026 A 
ATOM      7  C   UNL     1       4.060  -2.808   8.184  0.00  0.00    +0.024 A 
ATOM      8  C   UNL     1       3.997  -2.193   9.428  0.00  0.00    +0.026 A 
ATOM      9  C   UNL     1       3.399  -0.946   9.556  0.00  0.00    +0.044 A 
ATOM     10  C   UNL     1       2.872  -0.316   8.446  0.00  0.00    +0.064 A 
ATOM     11 CL   UNL     1       2.130   1.246   8.605  0.00  0.00    -0.082 Cl
BRANCH   8  12
ATOM     12  N   UNL     1       4.536  -2.830  10.551  0.00  0.00    -0.358 N 
ATOM     13  H   UNL     1       4.953  -3.701  10.461  0.00  0.00    +0.142 HD
ATOM     14  H   UNL     1       4.492  -2.400  11.420  0.00  0.00    +0.142 HD
ENDBRANCH   8  12
ENDBRANCH   3   5
BRANCH   1  15
ATOM     15  C   UNL     1       2.190  -0.006   3.629  0.00  0.00    +0.019 C 
BRANCH  15  16
ATOM     16  N   UNL     1       2.877  -0.481   2.420  0.00  0.00    +0.385 N 
ATOM     17  C   UNL     1       4.252   0.036   2.403  0.00  0.00    -0.095 C 
ATOM     18  H   UNL     1       2.896  -1.490   2.419  0.00  0.00    -0.081 HD
BRANCH  16  24
ATOM     19  C   UNL     1      -0.050   1.485   0.011  0.00  0.00    +0.007 C 
ATOM     20  C   UNL     1      -0.020  -0.045   0.009  0.00  0.00    -0.016 C 
ATOM     21  C   UNL     1       0.695  -0.539  -1.250  0.00  0.00    +0.003 C 
ATOM     22  C   UNL     1       2.127  -0.001  -1.268  0.00  0.00    -0.001 C 
ATOM     23  C   UNL     1       2.874  -0.498  -0.029  0.00  0.00    -0.015 C 
ATOM     24  C   UNL     1       2.159  -0.004   1.230  0.00  0.00    -0.068 C 
ATOM     25  C   UNL     1       0.727  -0.542   1.248  0.00  0.00    -0.012 C 
ENDBRANCH  16  24
ENDBRANCH  15  16
ENDBRANCH   1  15
TORSDOF 5
