REMARK  Name = ZINC65421452
REMARK  11 active torsions:
REMARK  status: ('A' for Active; 'I' for Inactive)
REMARK    1  A    between atoms: C_1  and  C_2
REMARK    2  A    between atoms: C_2  and  C_3
REMARK    3  A    between atoms: C_3  and  C_4
REMARK    4  A    between atoms: C_3  and  C_6
REMARK    5  A    between atoms: C_3  and  N_8
REMARK    6  A    between atoms: C_4  and  O_5
REMARK    7  A    between atoms: C_6  and  O_7
REMARK    8  A    between atoms: C_11  and  C_23
REMARK    9  A    between atoms: C_12  and  C_13
REMARK   10  A    between atoms: C_14  and  O_21
REMARK   11  A    between atoms: O_21  and  C_22
REMARK                            x       y       z     vdW  Elec       q    Type
REMARK                         _______ _______ _______ _____ _____    ______ ____
ROOT
ATOM      1  N   UNL     1      -0.325  -0.119  -2.400  0.00  0.00    -0.320 N 
ATOM      2  C   UNL     1      -1.456   0.576  -2.117  0.00  0.00    +0.175 A 
ATOM      3  N   UNL     1      -1.961   1.050  -3.221  0.00  0.00    -0.345 N 
ATOM      4  C   UNL     1      -1.188   0.688  -4.263  0.00  0.00    +0.072 A 
ATOM      5  C   UNL     1      -0.135  -0.054  -3.760  0.00  0.00    +0.081 A 
ATOM      6  H   UNL     1      -2.770   1.582  -3.283  0.00  0.00    +0.167 HD
ENDROOT
BRANCH   5   7
ATOM      7  C   UNL     1       0.969  -0.659  -4.530  0.00  0.00    +0.080 A 
ATOM      8  C   UNL     1       2.121   0.086  -4.813  0.00  0.00    +0.132 A 
ATOM      9  C   UNL     1       3.153  -0.489  -5.535  0.00  0.00    +0.049 A 
ATOM     10  C   UNL     1       3.047  -1.795  -5.978  0.00  0.00    +0.045 A 
ATOM     11  C   UNL     1       1.911  -2.538  -5.703  0.00  0.00    +0.159 A 
ATOM     12  C   UNL     1       0.874  -1.980  -4.976  0.00  0.00    +0.171 A 
ATOM     13  F   UNL     1      -0.231  -2.709  -4.704  0.00  0.00    -0.202 F 
ATOM     14  F   UNL     1       1.818  -3.813  -6.140  0.00  0.00    -0.202 F 
BRANCH   8  15
ATOM     15  O   UNL     1       2.226   1.370  -4.380  0.00  0.00    -0.494 OA
ATOM     16  C   UNL     1       3.429   2.068  -4.705  0.00  0.00    +0.277 C 
ENDBRANCH   8  15
ENDBRANCH   5   7
BRANCH   4  17
ATOM     17  C   UNL     1      -1.421   1.027  -5.686  0.00  0.00    +0.000 A 
ATOM     18  C   UNL     1      -1.292   0.047  -6.669  0.00  0.00    +0.010 A 
ATOM     19  C   UNL     1      -1.509   0.369  -7.993  0.00  0.00    +0.001 A 
ATOM     20  C   UNL     1      -1.855   1.662  -8.346  0.00  0.00    +0.000 A 
ATOM     21  C   UNL     1      -1.984   2.639  -7.375  0.00  0.00    +0.001 A 
ATOM     22  C   UNL     1      -1.775   2.327  -6.047  0.00  0.00    +0.010 A 
ENDBRANCH   4  17
BRANCH   1  23
ATOM     23  C   UNL     1       0.537  -0.805  -1.434  0.00  0.00    +0.092 C 
BRANCH  23  25
ATOM     24  C   UNL     1      -0.944  -2.799  -1.702  0.00  0.00    +0.006 C 
ATOM     25  C   UNL     1       0.506  -2.311  -1.702  0.00  0.00    +0.030 C 
ENDBRANCH  23  25
BRANCH  23  26
ATOM     26  C   UNL     1       0.034  -0.529  -0.015  0.00  0.00    +0.186 C 
BRANCH  26  27
ATOM     27  O   UNL     1       0.875  -1.198   0.926  0.00  0.00    -0.393 OA
ATOM     28  H   UNL     1       0.615  -1.067   1.849  0.00  0.00    +0.209 HD
ENDBRANCH  26  27
ENDBRANCH  23  26
BRANCH  23  29
ATOM     29  C   UNL     1       1.971  -0.291  -1.575  0.00  0.00    +0.186 C 
BRANCH  29  30
ATOM     30  O   UNL     1       1.982   1.133  -1.448  0.00  0.00    -0.393 OA
ATOM     31  H   UNL     1       2.861   1.528  -1.528  0.00  0.00    +0.209 HD
ENDBRANCH  29  30
ENDBRANCH  23  29
ENDBRANCH   1  23
TORSDOF 9
