REMARK  Name = ZINC40700953
REMARK  5 active torsions:
REMARK  status: ('A' for Active; 'I' for Inactive)
REMARK    1  A    between atoms: C_1  and  N_2
REMARK    2  A    between atoms: N_2  and  C_3
REMARK    3  A    between atoms: C_10  and  N_24
REMARK    4  A    between atoms: C_11  and  N_15
REMARK    5  A    between atoms: N_15  and  C_16
REMARK                            x       y       z     vdW  Elec       q    Type
REMARK                         _______ _______ _______ _____ _____    ______ ____
ROOT
ATOM      1  C   UNL     1       0.037   0.491   0.786  0.00  0.00    +0.137 C 
ATOM      2  N   UNL     1      -1.073   0.533  -0.170  0.00  0.00    -0.287 N 
ATOM      3  C   UNL     1      -1.008  -0.208  -1.345  0.00  0.00    +0.151 A 
ATOM      4  C   UNL     1      -0.375   0.311  -2.476  0.00  0.00    +0.104 A 
ATOM      5  C   UNL     1      -0.338  -0.475  -3.629  0.00  0.00    +0.126 A 
ATOM      6  N   UNL     1      -0.902  -1.680  -3.607  0.00  0.00    -0.333 N 
ATOM      7  C   UNL     1      -1.489  -2.132  -2.518  0.00  0.00    +0.200 A 
ATOM      8  N   UNL     1      -1.542  -1.425  -1.407  0.00  0.00    -0.220 NA
ATOM      9  H   UNL     1      -0.881  -2.233  -4.404  0.00  0.00    +0.168 HD
ENDROOT
BRANCH   2  10
ATOM     10  C   UNL     1      -2.198   1.317   0.099  0.00  0.00    +0.035 A 
ATOM     11  C   UNL     1      -3.289   1.288  -0.760  0.00  0.00    +0.023 A 
ATOM     12  C   UNL     1      -4.399   2.064  -0.490  0.00  0.00    +0.002 A 
ATOM     13  C   UNL     1      -4.425   2.871   0.633  0.00  0.00    +0.000 A 
ATOM     14  C   UNL     1      -3.340   2.902   1.490  0.00  0.00    +0.002 A 
ATOM     15  C   UNL     1      -2.229   2.124   1.230  0.00  0.00    +0.023 A 
ENDBRANCH   2  10
BRANCH   4  16
ATOM     16  N   UNL     1       0.207   1.589  -2.455  0.00  0.00    -0.353 N 
ATOM     17  H   UNL     1       0.107   2.154  -1.673  0.00  0.00    +0.143 HD
ATOM     18  H   UNL     1       0.708   1.906  -3.222  0.00  0.00    +0.143 HD
ENDBRANCH   4  16
BRANCH   5  19
ATOM     19  N   UNL     1       0.279  -0.005  -4.784  0.00  0.00    -0.299 N 
ATOM     20  H   UNL     1       0.770   0.831  -4.766  0.00  0.00    +0.154 HD
BRANCH  19  21
ATOM     21  C   UNL     1       0.191  -0.739  -5.970  0.00  0.00    +0.035 A 
ATOM     22  C   UNL     1      -0.994  -1.379  -6.306  0.00  0.00    +0.043 A 
ATOM     23  C   UNL     1      -1.078  -2.103  -7.481  0.00  0.00    +0.044 A 
ATOM     24  C   UNL     1       0.018  -2.191  -8.321  0.00  0.00    +0.040 A 
ATOM     25  C   UNL     1       1.200  -1.554  -7.989  0.00  0.00    +0.044 A 
ATOM     26  C   UNL     1       1.288  -0.823  -6.819  0.00  0.00    +0.043 A 
ATOM     27 CL   UNL     1       2.573  -1.666  -9.046  0.00  0.00    -0.083 Cl
ATOM     28 CL   UNL     1      -2.560  -2.904  -7.901  0.00  0.00    -0.083 Cl
ENDBRANCH  19  21
ENDBRANCH   5  19
TORSDOF 4
