REMARK  Name = ZINC37359651
REMARK  8 active torsions:
REMARK  status: ('A' for Active; 'I' for Inactive)
REMARK    1  A    between atoms: C_1  and  N_2
REMARK    2  A    between atoms: N_2  and  C_3
REMARK    3  A    between atoms: N_2  and  C_4
REMARK    4  A    between atoms: C_4  and  C_5
REMARK    5  A    between atoms: C_5  and  N_6
REMARK    6  A    between atoms: C_9  and  C_24
REMARK    7  A    between atoms: C_11  and  N_23
REMARK    8  A    between atoms: N_12  and  C_16
REMARK                            x       y       z     vdW  Elec       q    Type
REMARK                         _______ _______ _______ _____ _____    ______ ____
ROOT
ATOM      1  N   UNL     1      -2.699  -2.560   0.263  0.00  0.00    -0.315 N 
ATOM      2  C   UNL     1      -2.967  -3.860  -0.127  0.00  0.00    +0.218 A 
ATOM      3  N   UNL     1      -4.236  -4.254  -0.170  0.00  0.00    -0.214 NA
ATOM      4  C   UNL     1      -4.582  -5.483  -0.533  0.00  0.00    +0.091 A 
ATOM      5  C   UNL     1      -3.557  -6.391  -0.882  0.00  0.00    +0.086 A 
ATOM      6  C   UNL     1      -3.500  -7.715  -1.300  0.00  0.00    +0.131 A 
ATOM      7  N   UNL     1      -2.202  -8.028  -1.480  0.00  0.00    -0.216 N 
ATOM      8  N   UNL     1      -1.400  -6.920  -1.184  0.00  0.00    -0.144 NA
ATOM      9  C   UNL     1      -2.164  -5.913  -0.821  0.00  0.00    +0.189 A 
ATOM     10  N   UNL     1      -1.952  -4.638  -0.440  0.00  0.00    -0.193 NA
ATOM     11  H   UNL     1      -3.427  -1.965   0.500  0.00  0.00    +0.149 HD
ENDROOT
BRANCH   4  12
ATOM     12  C   UNL     1      -6.003  -5.892  -0.571  0.00  0.00    +0.037 A 
ATOM     13  C   UNL     1      -6.439  -6.982   0.184  0.00  0.00    +0.016 A 
ATOM     14  C   UNL     1      -7.764  -7.359   0.146  0.00  0.00    +0.039 A 
ATOM     15  C   UNL     1      -8.666  -6.658  -0.641  0.00  0.00    +0.126 A 
ATOM     16  C   UNL     1      -8.241  -5.575  -1.393  0.00  0.00    +0.077 A 
ATOM     17  C   UNL     1      -6.916  -5.184  -1.358  0.00  0.00    +0.135 A 
ATOM     18  F   UNL     1      -6.503  -4.125  -2.087  0.00  0.00    -0.205 F 
ATOM     19  F   UNL     1      -9.963  -7.033  -0.675  0.00  0.00    -0.205 F 
ENDBRANCH   4  12
BRANCH   7  20
ATOM     20  C   UNL     1      -1.726  -9.276  -1.899  0.00  0.00    +0.070 A 
ATOM     21  C   UNL     1      -2.376 -10.438  -1.502  0.00  0.00    +0.028 A 
ATOM     22  C   UNL     1      -1.905 -11.668  -1.917  0.00  0.00    +0.005 A 
ATOM     23  C   UNL     1      -0.787 -11.745  -2.727  0.00  0.00    +0.038 A 
ATOM     24  C   UNL     1      -0.136 -10.590  -3.126  0.00  0.00    +0.125 A 
ATOM     25  C   UNL     1      -0.607  -9.354  -2.718  0.00  0.00    +0.066 A 
ATOM     26  F   UNL     1       0.956 -10.668  -3.917  0.00  0.00    -0.205 F 
ENDBRANCH   7  20
BRANCH   6  27
ATOM     27  N   UNL     1      -4.579  -8.557  -1.495  0.00  0.00    -0.342 N 
ATOM     28  H   UNL     1      -5.480  -8.237  -1.333  0.00  0.00    +0.144 HD
ATOM     29  H   UNL     1      -4.434  -9.468  -1.796  0.00  0.00    +0.144 HD
ENDBRANCH   6  27
BRANCH   1  30
ATOM     30  C   UNL     1      -1.315  -2.083   0.319  0.00  0.00    +0.086 C 
BRANCH  30  31
ATOM     31  C   UNL     1      -1.297  -0.624   0.777  0.00  0.00    -0.061 C 
BRANCH  31  33
ATOM     32  C   UNL     1       0.102   1.288   1.155  0.00  0.00    -0.097 C 
ATOM     33  N   UNL     1       0.091  -0.145   0.833  0.00  0.00    +0.377 N 
ATOM     34  C   UNL     1       0.823  -0.886   1.869  0.00  0.00    -0.097 C 
ATOM     35  H   UNL     1       0.534  -0.292  -0.062  0.00  0.00    -0.083 HD
ENDBRANCH  31  33
ENDBRANCH  30  31
ENDBRANCH   1  30
TORSDOF 6
