REMARK  Name = ZINC09492370
REMARK  9 active torsions:
REMARK  status: ('A' for Active; 'I' for Inactive)
REMARK    1  A    between atoms: C_4  and  C_7
REMARK    2  A    between atoms: C_7  and  C_9
REMARK    3  A    between atoms: C_7  and  N_51
REMARK    4  A    between atoms: N_11  and  C_12
REMARK    5  A    between atoms: C_14  and  C_19
REMARK    6  A    between atoms: C_23  and  C_24
REMARK    7  A    between atoms: C_23  and  N_51
REMARK    8  A    between atoms: C_27  and  S_30
REMARK    9  A    between atoms: S_30  and  N_33
REMARK                            x       y       z     vdW  Elec       q    Type
REMARK                         _______ _______ _______ _____ _____    ______ ____
ROOT
ATOM      1  C   UNL     1      -3.658  -0.848   0.249  0.00  0.00    +0.048 C 
ENDROOT
BRANCH   1   5
ATOM      2  C   UNL     1      -3.501  -3.321   3.728  0.00  0.00    +0.000 A 
ATOM      3  C   UNL     1      -3.250  -3.864   2.482  0.00  0.00    +0.000 A 
ATOM      4  C   UNL     1      -3.301  -3.064   1.356  0.00  0.00    +0.002 A 
ATOM      5  C   UNL     1      -3.603  -1.720   1.477  0.00  0.00    -0.053 A 
ATOM      6  C   UNL     1      -3.848  -1.176   2.723  0.00  0.00    +0.002 A 
ATOM      7  C   UNL     1      -3.801  -1.977   3.849  0.00  0.00    +0.000 A 
ENDBRANCH   1   5
BRANCH   1   8
ATOM      8  C   UNL     1      -2.373  -0.070   0.127  0.00  0.00    +0.207 C 
ATOM      9  O   UNL     1      -2.395   1.143   0.134  0.00  0.00    -0.277 OA
ATOM     10  N   UNL     1      -1.200  -0.722   0.010  0.00  0.00    -0.285 N 
ATOM     11  H   UNL     1      -1.187  -1.689  -0.061  0.00  0.00    +0.155 HD
BRANCH  10  12
ATOM     12  C   UNL     1       0.001  -0.003  -0.009  0.00  0.00    +0.052 A 
ATOM     13  C   UNL     1       0.054   1.249  -0.608  0.00  0.00    +0.037 A 
ATOM     14  C   UNL     1       1.240   1.956  -0.625  0.00  0.00    +0.057 A 
ATOM     15  C   UNL     1       2.376   1.418  -0.047  0.00  0.00    +0.014 A 
ATOM     16  C   UNL     1       2.328   0.172   0.551  0.00  0.00    +0.022 A 
ATOM     17  C   UNL     1       1.144  -0.541   0.571  0.00  0.00    +0.062 A 
ATOM     18 CL   UNL     1       1.084  -2.105   1.321  0.00  0.00    -0.082 Cl
BRANCH  14  19
ATOM     19  C   UNL     1       1.297   3.314  -1.274  0.00  0.00    +0.417 C 
ATOM     20  F   UNL     1       0.996   4.298  -0.327  0.00  0.00    -0.166 F 
ATOM     21  F   UNL     1       2.582   3.534  -1.782  0.00  0.00    -0.166 F 
ATOM     22  F   UNL     1       0.367   3.371  -2.318  0.00  0.00    -0.166 F 
ENDBRANCH  14  19
ENDBRANCH  10  12
ENDBRANCH   1   8
BRANCH   1  23
ATOM     23  N   UNL     1      -4.786   0.096   0.366  0.00  0.00    +0.392 N 
ATOM     24  H   UNL     1      -4.593   0.927  -0.205  0.00  0.00    -0.084 HD
ATOM     25  H   UNL     1      -4.894   0.374   1.349  0.00  0.00    -0.084 HD
BRANCH  23  26
ATOM     26  C   UNL     1      -6.034  -0.537  -0.101  0.00  0.00    -0.045 C 
BRANCH  26  27
ATOM     27  C   UNL     1      -7.167   0.449   0.031  0.00  0.00    -0.064 A 
ATOM     28  C   UNL     1      -7.905   0.502   1.198  0.00  0.00    +0.003 A 
ATOM     29  C   UNL     1      -8.941   1.409   1.320  0.00  0.00    +0.029 A 
ATOM     30  C   UNL     1      -9.244   2.257   0.271  0.00  0.00    +0.105 A 
ATOM     31  C   UNL     1      -8.510   2.200  -0.898  0.00  0.00    +0.029 A 
ATOM     32  C   UNL     1      -7.471   1.296  -1.019  0.00  0.00    +0.003 A 
BRANCH  30  33
ATOM     33  S   UNL     1     -10.568   3.410   0.425  0.00  0.00    +0.056 S 
ATOM     34  O   UNL     1     -10.747   3.639   1.816  0.00  0.00    -0.153 OA
ATOM     35  O   UNL     1     -10.299   4.462  -0.492  0.00  0.00    -0.153 OA
BRANCH  33  36
ATOM     36  N   UNL     1     -11.940   2.654  -0.111  0.00  0.00    -0.204 NA
ATOM     37  H   UNL     1     -11.898   1.739  -0.429  0.00  0.00    +0.144 HD
ATOM     38  H   UNL     1     -12.787   3.127  -0.107  0.00  0.00    +0.144 HD
ENDBRANCH  33  36
ENDBRANCH  30  33
ENDBRANCH  26  27
ENDBRANCH  23  26
ENDBRANCH   1  23
TORSDOF 9
