REMARK  Name = ZINC15745947
REMARK  5 active torsions:
REMARK  status: ('A' for Active; 'I' for Inactive)
REMARK    1  A    between atoms: C_1  and  N_2
REMARK    2  A    between atoms: N_2  and  C_3
REMARK    3  A    between atoms: C_9  and  C_11
REMARK    4  A    between atoms: C_17  and  C_26
REMARK    5  A    between atoms: C_20  and  C_22
REMARK                            x       y       z     vdW  Elec       q    Type
REMARK                         _______ _______ _______ _____ _____    ______ ____
ROOT
ATOM      1  C   UNL     1      -0.109   0.020  -2.458  0.00  0.00    +0.096 A 
ATOM      2  C   UNL     1       0.075   1.416  -2.629  0.00  0.00    +0.149 A 
ATOM      3  N   UNL     1      -0.011   1.687  -3.904  0.00  0.00    -0.177 NA
ATOM      4  N   UNL     1      -0.251   0.508  -4.607  0.00  0.00    -0.238 N 
ATOM      5  C   UNL     1      -0.305  -0.513  -3.718  0.00  0.00    +0.130 A 
ATOM      6  N   UNL     1      -0.527  -1.826  -4.093  0.00  0.00    -0.322 N 
ATOM      7  C   UNL     1      -0.985  -2.039  -5.481  0.00  0.00    +0.104 C 
ATOM      8  C   UNL     1      -0.162  -1.138  -6.408  0.00  0.00    +0.063 C 
ATOM      9  C   UNL     1      -0.416   0.335  -6.054  0.00  0.00    +0.215 C 
ATOM     10  H   UNL     1      -0.390  -2.564  -3.480  0.00  0.00    +0.148 HD
ENDROOT
BRANCH   7  11
ATOM     11  C   UNL     1      -0.787  -3.483  -5.863  0.00  0.00    -0.024 A 
ATOM     12  C   UNL     1       0.353  -4.153  -5.459  0.00  0.00    +0.009 A 
ATOM     13  C   UNL     1       0.540  -5.478  -5.807  0.00  0.00    +0.050 A 
ATOM     14  C   UNL     1      -0.416  -6.138  -6.562  0.00  0.00    +0.166 A 
ATOM     15  C   UNL     1      -1.565  -5.463  -6.969  0.00  0.00    +0.167 A 
ATOM     16  C   UNL     1      -1.747  -4.137  -6.612  0.00  0.00    +0.055 A 
ATOM     17  O   UNL     1      -2.341  -6.321  -7.693  0.00  0.00    -0.453 OA
ATOM     18  C   UNL     1      -1.470  -7.403  -8.071  0.00  0.00    +0.466 C 
ATOM     19  O   UNL     1      -0.474  -7.418  -7.031  0.00  0.00    -0.453 OA
ENDBRANCH   7  11
BRANCH   1  22
ATOM     20  C   UNL     1      -1.231   1.164  -0.141  0.00  0.00    +0.132 C 
ATOM     21  N   UNL     1      -0.574  -0.144  -0.070  0.00  0.00    -0.297 N 
ATOM     22  C   UNL     1      -0.089  -0.717  -1.189  0.00  0.00    +0.251 C 
ATOM     23  O   UNL     1       0.365  -1.845  -1.148  0.00  0.00    -0.270 OA
BRANCH  21  24
ATOM     24  C   UNL     1      -0.445  -0.829   1.219  0.00  0.00    +0.076 C 
ATOM     25  C   UNL     1      -1.835  -1.081   1.804  0.00  0.00    +0.022 C 
ATOM     26  C   UNL     1      -1.700  -1.797   3.150  0.00  0.00    +0.002 C 
ATOM     27  C   UNL     1      -0.892  -0.924   4.113  0.00  0.00    +0.000 C 
ATOM     28  C   UNL     1       0.499  -0.672   3.527  0.00  0.00    +0.002 C 
ATOM     29  C   UNL     1       0.363   0.044   2.181  0.00  0.00    +0.022 C 
ENDBRANCH  21  24
ENDBRANCH   1  22
BRANCH   9  30
ATOM     30  C   UNL     1       0.598   1.210  -6.794  0.00  0.00    +0.412 C 
ATOM     31  F   UNL     1       1.894   0.835  -6.426  0.00  0.00    -0.168 F 
ATOM     32  F   UNL     1       0.438   1.043  -8.174  0.00  0.00    -0.168 F 
ATOM     33  F   UNL     1       0.388   2.551  -6.459  0.00  0.00    -0.168 F 
ENDBRANCH   9  30
TORSDOF 4
