REMARK  Name = ZINC32505816
REMARK  10 active torsions:
REMARK  status: ('A' for Active; 'I' for Inactive)
REMARK    1  A    between atoms: C_1  and  O_2
REMARK    2  A    between atoms: O_2  and  C_3
REMARK    3  A    between atoms: C_5  and  O_31
REMARK    4  A    between atoms: C_8  and  N_9
REMARK    5  A    between atoms: N_21  and  C_22
REMARK    6  A    between atoms: C_22  and  C_24
REMARK    7  A    between atoms: C_24  and  C_25
REMARK    8  A    between atoms: C_25  and  C_26
REMARK    9  A    between atoms: C_26  and  C_27
REMARK   10  A    between atoms: O_31  and  C_32
REMARK                            x       y       z     vdW  Elec       q    Type
REMARK                         _______ _______ _______ _____ _____    ______ ____
ROOT
ATOM      1  N   UNL     1      -2.473   4.477   0.050  0.00  0.00    -0.273 N 
ATOM      2  C   UNL     1      -3.152   4.862  -1.146  0.00  0.00    +0.116 C 
ATOM      3  C   UNL     1      -2.790   4.411  -2.551  0.00  0.00    +0.190 C 
ATOM      4  S   UNL     1      -4.301   4.932  -3.486  0.00  0.00    -0.028 S 
ATOM      5  O   UNL     1      -4.890   3.789  -4.091  0.00  0.00    -0.174 OA
ATOM      6  O   UNL     1      -3.985   6.064  -4.285  0.00  0.00    -0.174 OA
ATOM      7  C   UNL     1      -5.358   5.475  -2.061  0.00  0.00    +0.182 C 
ATOM      8  C   UNL     1      -4.699   4.644  -0.952  0.00  0.00    +0.097 C 
ATOM      9  S   UNL     1      -4.746   5.391   0.715  0.00  0.00    -0.086 S 
ATOM     10  C   UNL     1      -3.114   4.836   1.232  0.00  0.00    +0.154 C 
ATOM     11  N   UNL     1      -2.629   4.781   2.467  0.00  0.00    -0.159 NA
ENDROOT
BRANCH   1  17
ATOM     12  C   UNL     1      -0.052   4.506   0.026  0.00  0.00    +0.145 A 
ATOM     13  C   UNL     1       1.155   3.828   0.011  0.00  0.00    +0.094 A 
ATOM     14  C   UNL     1       1.172   2.441   0.004  0.00  0.00    +0.142 A 
ATOM     15  C   UNL     1      -0.021   1.732   0.012  0.00  0.00    +0.084 A 
ATOM     16  C   UNL     1      -1.228   2.406   0.021  0.00  0.00    +0.050 A 
ATOM     17  C   UNL     1      -1.249   3.793   0.034  0.00  0.00    +0.079 A 
ATOM     18 CL   UNL     1       0.002  -0.004   0.002  0.00  0.00    -0.080 Cl
BRANCH  12  20
ATOM     19  C   UNL     1       1.195   6.530   0.023  0.00  0.00    +0.277 C 
ATOM     20  O   UNL     1      -0.070   5.865   0.033  0.00  0.00    -0.493 OA
ENDBRANCH  12  20
BRANCH  14  21
ATOM     21  O   UNL     1       2.358   1.776  -0.011  0.00  0.00    -0.494 OA
ATOM     22  C   UNL     1       3.546   2.569  -0.018  0.00  0.00    +0.277 C 
ENDBRANCH  14  21
ENDBRANCH   1  17
BRANCH  11  23
ATOM     23  C   UNL     1      -3.381   5.166   3.495  0.00  0.00    +0.238 C 
ATOM     24  O   UNL     1      -4.513   5.567   3.303  0.00  0.00    -0.274 OA
BRANCH  23  25
ATOM     25  C   UNL     1      -2.830   5.104   4.896  0.00  0.00    +0.098 C 
BRANCH  25  26
ATOM     26  C   UNL     1      -3.890   5.599   5.883  0.00  0.00    +0.020 C 
BRANCH  26  27
ATOM     27  C   UNL     1      -3.331   5.536   7.306  0.00  0.00    +0.125 C 
BRANCH  27  28
ATOM     28  C   UNL     1      -4.375   6.024   8.277  0.00  0.00    +0.356 C 
ATOM     29  O   UNL     1      -5.455   6.384   7.873  0.00  0.00    -0.246 OA
ATOM     30  O   UNL     1      -4.105   6.058   9.592  0.00  0.00    -0.246 OA
ENDBRANCH  27  28
ENDBRANCH  26  27
ENDBRANCH  25  26
ENDBRANCH  23  25
ENDBRANCH  11  23
TORSDOF 8
