REMARK  Name = ZINC66908769
REMARK  6 active torsions:
REMARK  status: ('A' for Active; 'I' for Inactive)
REMARK    1  A    between atoms: C_10  and  C_11
REMARK    2  A    between atoms: C_10  and  O_27
REMARK    3  A    between atoms: C_11  and  N_12
REMARK    4  A    between atoms: N_15  and  C_16
REMARK    5  A    between atoms: C_16  and  C_17
REMARK    6  A    between atoms: C_17  and  C_18
REMARK                            x       y       z     vdW  Elec       q    Type
REMARK                         _______ _______ _______ _____ _____    ______ ____
ROOT
ATOM      1  N   UNL     1       4.837   1.444   0.478  0.00  0.00    -0.296 N 
ATOM      2  C   UNL     1       5.710   2.251   1.112  0.00  0.00    +0.300 C 
ATOM      3  O   UNL     1       6.375   1.822   2.035  0.00  0.00    -0.253 OA
ATOM      4  N   UNL     1       5.846   3.534   0.723  0.00  0.00    -0.299 N 
ATOM      5  H   UNL     1       4.306   1.786  -0.259  0.00  0.00    +0.150 HD
ATOM      6  H   UNL     1       5.316   3.877  -0.014  0.00  0.00    +0.150 HD
ENDROOT
BRANCH   1   7
ATOM      7  C   UNL     1       4.689   0.049   0.901  0.00  0.00    +0.145 C 
BRANCH   7  17
ATOM      8  C   UNL     1       3.502  -4.769   1.163  0.00  0.00    +0.000 A 
ATOM      9  C   UNL     1       3.495  -3.749   2.096  0.00  0.00    +0.000 A 
ATOM     10  C   UNL     1       3.578  -2.438   1.677  0.00  0.00    +0.007 A 
ATOM     11  C   UNL     1       3.670  -2.133   0.325  0.00  0.00    -0.011 A 
ATOM     12  C   UNL     1       3.682  -3.149  -0.604  0.00  0.00    -0.041 A 
ATOM     13  C   UNL     1       3.594  -4.469  -0.180  0.00  0.00    +0.004 A 
ATOM     14  C   UNL     1       3.796  -2.893  -2.084  0.00  0.00    +0.035 C 
ATOM     15  C   UNL     1       3.451  -1.440  -2.406  0.00  0.00    +0.008 C 
ATOM     16  C   UNL     1       4.277  -0.532  -1.488  0.00  0.00    +0.041 C 
ATOM     17  C   UNL     1       3.750  -0.679  -0.063  0.00  0.00    +0.107 C 
BRANCH  17  18
ATOM     18  O   UNL     1       2.447  -0.097   0.020  0.00  0.00    -0.382 OA
ATOM     19  H   UNL     1       2.054  -0.138   0.902  0.00  0.00    +0.211 HD
ENDBRANCH  17  18
ENDBRANCH   7  17
ENDBRANCH   1   7
BRANCH   4  20
ATOM     20  C   UNL     1       6.795   4.412   1.412  0.00  0.00    +0.112 C 
BRANCH  20  21
ATOM     21  C   UNL     1       6.754   5.805   0.779  0.00  0.00    +0.073 C 
BRANCH  21  22
ATOM     22  C   UNL     1       7.730   6.707   1.488  0.00  0.00    +0.035 A 
ATOM     23  C   UNL     1       7.490   7.400   2.620  0.00  0.00    +0.108 A 
ATOM     24  N   UNL     1       8.634   8.081   2.913  0.00  0.00    -0.336 N 
ATOM     25  C   UNL     1       9.540   7.784   1.950  0.00  0.00    +0.087 A 
ATOM     26  N   UNL     1       8.993   6.958   1.107  0.00  0.00    -0.347 N 
ATOM     27  C   UNL     1      10.943   8.342   1.910  0.00  0.00    +0.072 C 
ATOM     28  C   UNL     1      11.006   9.548   2.856  0.00  0.00    +0.009 C 
ATOM     29  C   UNL     1      10.394   9.163   4.206  0.00  0.00    +0.022 C 
ATOM     30  C   UNL     1       8.882   8.975   4.046  0.00  0.00    +0.123 C 
ATOM     31  H   UNL     1       9.428   6.584   0.325  0.00  0.00    +0.167 HD
ENDBRANCH  21  22
ENDBRANCH  20  21
ENDBRANCH   4  20
TORSDOF 6
