REMARK  Name = ZINC20562325
REMARK  10 active torsions:
REMARK  status: ('A' for Active; 'I' for Inactive)
REMARK    1  A    between atoms: C_1  and  C_2
REMARK    2  A    between atoms: C_2  and  C_3
REMARK    3  A    between atoms: C_3  and  C_4
REMARK    4  A    between atoms: C_7  and  C_10
REMARK    5  A    between atoms: C_10  and  C_12
REMARK    6  A    between atoms: C_10  and  N_13
REMARK    7  A    between atoms: N_13  and  C_14
REMARK    8  A    between atoms: C_14  and  C_15
REMARK    9  A    between atoms: C_15  and  N_17
REMARK   10  A    between atoms: C_20  and  C_23
REMARK                            x       y       z     vdW  Elec       q    Type
REMARK                         _______ _______ _______ _____ _____    ______ ____
ROOT
ATOM      1  C   UNL     1      -3.209  -8.803   2.051  0.00  0.00    +0.221 C 
ATOM      2  O   UNL     1      -3.738  -8.028   2.825  0.00  0.00    -0.276 OA
ENDROOT
BRANCH   1   3
ATOM      3  N   UNL     1      -3.425 -10.107   2.168  0.00  0.00    -0.158 NA
ATOM      4  C   UNL     1      -4.223 -10.568   3.133  0.00  0.00    +0.163 A 
ATOM      5  N   UNL     1      -4.554 -11.857   3.408  0.00  0.00    -0.335 N 
ATOM      6  C   UNL     1      -5.395 -12.114   4.453  0.00  0.00    +0.055 A 
ATOM      7  C   UNL     1      -5.845 -11.046   5.150  0.00  0.00    +0.074 A 
ATOM      8  S   UNL     1      -5.051  -9.692   4.304  0.00  0.00    -0.060 S 
ATOM      9  H   UNL     1      -4.199 -12.583   2.871  0.00  0.00    +0.168 HD
BRANCH   6  10
ATOM     10  C   UNL     1      -5.796 -13.494   4.806  0.00  0.00    -0.001 A 
ATOM     11  C   UNL     1      -5.309 -14.574   4.069  0.00  0.00    +0.011 A 
ATOM     12  C   UNL     1      -5.686 -15.859   4.403  0.00  0.00    +0.016 A 
ATOM     13  C   UNL     1      -6.545 -16.077   5.466  0.00  0.00    +0.018 A 
ATOM     14  C   UNL     1      -7.031 -15.009   6.201  0.00  0.00    +0.016 A 
ATOM     15  C   UNL     1      -6.657 -13.720   5.880  0.00  0.00    +0.011 A 
ATOM     16 BR   UNL     1      -7.057 -17.841   5.917  0.00  0.00    -0.050 Br
ENDBRANCH   6  10
ENDBRANCH   1   3
BRANCH   1  17
ATOM     17  C   UNL     1      -2.309  -8.283   0.960  0.00  0.00    +0.018 C 
BRANCH  17  18
ATOM     18  N   UNL     1      -2.233  -6.819   1.044  0.00  0.00    +0.389 N 
ATOM     19  H   UNL     1      -1.861  -6.552   1.943  0.00  0.00    -0.084 HD
ATOM     20  H   UNL     1      -3.157  -6.428   0.933  0.00  0.00    -0.084 HD
BRANCH  18  21
ATOM     21  C   UNL     1      -1.355  -6.312  -0.019  0.00  0.00    -0.043 C 
ATOM     22  C   UNL     1       0.073  -6.805   0.221  0.00  0.00    -0.009 C 
BRANCH  21  26
ATOM     23  C   UNL     1      -1.413  -2.041   0.005  0.00  0.00    -0.047 A 
ATOM     24  C   UNL     1      -1.409  -2.725  -1.196  0.00  0.00    +0.004 A 
ATOM     25  C   UNL     1      -1.391  -4.107  -1.204  0.00  0.00    +0.002 A 
ATOM     26  C   UNL     1      -1.375  -4.805  -0.011  0.00  0.00    -0.062 A 
ATOM     27  C   UNL     1      -1.378  -4.120   1.190  0.00  0.00    +0.002 A 
ATOM     28  C   UNL     1      -1.392  -2.738   1.198  0.00  0.00    +0.004 A 
BRANCH  23  29
ATOM     29  C   UNL     1      -1.433  -0.534   0.013  0.00  0.00    +0.035 C 
BRANCH  29  31
ATOM     30  C   UNL     1      -0.019   1.526   0.010  0.00  0.00    +0.004 C 
ATOM     31  C   UNL     1       0.002  -0.004   0.002  0.00  0.00    +0.001 C 
ENDBRANCH  29  31
ENDBRANCH  23  29
ENDBRANCH  21  26
ENDBRANCH  18  21
ENDBRANCH  17  18
ENDBRANCH   1  17
TORSDOF 8
