REMARK  Name = ZINC03984024
REMARK  2 active torsions:
REMARK  status: ('A' for Active; 'I' for Inactive)
REMARK    1  A    between atoms: C_5  and  C_8
REMARK    2  A    between atoms: C_11  and  C_21
REMARK                            x       y       z     vdW  Elec       q    Type
REMARK                         _______ _______ _______ _____ _____    ______ ____
ROOT
ATOM      1  C   UNL     1       1.147  -2.034   1.123  0.00  0.00    -0.041 C 
ATOM      2  C   UNL     1       1.497  -2.538  -0.281  0.00  0.00    +0.013 C 
ATOM      3  C   UNL     1       0.415  -2.067  -1.255  0.00  0.00    +0.089 C 
ATOM      4  C   UNL     1      -0.955  -2.574  -0.792  0.00  0.00    -0.055 C 
ATOM      5  C   UNL     1      -2.010  -2.064  -1.779  0.00  0.00    -0.015 C 
ATOM      6  C   UNL     1      -3.399  -2.531  -1.339  0.00  0.00    -0.003 C 
ATOM      7  C   UNL     1      -3.658  -2.025   0.084  0.00  0.00    -0.019 C 
ATOM      8  C   UNL     1      -2.560  -2.558   1.004  0.00  0.00    -0.078 C 
ATOM      9  N   UNL     1      -1.244  -2.078   0.557  0.00  0.00    +0.382 N 
ATOM     10  C   UNL     1      -0.234  -2.562   1.510  0.00  0.00    -0.077 C 
ATOM     11  H   UNL     1      -1.240  -1.069   0.553  0.00  0.00    -0.081 HD
ENDROOT
BRANCH   1  16
ATOM     12  C   UNL     1       2.471   1.553   0.676  0.00  0.00    -0.003 C 
ATOM     13  C   UNL     1       2.104   2.042   2.080  0.00  0.00    -0.019 C 
ATOM     14  C   UNL     1       0.757   1.442   2.487  0.00  0.00    -0.082 C 
ATOM     15  N   UNL     1       0.850  -0.023   2.486  0.00  0.00    +0.381 N 
ATOM     16  C   UNL     1       1.130  -0.504   1.128  0.00  0.00    -0.070 C 
ATOM     17  C   UNL     1       2.492   0.022   0.669  0.00  0.00    -0.016 C 
ATOM     18  H   UNL     1       1.592  -0.313   3.105  0.00  0.00    -0.086 HD
ATOM     19  H   UNL     1      -0.024  -0.415   2.807  0.00  0.00    -0.086 HD
ENDBRANCH   1  16
BRANCH   3  20
ATOM     20  C   UNL     1       0.402  -0.561  -1.299  0.00  0.00    +0.358 C 
ATOM     21  O   UNL     1       1.413   0.048  -1.606  0.00  0.00    -0.246 OA
ATOM     22  O   UNL     1      -0.619   0.048  -1.029  0.00  0.00    -0.246 OA
ENDBRANCH   3  20
TORSDOF 2
