REMARK  Name = ZINC02953144
REMARK  9 active torsions:
REMARK  status: ('A' for Active; 'I' for Inactive)
REMARK    1  A    between atoms: C_1  and  C_2
REMARK    2  A    between atoms: C_2  and  C_3
REMARK    3  A    between atoms: C_8  and  N_9
REMARK    4  A    between atoms: C_10  and  C_12
REMARK    5  A    between atoms: C_15  and  C_31
REMARK    6  A    between atoms: C_18  and  C_30
REMARK    7  A    between atoms: N_22  and  C_23
REMARK    8  A    between atoms: C_27  and  C_29
REMARK    9  A    between atoms: C_31  and  O_32
REMARK                            x       y       z     vdW  Elec       q    Type
REMARK                         _______ _______ _______ _____ _____    ______ ____
ROOT
ATOM      1  C   UNL     1       4.688   4.191   0.275  0.00  0.00    +0.098 A 
ATOM      2  C   UNL     1       3.652   3.321   0.014  0.00  0.00    +0.030 A 
ATOM      3  C   UNL     1       2.294   3.869   0.036  0.00  0.00    +0.027 A 
ATOM      4  C   UNL     1       1.165   3.042   0.047  0.00  0.00    +0.007 A 
ATOM      5  C   UNL     1      -0.082   3.631   0.068  0.00  0.00    +0.117 A 
ATOM      6  N   UNL     1      -0.218   4.944   0.089  0.00  0.00    -0.256 NA
ATOM      7  C   UNL     1       0.813   5.765   0.078  0.00  0.00    +0.081 A 
ATOM      8  C   UNL     1       2.107   5.264   0.050  0.00  0.00    +0.159 A 
ATOM      9  O   UNL     1       3.183   6.087   0.034  0.00  0.00    -0.437 OA
ATOM     10  C   UNL     1       4.337   5.597   0.556  0.00  0.00    +0.212 A 
ATOM     11  N   UNL     1       5.120   6.355   1.291  0.00  0.00    -0.325 N 
ATOM     12  C   UNL     1       0.586   7.254   0.096  0.00  0.00    +0.069 C 
ATOM     13  H   UNL     1       6.091   5.970   1.637  0.00  0.00    +0.169 HD
ENDROOT
BRANCH  11  14
ATOM     14  C   UNL     1       4.729   7.622   1.624  0.00  0.00    +0.042 A 
ATOM     15  C   UNL     1       4.968   8.684   0.748  0.00  0.00    +0.026 A 
ATOM     16  C   UNL     1       4.566   9.959   1.089  0.00  0.00    +0.002 A 
ATOM     17  C   UNL     1       3.936  10.189   2.299  0.00  0.00    +0.003 A 
ATOM     18  C   UNL     1       3.701   9.143   3.174  0.00  0.00    -0.049 A 
ATOM     19  C   UNL     1       4.093   7.862   2.844  0.00  0.00    +0.029 A 
ATOM     20  C   UNL     1       3.014   9.404   4.490  0.00  0.00    +0.044 C 
ENDBRANCH  11  14
BRANCH   1  22
ATOM     21  N   UNL     1       7.083   4.610   0.533  0.00  0.00    -0.281 N 
ATOM     22  C   UNL     1       6.090   3.735   0.274  0.00  0.00    +0.253 C 
ATOM     23  O   UNL     1       6.351   2.571   0.040  0.00  0.00    -0.270 OA
ATOM     24  H   UNL     1       6.844   5.645   0.816  0.00  0.00    +0.155 HD
BRANCH  21  30
ATOM     25  C   UNL     1       9.386   5.085  -0.014  0.00  0.00    -0.026 A 
ATOM     26  C   UNL     1      10.704   4.679  -0.100  0.00  0.00    +0.005 A 
ATOM     27  C   UNL     1      11.056   3.390   0.257  0.00  0.00    +0.000 A 
ATOM     28  C   UNL     1      10.092   2.506   0.706  0.00  0.00    +0.002 A 
ATOM     29  C   UNL     1       8.774   2.907   0.798  0.00  0.00    +0.023 A 
ATOM     30  C   UNL     1       8.417   4.200   0.441  0.00  0.00    +0.037 A 
BRANCH  25  32
ATOM     31  C   UNL     1       8.982   7.379   0.835  0.00  0.00    +0.009 C 
ATOM     32  C   UNL     1       9.002   6.488  -0.408  0.00  0.00    +0.033 C 
ENDBRANCH  25  32
ENDBRANCH  21  30
ENDBRANCH   1  22
BRANCH   4  33
ATOM     33  C   UNL     1       1.309   1.542   0.029  0.00  0.00    +0.193 C 
BRANCH  33  34
ATOM     34  O   UNL     1       0.013   0.939   0.045  0.00  0.00    -0.390 OA
ATOM     35  H   UNL     1      -0.084  -0.157   0.036  0.00  0.00    +0.210 HD
ENDBRANCH  33  34
ENDBRANCH   4  33
TORSDOF 6
