REMARK  Name = ZINC56376098
REMARK  3 active torsions:
REMARK  status: ('A' for Active; 'I' for Inactive)
REMARK    1  A    between atoms: C_1  and  N_2
REMARK    2  A    between atoms: N_5  and  N_6
REMARK    3  A    between atoms: C_7  and  C_9
REMARK                            x       y       z     vdW  Elec       q    Type
REMARK                         _______ _______ _______ _____ _____    ______ ____
ROOT
ATOM      1  N   UNL     1       0.016  -2.726  -0.053  0.00  0.00    -0.227 N 
ATOM      2  C   UNL     1       0.034  -4.074  -0.060  0.00  0.00    +0.295 C 
ATOM      3  O   UNL     1       0.578  -4.680   0.844  0.00  0.00    -0.265 OA
ATOM      4  H   UNL     1      -0.418  -2.243  -0.773  0.00  0.00    +0.173 HD
ENDROOT
BRANCH   2   5
ATOM      5  C   UNL     1      -0.603  -4.811  -1.160  0.00  0.00    +0.192 A 
ATOM      6  C   UNL     1      -0.651  -6.164  -1.270  0.00  0.00    +0.063 A 
ATOM      7  C   UNL     1      -1.375  -6.445  -2.509  0.00  0.00    +0.022 A 
ATOM      8  C   UNL     1      -1.750  -7.615  -3.173  0.00  0.00    +0.027 A 
ATOM      9  C   UNL     1      -2.442  -7.534  -4.350  0.00  0.00    +0.019 A 
ATOM     10  C   UNL     1      -2.772  -6.296  -4.888  0.00  0.00    +0.019 A 
ATOM     11  C   UNL     1      -2.410  -5.131  -4.248  0.00  0.00    +0.048 A 
ATOM     12  C   UNL     1      -1.707  -5.189  -3.050  0.00  0.00    +0.136 A 
ATOM     13  O   UNL     1      -1.233  -4.246  -2.211  0.00  0.00    -0.450 OA
ATOM     14 BR   UNL     1      -2.950  -9.116  -5.252  0.00  0.00    -0.050 Br
ENDBRANCH   2   5
BRANCH   1  19
ATOM     15  C   UNL     1      -0.018   1.461   0.010  0.00  0.00    +0.129 C 
ATOM     16  N   UNL     1       0.002  -0.004   0.002  0.00  0.00    -0.301 N 
ATOM     17  C   UNL     1       0.604  -0.675   1.004  0.00  0.00    +0.316 C 
ATOM     18  O   UNL     1       1.131  -0.065   1.914  0.00  0.00    -0.251 OA
ATOM     19  N   UNL     1       0.623  -2.023   0.996  0.00  0.00    -0.218 N 
ATOM     20  H   UNL     1      -0.418  -0.491  -0.724  0.00  0.00    +0.150 HD
ATOM     21  H   UNL     1       1.056  -2.506   1.717  0.00  0.00    +0.174 HD
ENDBRANCH   1  19
TORSDOF 2
