REMARK  Name = ZINC12619246
REMARK  9 active torsions:
REMARK  status: ('A' for Active; 'I' for Inactive)
REMARK    1  A    between atoms: C_1  and  O_2
REMARK    2  A    between atoms: O_2  and  C_3
REMARK    3  A    between atoms: C_6  and  C_9
REMARK    4  A    between atoms: N_13  and  C_24
REMARK    5  A    between atoms: C_14  and  S_16
REMARK    6  A    between atoms: S_16  and  C_17
REMARK    7  A    between atoms: C_17  and  C_18
REMARK    8  A    between atoms: C_27  and  O_30
REMARK    9  A    between atoms: O_30  and  C_31
REMARK                            x       y       z     vdW  Elec       q    Type
REMARK                         _______ _______ _______ _____ _____    ______ ____
ROOT
ATOM      1  C   UNL     1      -4.945  -2.612   0.069  0.00  0.00    +0.041 C 
ATOM      2  C   UNL     1      -6.100  -1.888   0.168  0.00  0.00    +0.129 C 
ATOM      3  C   UNL     1      -7.469  -2.416   0.310  0.00  0.00    +0.275 C 
ATOM      4  O   UNL     1      -7.808  -3.584   0.362  0.00  0.00    -0.268 OA
ATOM      5  N   UNL     1      -8.270  -1.329   0.370  0.00  0.00    -0.214 N 
ATOM      6  C   UNL     1      -7.484  -0.206   0.275  0.00  0.00    +0.169 C 
ATOM      7  N   UNL     1      -6.221  -0.526   0.163  0.00  0.00    -0.220 NA
ENDROOT
BRANCH   1  11
ATOM      8  C   UNL     1      -1.200  -0.629   0.004  0.00  0.00    +0.120 A 
ATOM      9  C   UNL     1      -1.248  -2.018   0.053  0.00  0.00    +0.046 A 
ATOM     10  C   UNL     1      -2.461  -2.667   0.080  0.00  0.00    +0.011 A 
ATOM     11  C   UNL     1      -3.650  -1.926   0.047  0.00  0.00    -0.023 A 
ATOM     12  C   UNL     1      -3.595  -0.527  -0.008  0.00  0.00    +0.011 A 
ATOM     13  C   UNL     1      -2.376   0.111  -0.029  0.00  0.00    +0.046 A 
BRANCH   8  15
ATOM     14  C   UNL     1       1.169  -0.815   0.019  0.00  0.00    +0.277 C 
ATOM     15  O   UNL     1      -0.000   0.006  -0.017  0.00  0.00    -0.495 OA
ENDBRANCH   8  15
ENDBRANCH   1  11
BRANCH   5  16
ATOM     16  C   UNL     1      -9.667  -1.344   0.506  0.00  0.00    +0.044 A 
ATOM     17  C   UNL     1     -10.268  -0.675   1.563  0.00  0.00    +0.027 A 
ATOM     18  C   UNL     1     -11.643  -0.685   1.693  0.00  0.00    +0.048 A 
ATOM     19  C   UNL     1     -12.422  -1.374   0.775  0.00  0.00    +0.127 A 
ATOM     20  C   UNL     1     -11.821  -2.047  -0.279  0.00  0.00    +0.048 A 
ATOM     21  C   UNL     1     -10.447  -2.033  -0.413  0.00  0.00    +0.027 A 
BRANCH  19  22
ATOM     22  O   UNL     1     -13.775  -1.389   0.906  0.00  0.00    -0.434 OA
BRANCH  22  23
ATOM     23  C   UNL     1     -14.327  -0.674   2.014  0.00  0.00    +0.541 C 
ATOM     24  F   UNL     1     -13.827  -1.206   3.208  0.00  0.00    -0.166 F 
ATOM     25  F   UNL     1     -13.973   0.676   1.921  0.00  0.00    -0.166 F 
ENDBRANCH  22  23
ENDBRANCH  19  22
ENDBRANCH   5  16
BRANCH   6  26
ATOM     26  S   UNL     1      -8.095   1.446   0.307  0.00  0.00    -0.080 S 
BRANCH  26  27
ATOM     27  C   UNL     1      -6.541   2.359   0.141  0.00  0.00    +0.173 C 
BRANCH  27  28
ATOM     28  C   UNL     1      -6.826   3.839   0.145  0.00  0.00    +0.231 C 
ATOM     29  O   UNL     1      -7.966   4.237   0.250  0.00  0.00    -0.274 OA
ATOM     30  N   UNL     1      -5.812   4.720   0.032  0.00  0.00    -0.240 N 
ATOM     31  C   UNL     1      -6.067   6.044   0.035  0.00  0.00    +0.303 C 
ATOM     32  O   UNL     1      -7.210   6.443   0.140  0.00  0.00    -0.253 OA
ATOM     33  N   UNL     1      -5.053   6.925  -0.078  0.00  0.00    -0.313 N 
ATOM     34  H   UNL     1      -4.900   4.402  -0.052  0.00  0.00    +0.159 HD
ATOM     35  H   UNL     1      -4.141   6.607  -0.162  0.00  0.00    +0.146 HD
ATOM     36  H   UNL     1      -5.236   7.878  -0.076  0.00  0.00    +0.146 HD
ENDBRANCH  27  28
ENDBRANCH  26  27
ENDBRANCH   6  26
TORSDOF 8
