REMARK  Name = ZINC55182362
REMARK  4 active torsions:
REMARK  status: ('A' for Active; 'I' for Inactive)
REMARK    1  A    between atoms: C_4  and  N_9
REMARK    2  A    between atoms: C_5  and  C_7
REMARK    3  A    between atoms: C_13  and  C_14
REMARK    4  A    between atoms: C_16  and  N_19
REMARK                            x       y       z     vdW  Elec       q    Type
REMARK                         _______ _______ _______ _____ _____    ______ ____
ROOT
ATOM      1  N   UNL     1       3.520  -0.925  -0.019  0.00  0.00    -0.222 N 
ATOM      2  C   UNL     1       4.068  -1.252  -1.177  0.00  0.00    +0.263 C 
ATOM      3  O   UNL     1       3.436  -1.211  -2.217  0.00  0.00    -0.269 OA
ATOM      4  C   UNL     1       5.480  -1.667  -1.148  0.00  0.00    +0.078 C 
ATOM      5  C   UNL     1       6.291  -2.053  -2.169  0.00  0.00    +0.028 C 
ATOM      6  S   UNL     1       5.836  -1.526   0.598  0.00  0.00    -0.061 S 
ATOM      7  C   UNL     1       4.226  -0.966   1.130  0.00  0.00    +0.125 C 
ATOM      8  S   UNL     1       3.703  -0.578   2.714  0.00  0.00    -0.027 S 
ENDROOT
BRANCH   1  12
ATOM      9  C   UNL     1      -0.475   0.281   0.080  0.00  0.00    +0.001 A 
ATOM     10  C   UNL     1       0.533   1.214  -0.102  0.00  0.00    +0.002 A 
ATOM     11  C   UNL     1       1.855   0.818  -0.135  0.00  0.00    +0.025 A 
ATOM     12  C   UNL     1       2.183  -0.522   0.015  0.00  0.00    +0.060 A 
ATOM     13  C   UNL     1       1.166  -1.470   0.199  0.00  0.00    +0.073 A 
ATOM     14  C   UNL     1      -0.167  -1.054   0.231  0.00  0.00    +0.021 A 
BRANCH  13  15
ATOM     15  C   UNL     1       1.493  -2.856   0.355  0.00  0.00    +0.101 C 
ATOM     16  N   UNL     1       1.752  -3.955   0.478  0.00  0.00    -0.191 NA
ENDBRANCH  13  15
ENDBRANCH   1  12
BRANCH   5  17
ATOM     17  C   UNL     1       5.835  -1.923  -3.556  0.00  0.00    -0.015 A 
ATOM     18  C   UNL     1       6.159  -2.914  -4.555  0.00  0.00    +0.048 A 
ATOM     19  C   UNL     1       5.679  -2.677  -5.793  0.00  0.00    +0.164 A 
ATOM     20  S   UNL     1       4.807  -1.138  -5.601  0.00  0.00    -0.072 S 
ATOM     21  C   UNL     1       5.072  -0.850  -3.970  0.00  0.00    +0.055 A 
BRANCH  19  22
ATOM     22  N   UNL     1       5.840  -3.498  -7.015  0.00  0.00    +0.063 N 
ATOM     23  O   UNL     1       6.471  -4.528  -6.972  0.00  0.00    -0.126 OA
ATOM     24  O   UNL     1       5.340  -3.138  -8.055  0.00  0.00    -0.126 OA
ENDBRANCH  19  22
ENDBRANCH   5  17
TORSDOF 4
