REMARK  Name = ZINC12711506
REMARK  14 active torsions:
REMARK  status: ('A' for Active; 'I' for Inactive)
REMARK    1  A    between atoms: C_1  and  C_2
REMARK    2  A    between atoms: C_6  and  N_8
REMARK    3  A    between atoms: N_8  and  C_9
REMARK    4  A    between atoms: C_9  and  C_11
REMARK    5  A    between atoms: C_9  and  C_19
REMARK    6  A    between atoms: C_14  and  O_17
REMARK    7  A    between atoms: O_17  and  C_18
REMARK    8  A    between atoms: N_21  and  C_22
REMARK    9  A    between atoms: C_22  and  C_23
REMARK   10  A    between atoms: C_22  and  C_24
REMARK   11  A    between atoms: C_22  and  C_25
REMARK   12  A    between atoms: C_26  and  C_28
REMARK   13  A    between atoms: C_29  and  N_36
REMARK   14  A    between atoms: C_30  and  C_33
REMARK                            x       y       z     vdW  Elec       q    Type
REMARK                         _______ _______ _______ _____ _____    ______ ____
ROOT
ATOM      1  N   UNL     1      -0.192   5.567   0.137  0.00  0.00    -0.251 N 
ATOM      2  C   UNL     1      -1.127   5.925  -0.766  0.00  0.00    +0.262 C 
ATOM      3  O   UNL     1      -0.810   6.574  -1.746  0.00  0.00    -0.269 OA
ENDROOT
BRANCH   1   9
ATOM      4  C   UNL     1      -0.972   5.037   4.962  0.00  0.00    +0.044 C 
ATOM      5  C   UNL     1      -0.926   4.467   3.567  0.00  0.00    -0.049 A 
ATOM      6  C   UNL     1      -1.229   3.134   3.355  0.00  0.00    +0.003 A 
ATOM      7  C   UNL     1      -1.194   2.609   2.077  0.00  0.00    +0.002 A 
ATOM      8  C   UNL     1      -0.850   3.413   1.008  0.00  0.00    +0.023 A 
ATOM      9  C   UNL     1      -0.540   4.750   1.217  0.00  0.00    +0.038 A 
ATOM     10  C   UNL     1      -0.577   5.275   2.503  0.00  0.00    +0.027 A 
ENDBRANCH   1   9
BRANCH   2  11
ATOM     11  C   UNL     1      -2.524   5.533  -0.568  0.00  0.00    +0.116 A 
ATOM     12  C   UNL     1      -3.619   5.699  -1.418  0.00  0.00    +0.076 A 
ATOM     13  C   UNL     1      -4.799   5.191  -0.875  0.00  0.00    +0.155 A 
ATOM     14  N   UNL     1      -4.772   4.636   0.317  0.00  0.00    -0.203 NA
ATOM     15  S   UNL     1      -3.280   4.711   0.819  0.00  0.00    +0.019 S 
BRANCH  13  16
ATOM     16  C   UNL     1      -6.063   5.275  -1.629  0.00  0.00    +0.262 C 
ATOM     17  O   UNL     1      -6.081   5.790  -2.730  0.00  0.00    -0.269 OA
ATOM     18  N   UNL     1      -7.199   4.782  -1.097  0.00  0.00    -0.324 N 
ATOM     19  H   UNL     1      -7.185   4.372  -0.218  0.00  0.00    +0.145 HD
ATOM     20  H   UNL     1      -8.031   4.838  -1.593  0.00  0.00    +0.145 HD
ENDBRANCH  13  16
BRANCH  12  21
ATOM     21  N   UNL     1      -3.541   6.302  -2.666  0.00  0.00    -0.355 N 
ATOM     22  H   UNL     1      -2.691   6.637  -2.991  0.00  0.00    +0.142 HD
ATOM     23  H   UNL     1      -4.338   6.389  -3.213  0.00  0.00    +0.142 HD
ENDBRANCH  12  21
ENDBRANCH   2  11
BRANCH   1  24
ATOM     24  C   UNL     1       1.188   6.034  -0.014  0.00  0.00    +0.197 C 
BRANCH  24  25
ATOM     25  C   UNL     1       1.985   5.646   1.205  0.00  0.00    -0.018 A 
ATOM     26  C   UNL     1       1.993   4.332   1.635  0.00  0.00    +0.009 A 
ATOM     27  C   UNL     1       2.728   3.973   2.749  0.00  0.00    +0.046 A 
ATOM     28  C   UNL     1       3.449   4.935   3.442  0.00  0.00    +0.120 A 
ATOM     29  C   UNL     1       3.434   6.254   3.011  0.00  0.00    +0.046 A 
ATOM     30  C   UNL     1       2.703   6.606   1.894  0.00  0.00    +0.009 A 
BRANCH  28  31
ATOM     31  O   UNL     1       4.167   4.586   4.542  0.00  0.00    -0.495 OA
ATOM     32  C   UNL     1       4.136   3.210   4.927  0.00  0.00    +0.277 C 
ENDBRANCH  28  31
ENDBRANCH  24  25
BRANCH  24  33
ATOM     33  C   UNL     1       1.801   5.402  -1.237  0.00  0.00    +0.239 C 
ATOM     34  O   UNL     1       1.149   4.637  -1.916  0.00  0.00    -0.273 OA
ATOM     35  N   UNL     1       3.074   5.687  -1.577  0.00  0.00    -0.309 N 
ATOM     36  H   UNL     1       3.595   6.298  -1.034  0.00  0.00    +0.149 HD
BRANCH  35  37
ATOM     37  C   UNL     1       3.670   5.072  -2.766  0.00  0.00    +0.026 C 
ATOM     38  C   UNL     1       2.860   5.466  -4.003  0.00  0.00    +0.031 C 
ATOM     39  C   UNL     1       5.112   5.560  -2.923  0.00  0.00    +0.031 C 
ATOM     40  C   UNL     1       3.660   3.550  -2.613  0.00  0.00    +0.031 C 
ENDBRANCH  35  37
ENDBRANCH  24  33
ENDBRANCH   1  24
TORSDOF 9
