REMARK  Name = ZINC53097356
REMARK  6 active torsions:
REMARK  status: ('A' for Active; 'I' for Inactive)
REMARK    1  A    between atoms: C_6  and  N_7
REMARK    2  A    between atoms: C_8  and  C_10
REMARK    3  A    between atoms: C_10  and  N_11
REMARK    4  A    between atoms: N_11  and  C_12
REMARK    5  A    between atoms: C_12  and  C_18
REMARK    6  A    between atoms: C_18  and  O_19
REMARK                            x       y       z     vdW  Elec       q    Type
REMARK                         _______ _______ _______ _____ _____    ______ ____
ROOT
ATOM      1  C   UNL     1      -1.405  -4.850  -1.253  0.00  0.00    +0.016 C 
ENDROOT
BRANCH   1   3
ATOM      2  N   UNL     1       0.520  -4.052  -2.586  0.00  0.00    -0.287 N 
ATOM      3  C   UNL     1      -0.181  -3.990  -1.437  0.00  0.00    +0.200 C 
ATOM      4  O   UNL     1       0.173  -3.243  -0.550  0.00  0.00    -0.278 OA
ATOM      5  H   UNL     1       0.197  -4.595  -3.322  0.00  0.00    +0.155 HD
BRANCH   2  11
ATOM      6  C   UNL     1       2.534  -3.142  -1.613  0.00  0.00    +0.024 A 
ATOM      7  C   UNL     1       3.712  -2.433  -1.745  0.00  0.00    +0.017 A 
ATOM      8  C   UNL     1       4.076  -1.916  -2.976  0.00  0.00    +0.018 A 
ATOM      9  C   UNL     1       3.260  -2.107  -4.077  0.00  0.00    +0.017 A 
ATOM     10  C   UNL     1       2.081  -2.814  -3.951  0.00  0.00    +0.024 A 
ATOM     11  C   UNL     1       1.714  -3.335  -2.717  0.00  0.00    +0.033 A 
ATOM     12 BR   UNL     1       5.690  -0.947  -3.153  0.00  0.00    -0.050 Br
ENDBRANCH   2  11
ENDBRANCH   1   3
BRANCH   1  13
ATOM     13  N   UNL     1      -1.986  -4.600   0.073  0.00  0.00    +0.390 N 
ATOM     14  H   UNL     1      -1.306  -4.822   0.785  0.00  0.00    -0.084 HD
ATOM     15  H   UNL     1      -2.245  -3.628   0.148  0.00  0.00    -0.084 HD
BRANCH  13  16
ATOM     16  C   UNL     1      -3.177  -5.440   0.253  0.00  0.00    -0.044 C 
ATOM     17  C   UNL     1      -3.814  -5.137   1.611  0.00  0.00    -0.010 C 
ATOM     18  C   UNL     1      -2.808  -5.433   2.724  0.00  0.00    -0.001 C 
ATOM     19  C   UNL     1      -2.405  -6.907   2.669  0.00  0.00    -0.000 C 
ATOM     20  C   UNL     1      -1.767  -7.211   1.312  0.00  0.00    -0.001 C 
ATOM     21  C   UNL     1      -2.773  -6.915   0.198  0.00  0.00    -0.010 C 
BRANCH  16  22
ATOM     22  C   UNL     1      -4.183  -5.145  -0.861  0.00  0.00    +0.143 C 
BRANCH  22  23
ATOM     23  O   UNL     1      -4.468  -3.745  -0.885  0.00  0.00    -0.396 OA
ATOM     24  H   UNL     1      -5.101  -3.484  -1.569  0.00  0.00    +0.209 HD
ENDBRANCH  22  23
ENDBRANCH  16  22
ENDBRANCH  13  16
ENDBRANCH   1  13
TORSDOF 6
