REMARK  Name = ZINC54571725
REMARK  10 active torsions:
REMARK  status: ('A' for Active; 'I' for Inactive)
REMARK    1  A    between atoms: C_1  and  C_2
REMARK    2  A    between atoms: N_4  and  C_5
REMARK    3  A    between atoms: N_13  and  C_15
REMARK    4  A    between atoms: C_15  and  C_16
REMARK    5  A    between atoms: C_18  and  C_24
REMARK    6  A    between atoms: C_20  and  O_23
REMARK    7  A    between atoms: C_21  and  O_22
REMARK    8  A    between atoms: C_24  and  C_25
REMARK    9  A    between atoms: C_24  and  C_26
REMARK   10  A    between atoms: C_24  and  C_27
REMARK                            x       y       z     vdW  Elec       q    Type
REMARK                         _______ _______ _______ _____ _____    ______ ____
ROOT
ATOM      1  C   UNL     1      -1.160  -2.151  -0.086  0.00  0.00    +0.037 A 
ATOM      2  C   UNL     1       0.012  -2.889  -0.000  0.00  0.00    +0.023 A 
ATOM      3  C   UNL     1      -0.044  -4.268  -0.009  0.00  0.00    +0.002 A 
ATOM      4  C   UNL     1      -1.264  -4.908  -0.104  0.00  0.00    +0.002 A 
ATOM      5  C   UNL     1      -2.439  -4.175  -0.191  0.00  0.00    -0.059 A 
ATOM      6  C   UNL     1      -2.389  -2.798  -0.174  0.00  0.00    -0.027 A 
ATOM      7  C   UNL     1      -3.642  -1.964  -0.251  0.00  0.00    +0.019 C 
ATOM      8  C   UNL     1      -4.807  -2.825  -0.740  0.00  0.00    -0.073 C 
ATOM      9  N   UNL     1      -4.865  -4.045   0.080  0.00  0.00    +0.385 N 
ATOM     10  C   UNL     1      -3.745  -4.918  -0.298  0.00  0.00    -0.042 C 
ATOM     11  H   UNL     1      -4.797  -3.800   1.056  0.00  0.00    -0.081 HD
ENDROOT
BRANCH   1  15
ATOM     12  C   UNL     1      -0.065   1.390  -0.744  0.00  0.00    +0.109 C 
ATOM     13  C   UNL     1      -0.069  -0.114  -0.656  0.00  0.00    +0.214 C 
ATOM     14  O   UNL     1       0.861  -0.751  -1.104  0.00  0.00    -0.276 OA
ATOM     15  N   UNL     1      -1.106  -0.753  -0.078  0.00  0.00    -0.285 N 
ATOM     16  H   UNL     1      -1.816  -0.243   0.344  0.00  0.00    +0.155 HD
ENDBRANCH   1  15
BRANCH   9  17
ATOM     17  C   UNL     1      -6.134  -4.744  -0.167  0.00  0.00    -0.039 C 
BRANCH  17  18
ATOM     18  C   UNL     1      -6.253  -5.916   0.773  0.00  0.00    -0.019 A 
ATOM     19  C   UNL     1      -6.057  -7.202   0.303  0.00  0.00    +0.009 A 
ATOM     20  C   UNL     1      -6.166  -8.279   1.162  0.00  0.00    -0.038 A 
ATOM     21  C   UNL     1      -6.470  -8.076   2.496  0.00  0.00    +0.053 A 
ATOM     22  C   UNL     1      -6.667  -6.790   2.973  0.00  0.00    +0.159 A 
ATOM     23  C   UNL     1      -6.552  -5.705   2.109  0.00  0.00    +0.160 A 
BRANCH  20  24
ATOM     24  C   UNL     1      -5.952  -9.678   0.645  0.00  0.00    -0.013 C 
ATOM     25  C   UNL     1      -4.537  -9.800   0.074  0.00  0.00    +0.015 C 
ATOM     26  C   UNL     1      -6.128 -10.678   1.789  0.00  0.00    +0.015 C 
ATOM     27  C   UNL     1      -6.973  -9.977  -0.455  0.00  0.00    +0.015 C 
ENDBRANCH  20  24
BRANCH  23  28
ATOM     28  O   UNL     1      -6.739  -4.441   2.574  0.00  0.00    -0.503 OA
ATOM     29  H   UNL     1      -7.665  -4.163   2.596  0.00  0.00    +0.292 HD
ENDBRANCH  23  28
BRANCH  22  30
ATOM     30  O   UNL     1      -6.967  -6.589   4.284  0.00  0.00    -0.503 OA
ATOM     31  H   UNL     1      -6.193  -6.468   4.851  0.00  0.00    +0.292 HD
ENDBRANCH  22  30
ENDBRANCH  17  18
ENDBRANCH   9  17
TORSDOF 6
