REMARK  Name = ZINC40687663
REMARK  5 active torsions:
REMARK  status: ('A' for Active; 'I' for Inactive)
REMARK    1  A    between atoms: C_4  and  C_7
REMARK    2  A    between atoms: C_7  and  N_8
REMARK    3  A    between atoms: C_16  and  N_28
REMARK    4  A    between atoms: C_17  and  N_21
REMARK    5  A    between atoms: N_21  and  C_22
REMARK                            x       y       z     vdW  Elec       q    Type
REMARK                         _______ _______ _______ _____ _____    ______ ____
ROOT
ATOM      1  N   UNL     1       4.647  -1.968   2.407  0.00  0.00    -0.264 N 
ATOM      2  C   UNL     1       4.789  -3.232   2.970  0.00  0.00    +0.127 A 
ATOM      3  C   UNL     1       4.080  -4.306   2.441  0.00  0.00    +0.044 A 
ATOM      4  C   UNL     1       4.230  -5.557   3.010  0.00  0.00    +0.005 A 
ATOM      5  C   UNL     1       5.088  -5.694   4.093  0.00  0.00    +0.020 A 
ATOM      6  C   UNL     1       5.761  -4.585   4.567  0.00  0.00    +0.113 A 
ATOM      7  N   UNL     1       5.602  -3.404   4.001  0.00  0.00    -0.240 NA
ATOM      8  C   UNL     1       5.479  -0.929   2.812  0.00  0.00    +0.153 A 
ATOM      9  C   UNL     1       6.647  -0.638   2.104  0.00  0.00    +0.104 A 
ATOM     10  C   UNL     1       7.445   0.415   2.554  0.00  0.00    +0.126 A 
ATOM     11  N   UNL     1       7.066   1.097   3.632  0.00  0.00    -0.333 N 
ATOM     12  C   UNL     1       5.956   0.790   4.271  0.00  0.00    +0.200 A 
ATOM     13  N   UNL     1       5.171  -0.193   3.877  0.00  0.00    -0.220 NA
ATOM     14  H   UNL     1       7.614   1.831   3.951  0.00  0.00    +0.168 HD
ENDROOT
BRANCH   9  15
ATOM     15  N   UNL     1       7.008  -1.385   0.972  0.00  0.00    -0.353 N 
ATOM     16  H   UNL     1       6.404  -2.057   0.621  0.00  0.00    +0.143 HD
ATOM     17  H   UNL     1       7.863  -1.228   0.541  0.00  0.00    +0.143 HD
ENDBRANCH   9  15
BRANCH  10  18
ATOM     18  N   UNL     1       8.619   0.747   1.885  0.00  0.00    -0.299 N 
ATOM     19  H   UNL     1       8.843   0.306   1.051  0.00  0.00    +0.154 HD
BRANCH  18  20
ATOM     20  C   UNL     1       9.473   1.712   2.414  0.00  0.00    +0.035 A 
ATOM     21  C   UNL     1       9.726   1.769   3.785  0.00  0.00    +0.043 A 
ATOM     22  C   UNL     1      10.578   2.739   4.269  0.00  0.00    +0.112 A 
ATOM     23  N   UNL     1      11.150   3.606   3.453  0.00  0.00    -0.263 NA
ATOM     24  C   UNL     1      10.936   3.584   2.151  0.00  0.00    +0.112 A 
ATOM     25  C   UNL     1      10.102   2.642   1.587  0.00  0.00    +0.043 A 
ENDBRANCH  18  20
ENDBRANCH  10  18
BRANCH   1  26
ATOM     26  C   UNL     1       3.622  -1.730   1.388  0.00  0.00    +0.149 C 
BRANCH  26  30
ATOM     27  C   UNL     1      -0.011  -0.513   3.276  0.00  0.00    +0.000 A 
ATOM     28  C   UNL     1       0.920   0.435   2.893  0.00  0.00    +0.000 A 
ATOM     29  C   UNL     1       2.096   0.041   2.283  0.00  0.00    +0.005 A 
ATOM     30  C   UNL     1       2.341  -1.301   2.055  0.00  0.00    -0.030 A 
ATOM     31  C   UNL     1       1.410  -2.248   2.439  0.00  0.00    +0.005 A 
ATOM     32  C   UNL     1       0.234  -1.854   3.048  0.00  0.00    +0.000 A 
ENDBRANCH  26  30
ENDBRANCH   1  26
TORSDOF 5
