REMARK  Name = ZINC35886889
REMARK  7 active torsions:
REMARK  status: ('A' for Active; 'I' for Inactive)
REMARK    1  A    between atoms: C_1  and  C_2
REMARK    2  A    between atoms: C_2  and  C_3
REMARK    3  A    between atoms: N_7  and  C_28
REMARK    4  A    between atoms: C_11  and  N_16
REMARK    5  A    between atoms: N_16  and  S_17
REMARK    6  A    between atoms: S_17  and  C_20
REMARK    7  A    between atoms: C_23  and  C_27
REMARK                            x       y       z     vdW  Elec       q    Type
REMARK                         _______ _______ _______ _____ _____    ______ ____
ROOT
ATOM      1  C   UNL     1       0.772  -0.437  -1.405  0.00  0.00    +0.259 C 
ATOM      2  C   UNL     1       0.952  -1.924  -1.409  0.00  0.00    +0.257 C 
ATOM      3  O   UNL     1       2.091  -2.275  -1.181  0.00  0.00    -0.272 OA
ATOM      4  N   UNL     1       0.152  -2.891  -1.602  0.00  0.00    -0.287 N 
ATOM      5  C   UNL     1      -1.173  -2.967  -2.121  0.00  0.00    +0.147 C 
ATOM      6  C   UNL     1      -1.830  -1.718  -2.623  0.00  0.00    +0.013 A 
ATOM      7  C   UNL     1      -3.153  -1.928  -3.041  0.00  0.00    +0.033 A 
ATOM      8  C   UNL     1      -3.942  -0.886  -3.484  0.00  0.00    +0.049 A 
ATOM      9  C   UNL     1      -3.407   0.397  -3.503  0.00  0.00    +0.028 A 
ATOM     10  C   UNL     1      -2.108   0.588  -3.113  0.00  0.00    +0.048 A 
ATOM     11  C   UNL     1      -1.288  -0.487  -2.692  0.00  0.00    +0.126 A 
ATOM     12  O   UNL     1      -0.015  -0.029  -2.507  0.00  0.00    -0.479 OA
ENDROOT
BRANCH   4  13
ATOM     13  C   UNL     1       0.702  -4.192  -1.212  0.00  0.00    +0.107 C 
ATOM     14  C   UNL     1       1.032  -4.172   0.279  0.00  0.00    +0.027 C 
ATOM     15  C   UNL     1       1.803  -5.453   0.620  0.00  0.00    +0.007 C 
ATOM     16  C   UNL     1       3.188  -5.365  -0.016  0.00  0.00    +0.035 C 
ATOM     17  C   UNL     1       3.079  -5.014  -1.476  0.00  0.00    -0.042 A 
ATOM     18  C   UNL     1       1.939  -4.471  -2.025  0.00  0.00    -0.024 A 
ATOM     19  C   UNL     1       1.907  -4.164  -3.378  0.00  0.00    +0.006 A 
ATOM     20  C   UNL     1       3.006  -4.401  -4.178  0.00  0.00    +0.000 A 
ATOM     21  C   UNL     1       4.150  -4.949  -3.627  0.00  0.00    +0.000 A 
ATOM     22  C   UNL     1       4.184  -5.254  -2.284  0.00  0.00    +0.004 A 
ENDBRANCH   4  13
BRANCH   1  24
ATOM     23  C   UNL     1       0.018   1.512  -0.036  0.00  0.00    +0.008 C 
ATOM     24  C   UNL     1       0.081  -0.015  -0.108  0.00  0.00    +0.051 C 
ENDBRANCH   1  24
BRANCH   8  25
ATOM     25  N   UNL     1      -5.256  -1.116  -3.906  0.00  0.00    -0.216 N 
ATOM     26  H   UNL     1      -5.451  -1.855  -4.505  0.00  0.00    +0.174 HD
BRANCH  25  27
ATOM     27  S   UNL     1      -6.479  -0.129  -3.385  0.00  0.00    +0.072 S 
ATOM     28  O   UNL     1      -6.069   1.204  -3.659  0.00  0.00    -0.150 OA
ATOM     29  O   UNL     1      -7.687  -0.675  -3.895  0.00  0.00    -0.150 OA
BRANCH  27  30
ATOM     30  C   UNL     1      -6.559  -0.281  -1.631  0.00  0.00    +0.111 A 
ATOM     31  C   UNL     1      -7.279  -1.313  -1.059  0.00  0.00    +0.029 A 
ATOM     32  C   UNL     1      -7.342  -1.433   0.317  0.00  0.00    +0.008 A 
ATOM     33  C   UNL     1      -6.686  -0.521   1.122  0.00  0.00    -0.015 A 
ATOM     34  C   UNL     1      -5.965   0.513   0.550  0.00  0.00    +0.128 A 
ATOM     35  C   UNL     1      -5.897   0.629  -0.828  0.00  0.00    +0.067 A 
ATOM     36  F   UNL     1      -5.324   1.405   1.336  0.00  0.00    -0.205 F 
ATOM     37  C   UNL     1      -6.756  -0.652   2.621  0.00  0.00    +0.047 C 
ENDBRANCH  27  30
ENDBRANCH  25  27
ENDBRANCH   8  25
TORSDOF 5
