REMARK  Name = ZINC00358169
REMARK  7 active torsions:
REMARK  status: ('A' for Active; 'I' for Inactive)
REMARK    1  A    between atoms: C_1  and  C_2
REMARK    2  A    between atoms: N_5  and  S_8
REMARK    3  A    between atoms: S_8  and  C_11
REMARK    4  A    between atoms: C_14  and  N_17
REMARK    5  A    between atoms: N_17  and  N_18
REMARK    6  A    between atoms: C_19  and  C_20
REMARK    7  A    between atoms: C_19  and  C_22
REMARK                            x       y       z     vdW  Elec       q    Type
REMARK                         _______ _______ _______ _____ _____    ______ ____
ROOT
ATOM      1  C   UNL     1      -0.206  -4.875   0.467  0.00  0.00    +0.106 A 
ATOM      2  C   UNL     1      -0.886  -5.448  -0.592  0.00  0.00    +0.030 A 
ATOM      3  C   UNL     1      -0.662  -6.768  -0.927  0.00  0.00    +0.026 A 
ATOM      4  C   UNL     1       0.250  -7.523  -0.198  0.00  0.00    +0.048 A 
ATOM      5  C   UNL     1       0.932  -6.944   0.866  0.00  0.00    +0.026 A 
ATOM      6  C   UNL     1       0.706  -5.621   1.192  0.00  0.00    +0.030 A 
ENDROOT
BRANCH   1   7
ATOM      7  S   UNL     1      -0.496  -3.190   0.891  0.00  0.00    +0.061 S 
ATOM      8  O   UNL     1      -0.134  -3.046   2.257  0.00  0.00    -0.153 OA
ATOM      9  O   UNL     1      -1.793  -2.868   0.408  0.00  0.00    -0.153 OA
BRANCH   7  14
ATOM     10  C   UNL     1       2.095   1.573  -0.974  0.00  0.00    +0.007 C 
ATOM     11  C   UNL     1       1.866   0.062  -0.915  0.00  0.00    -0.012 C 
ATOM     12  C   UNL     1       0.430  -0.254  -1.341  0.00  0.00    +0.020 C 
ATOM     13  C   UNL     1       0.216  -1.770  -1.314  0.00  0.00    +0.110 C 
ATOM     14  N   UNL     1       0.574  -2.275   0.019  0.00  0.00    -0.177 NA
ATOM     15  C   UNL     1       1.900  -1.951   0.564  0.00  0.00    +0.110 C 
ATOM     16  C   UNL     1       2.096  -0.433   0.515  0.00  0.00    +0.020 C 
ENDBRANCH   7  14
ENDBRANCH   1   7
BRANCH   4  17
ATOM     17  N   UNL     1       0.480  -8.857  -0.532  0.00  0.00    -0.236 N 
ATOM     18  H   UNL     1       0.003  -9.260  -1.275  0.00  0.00    +0.174 HD
BRANCH  17  19
ATOM     19  N   UNL     1       1.326  -9.556   0.145  0.00  0.00    -0.166 NA
ATOM     20  C   UNL     1       1.448 -10.847  -0.085  0.00  0.00    +0.219 C 
BRANCH  20  21
ATOM     21  C   UNL     1       0.503 -11.527  -0.984  0.00  0.00    +0.272 C 
ATOM     22  O   UNL     1      -0.453 -10.921  -1.433  0.00  0.00    -0.268 OA
ATOM     23  N   UNL     1       0.694 -12.820  -1.311  0.00  0.00    -0.323 N 
ATOM     24  H   UNL     1       1.493 -13.282  -1.012  0.00  0.00    +0.145 HD
ATOM     25  H   UNL     1       0.034 -13.289  -1.844  0.00  0.00    +0.145 HD
ENDBRANCH  20  21
BRANCH  20  26
ATOM     26  C   UNL     1       2.502 -11.589   0.540  0.00  0.00    +0.126 C 
ATOM     27  N   UNL     1       3.337 -12.178   1.035  0.00  0.00    -0.189 NA
ENDBRANCH  20  26
ENDBRANCH  17  19
ENDBRANCH   4  17
TORSDOF 6
