REMARK  Name = ZINC37900645
REMARK  10 active torsions:
REMARK  status: ('A' for Active; 'I' for Inactive)
REMARK    1  A    between atoms: C_1  and  C_2
REMARK    2  A    between atoms: C_2  and  N_3
REMARK    3  A    between atoms: N_3  and  C_4
REMARK    4  A    between atoms: N_3  and  S_7
REMARK    5  A    between atoms: C_4  and  C_5
REMARK    6  A    between atoms: C_5  and  O_6
REMARK    7  A    between atoms: S_7  and  C_10
REMARK    8  A    between atoms: C_13  and  C_17
REMARK    9  A    between atoms: C_18  and  C_19
REMARK   10  A    between atoms: C_19  and  N_20
REMARK                            x       y       z     vdW  Elec       q    Type
REMARK                         _______ _______ _______ _____ _____    ______ ____
ROOT
ATOM      1  C   UNL     1       3.222   0.804   1.583  0.00  0.00    +0.124 A 
ATOM      2  C   UNL     1       3.922   0.805   2.777  0.00  0.00    +0.031 A 
ATOM      3  C   UNL     1       4.525   1.962   3.226  0.00  0.00    +0.019 A 
ATOM      4  C   UNL     1       4.427   3.134   2.474  0.00  0.00    +0.026 A 
ATOM      5  C   UNL     1       3.720   3.127   1.271  0.00  0.00    +0.038 A 
ATOM      6  C   UNL     1       3.126   1.961   0.829  0.00  0.00    +0.068 A 
ATOM      7 CL   UNL     1       2.252   1.948  -0.670  0.00  0.00    -0.081 Cl
ENDROOT
BRANCH   1   8
ATOM      8  S   UNL     1       2.456  -0.678   1.017  0.00  0.00    +0.062 S 
ATOM      9  O   UNL     1       2.768  -1.686   1.969  0.00  0.00    -0.153 OA
ATOM     10  O   UNL     1       2.782  -0.803  -0.360  0.00  0.00    -0.153 OA
BRANCH   8  11
ATOM     11  N   UNL     1       0.818  -0.444   1.096  0.00  0.00    -0.175 NA
BRANCH  11  13
ATOM     12  C   UNL     1      -0.521   1.433   0.281  0.00  0.00    +0.022 C 
ATOM     13  C   UNL     1       0.096   0.077  -0.067  0.00  0.00    +0.106 C 
ENDBRANCH  11  13
BRANCH  11  14
ATOM     14  C   UNL     1       0.092  -0.756   2.330  0.00  0.00    +0.137 C 
BRANCH  14  15
ATOM     15  C   UNL     1      -0.483  -2.171   2.239  0.00  0.00    +0.173 C 
BRANCH  15  16
ATOM     16  O   UNL     1       0.587  -3.117   2.179  0.00  0.00    -0.394 OA
ATOM     17  H   UNL     1       0.295  -4.037   2.120  0.00  0.00    +0.209 HD
ENDBRANCH  15  16
ENDBRANCH  14  15
ENDBRANCH  11  14
ENDBRANCH   8  11
ENDBRANCH   1   8
BRANCH   4  18
ATOM     18  C   UNL     1       5.050   4.338   2.935  0.00  0.00    -0.068 C 
ATOM     19  C   UNL     1       5.561   5.325   3.313  0.00  0.00    -0.117 C 
BRANCH  19  20
ATOM     20  C   UNL     1       6.201   6.563   3.787  0.00  0.00    +0.005 C 
BRANCH  20  21
ATOM     21  N   UNL     1       5.953   7.643   2.823  0.00  0.00    +0.385 N 
ATOM     22  H   UNL     1       6.391   8.491   3.148  0.00  0.00    -0.089 HD
ATOM     23  H   UNL     1       6.337   7.388   1.925  0.00  0.00    -0.089 HD
ATOM     24  H   UNL     1       4.959   7.792   2.733  0.00  0.00    -0.089 HD
ENDBRANCH  20  21
ENDBRANCH  19  20
ENDBRANCH   4  18
TORSDOF 9
