REMARK  Name = ZINC20455299
REMARK  15 active torsions:
REMARK  status: ('A' for Active; 'I' for Inactive)
REMARK    1  A    between atoms: C_1  and  C_2
REMARK    2  A    between atoms: C_2  and  C_3
REMARK    3  A    between atoms: C_2  and  C_4
REMARK    4  A    between atoms: C_2  and  C_5
REMARK    5  A    between atoms: C_5  and  N_6
REMARK    6  A    between atoms: N_9  and  C_16
REMARK    7  A    between atoms: C_11  and  C_13
REMARK    8  A    between atoms: C_13  and  C_14
REMARK    9  A    between atoms: C_14  and  O_15
REMARK   10  A    between atoms: C_16  and  C_17
REMARK   11  A    between atoms: C_20  and  C_23
REMARK   12  A    between atoms: C_24  and  C_25
REMARK   13  A    between atoms: C_25  and  C_26
REMARK   14  A    between atoms: C_25  and  C_27
REMARK   15  A    between atoms: C_25  and  O_28
REMARK                            x       y       z     vdW  Elec       q    Type
REMARK                         _______ _______ _______ _____ _____    ______ ____
ROOT
ATOM      1  N   UNL     1       1.906  -8.882  -4.383  0.00  0.00    +0.384 N 
ATOM      2  C   UNL     1       2.296  -7.506  -4.722  0.00  0.00    -0.063 C 
ATOM      3  C   UNL     1       2.997  -6.867  -3.521  0.00  0.00    +0.066 C 
ATOM      4  N   UNL     1       2.094  -6.886  -2.362  0.00  0.00    -0.301 NA
ATOM      5  C   UNL     1       1.704  -8.261  -2.024  0.00  0.00    +0.069 C 
ATOM      6  C   UNL     1       1.002  -8.900  -3.225  0.00  0.00    -0.052 C 
ATOM      7  H   UNL     1       2.817  -9.436  -4.113  0.00  0.00    -0.081 HD
ENDROOT
BRANCH   1   8
ATOM      8  C   UNL     1       1.296  -9.555  -5.538  0.00  0.00    -0.072 C 
BRANCH   8  10
ATOM      9  C   UNL     1      -0.164  -7.530  -5.645  0.00  0.00    +0.009 C 
ATOM     10  C   UNL     1      -0.140  -9.058  -5.718  0.00  0.00    -0.052 C 
ATOM     11  C   UNL     1      -0.670  -9.513  -7.079  0.00  0.00    +0.009 C 
ATOM     12  C   UNL     1      -1.022  -9.635  -4.609  0.00  0.00    +0.009 C 
ENDBRANCH   8  10
ENDBRANCH   1   8
BRANCH   6  13
ATOM     13  C   UNL     1       0.632 -10.346  -2.889  0.00  0.00    +0.014 C 
BRANCH  13  14
ATOM     14  C   UNL     1       1.870 -11.085  -2.377  0.00  0.00    +0.154 C 
BRANCH  14  15
ATOM     15  O   UNL     1       1.555 -12.465  -2.182  0.00  0.00    -0.395 OA
ATOM     16  H   UNL     1       2.326 -13.158  -1.815  0.00  0.00    +0.209 HD
ENDBRANCH  14  15
ENDBRANCH  13  14
ENDBRANCH   6  13
BRANCH   4  17
ATOM     17  C   UNL     1       2.704  -6.212  -1.208  0.00  0.00    +0.119 C 
BRANCH  17  18
ATOM     18  C   UNL     1       2.868  -4.745  -1.511  0.00  0.00    -0.033 A 
ATOM     19  C   UNL     1       1.852  -3.859  -1.199  0.00  0.00    +0.006 A 
ATOM     20  C   UNL     1       1.996  -2.515  -1.474  0.00  0.00    +0.017 A 
ATOM     21  C   UNL     1       3.169  -2.049  -2.069  0.00  0.00    +0.025 A 
ATOM     22  C   UNL     1       4.188  -2.949  -2.386  0.00  0.00    +0.017 A 
ATOM     23  C   UNL     1       4.033  -4.290  -2.101  0.00  0.00    +0.006 A 
BRANCH  21  24
ATOM     24  C   UNL     1       3.325  -0.655  -2.357  0.00  0.00    -0.063 C 
ATOM     25  C   UNL     1       3.452   0.487  -2.594  0.00  0.00    -0.063 C 
BRANCH  25  26
ATOM     26  C   UNL     1       3.612   1.920  -2.891  0.00  0.00    +0.121 C 
ATOM     27  C   UNL     1       4.979   2.158  -3.536  0.00  0.00    +0.055 C 
ATOM     28  C   UNL     1       2.510   2.368  -3.853  0.00  0.00    +0.055 C 
BRANCH  26  29
ATOM     29  O   UNL     1       3.520   2.671  -1.678  0.00  0.00    -0.377 OA
ATOM     30  H   UNL     1       3.616   3.767  -1.701  0.00  0.00    +0.211 HD
ENDBRANCH  26  29
ENDBRANCH  25  26
ENDBRANCH  21  24
ENDBRANCH  17  18
ENDBRANCH   4  17
TORSDOF 10
