REMARK  Name = ZINC16322875
REMARK  16 active torsions:
REMARK  status: ('A' for Active; 'I' for Inactive)
REMARK    1  A    between atoms: C_1  and  C_2
REMARK    2  A    between atoms: C_2  and  C_3
REMARK    3  A    between atoms: C_2  and  C_4
REMARK    4  A    between atoms: C_2  and  N_5
REMARK    5  A    between atoms: C_6  and  C_8
REMARK    6  A    between atoms: C_8  and  O_9
REMARK    7  A    between atoms: O_9  and  C_10
REMARK    8  A    between atoms: C_13  and  C_18
REMARK    9  A    between atoms: C_15  and  O_16
REMARK   10  A    between atoms: O_16  and  C_17
REMARK   11  A    between atoms: C_18  and  N_60
REMARK   12  A    between atoms: C_19  and  C_20
REMARK   13  A    between atoms: C_19  and  N_60
REMARK   14  A    between atoms: C_20  and  N_21
REMARK   15  A    between atoms: N_21  and  C_22
REMARK   16  A    between atoms: C_25  and  N_29
REMARK                            x       y       z     vdW  Elec       q    Type
REMARK                         _______ _______ _______ _____ _____    ______ ____
ROOT
ATOM      1  C   UNL     1      -2.011   2.470   3.526  0.00  0.00    +0.163 A 
ATOM      2  C   UNL     1      -1.007   3.232   2.952  0.00  0.00    +0.049 A 
ATOM      3  C   UNL     1      -0.359   2.779   1.817  0.00  0.00    +0.005 A 
ATOM      4  C   UNL     1      -0.718   1.572   1.248  0.00  0.00    -0.061 A 
ATOM      5  C   UNL     1      -1.719   0.807   1.817  0.00  0.00    +0.051 A 
ATOM      6  C   UNL     1      -2.369   1.252   2.957  0.00  0.00    +0.162 A 
ENDROOT
BRANCH   6   7
ATOM      7  O   UNL     1      -3.354   0.501   3.517  0.00  0.00    -0.491 OA
ATOM      8  C   UNL     1      -3.669  -0.738   2.877  0.00  0.00    +0.277 C 
ENDBRANCH   6   7
BRANCH   1   9
ATOM      9  O   UNL     1      -2.645   2.911   4.646  0.00  0.00    -0.479 OA
BRANCH   9  10
ATOM     10  C   UNL     1      -2.225   4.170   5.176  0.00  0.00    +0.324 C 
BRANCH  10  12
ATOM     11  N   UNL     1      -2.811   5.639   7.078  0.00  0.00    -0.308 N 
ATOM     12  C   UNL     1      -3.034   4.492   6.406  0.00  0.00    +0.251 C 
ATOM     13  O   UNL     1      -3.886   3.720   6.791  0.00  0.00    -0.272 OA
ATOM     14  H   UNL     1      -2.130   6.257   6.770  0.00  0.00    +0.149 HD
BRANCH  11  16
ATOM     15  C   UNL     1      -3.385   4.860   9.324  0.00  0.00    +0.031 C 
ATOM     16  C   UNL     1      -3.597   5.952   8.274  0.00  0.00    +0.026 C 
ATOM     17  C   UNL     1      -3.148   7.300   8.841  0.00  0.00    +0.031 C 
ATOM     18  C   UNL     1      -5.080   6.023   7.905  0.00  0.00    +0.031 C 
ENDBRANCH  11  16
ENDBRANCH  10  12
ENDBRANCH   9  10
ENDBRANCH   1   9
BRANCH   4  19
ATOM     19  C   UNL     1      -0.013   1.086   0.008  0.00  0.00    -0.047 C 
BRANCH  19  20
ATOM     20  N   UNL     1      -0.732   1.579  -1.182  0.00  0.00    +0.383 N 
ATOM     21  H   UNL     1      -0.746   2.605  -1.168  0.00  0.00    -0.085 HD
ATOM     22  H   UNL     1      -1.695   1.223  -1.167  0.00  0.00    -0.085 HD
BRANCH  20  23
ATOM     23  C   UNL     1      -0.062   1.117  -2.413  0.00  0.00    -0.063 C 
BRANCH  23  24
ATOM     24  C   UNL     1      -0.829   1.643  -3.628  0.00  0.00    +0.082 C 
BRANCH  24  25
ATOM     25  N   UNL     1      -0.171   1.188  -4.855  0.00  0.00    -0.345 N 
ATOM     26  H   UNL     1       0.628   0.640  -4.802  0.00  0.00    +0.146 HD
BRANCH  25  27
ATOM     27  C   UNL     1      -0.692   1.545  -6.101  0.00  0.00    +0.046 A 
ATOM     28  C   UNL     1      -1.835   2.330  -6.178  0.00  0.00    +0.026 A 
ATOM     29  C   UNL     1      -2.348   2.681  -7.412  0.00  0.00    +0.034 A 
ATOM     30  C   UNL     1      -1.726   2.252  -8.570  0.00  0.00    +0.128 A 
ATOM     31  C   UNL     1      -0.587   1.470  -8.497  0.00  0.00    +0.054 A 
ATOM     32  C   UNL     1      -0.065   1.120  -7.266  0.00  0.00    +0.064 A 
ATOM     33 CL   UNL     1       1.368   0.145  -7.176  0.00  0.00    -0.082 Cl
BRANCH  30  34
ATOM     34  N   UNL     1      -2.278   2.631  -9.889  0.00  0.00    +0.056 N 
ATOM     35  O   UNL     1      -3.281   3.320  -9.955  0.00  0.00    -0.126 OA
ATOM     36  O   UNL     1      -1.731   2.254 -10.910  0.00  0.00    -0.126 OA
ENDBRANCH  30  34
ENDBRANCH  25  27
ENDBRANCH  24  25
ENDBRANCH  23  24
ENDBRANCH  20  23
ENDBRANCH  19  20
ENDBRANCH   4  19
TORSDOF 12
