REMARK  Name = ZINC32542025
REMARK  9 active torsions:
REMARK  status: ('A' for Active; 'I' for Inactive)
REMARK    1  A    between atoms: C_1  and  C_2
REMARK    2  A    between atoms: C_2  and  C_4
REMARK    3  A    between atoms: C_2  and  N_14
REMARK    4  A    between atoms: C_7  and  S_10
REMARK    5  A    between atoms: S_10  and  N_13
REMARK    6  A    between atoms: N_14  and  C_15
REMARK    7  A    between atoms: N_14  and  C_16
REMARK    8  A    between atoms: C_16  and  C_17
REMARK    9  A    between atoms: N_19  and  C_20
REMARK                            x       y       z     vdW  Elec       q    Type
REMARK                         _______ _______ _______ _____ _____    ______ ____
ROOT
ATOM      1  N   UNL     1      -3.475   4.357   4.614  0.00  0.00    +0.388 N 
ATOM      2  C   UNL     1      -2.283   5.205   4.482  0.00  0.00    -0.095 C 
ATOM      3  H   UNL     1      -4.040   4.419   3.672  0.00  0.00    -0.081 HD
ENDROOT
BRANCH   1   5
ATOM      4  C   UNL     1      -2.098   2.525   3.750  0.00  0.00    -0.008 C 
ATOM      5  C   UNL     1      -3.100   2.952   4.824  0.00  0.00    -0.041 C 
BRANCH   5   6
ATOM      6  C   UNL     1      -4.330   2.086   4.737  0.00  0.00    -0.061 A 
ATOM      7  C   UNL     1      -4.455   0.978   5.554  0.00  0.00    +0.004 A 
ATOM      8  C   UNL     1      -5.583   0.184   5.473  0.00  0.00    +0.029 A 
ATOM      9  C   UNL     1      -6.587   0.497   4.575  0.00  0.00    +0.105 A 
ATOM     10  C   UNL     1      -6.460   1.602   3.755  0.00  0.00    +0.029 A 
ATOM     11  C   UNL     1      -5.334   2.400   3.839  0.00  0.00    +0.004 A 
BRANCH   9  12
ATOM     12  S   UNL     1      -8.025  -0.516   4.472  0.00  0.00    +0.056 S 
ATOM     13  O   UNL     1      -7.653  -1.799   4.957  0.00  0.00    -0.153 OA
ATOM     14  O   UNL     1      -8.567  -0.321   3.174  0.00  0.00    -0.153 OA
BRANCH  12  15
ATOM     15  N   UNL     1      -9.131   0.092   5.544  0.00  0.00    -0.204 NA
ATOM     16  H   UNL     1     -10.047  -0.515   5.510  0.00  0.00    +0.144 HD
ATOM     17  H   UNL     1      -9.369   1.132   5.274  0.00  0.00    +0.144 HD
ENDBRANCH  12  15
ENDBRANCH   9  12
ENDBRANCH   5   6
ENDBRANCH   1   5
BRANCH   1  18
ATOM     18  C   UNL     1      -4.345   4.838   5.695  0.00  0.00    +0.019 C 
BRANCH  18  19
ATOM     19  C   UNL     1      -4.905   6.188   5.327  0.00  0.00    +0.201 C 
ATOM     20  O   UNL     1      -4.608   6.699   4.269  0.00  0.00    -0.278 OA
ATOM     21  N   UNL     1      -5.736   6.826   6.175  0.00  0.00    -0.286 N 
ATOM     22  H   UNL     1      -6.059   6.334   7.104  0.00  0.00    +0.155 HD
BRANCH  21  23
ATOM     23  C   UNL     1      -6.187   8.116   5.873  0.00  0.00    +0.052 A 
ATOM     24  C   UNL     1      -6.426   8.479   4.554  0.00  0.00    +0.025 A 
ATOM     25  C   UNL     1      -6.877   9.751   4.260  0.00  0.00    +0.002 A 
ATOM     26  C   UNL     1      -7.080  10.667   5.276  0.00  0.00    +0.002 A 
ATOM     27  C   UNL     1      -6.838  10.312   6.590  0.00  0.00    +0.022 A 
ATOM     28  C   UNL     1      -6.392   9.039   6.892  0.00  0.00    +0.062 A 
ATOM     29 CL   UNL     1      -6.087   8.593   8.542  0.00  0.00    -0.082 Cl
ENDBRANCH  21  23
ENDBRANCH  18  19
ENDBRANCH   1  18
TORSDOF 7
