REMARK  Name = ZINC27520788
REMARK  9 active torsions:
REMARK  status: ('A' for Active; 'I' for Inactive)
REMARK    1  A    between atoms: C_5  and  C_7
REMARK    2  A    between atoms: N_9  and  C_10
REMARK    3  A    between atoms: C_10  and  C_11
REMARK    4  A    between atoms: C_11  and  C_12
REMARK    5  A    between atoms: C_12  and  C_13
REMARK    6  A    between atoms: C_13  and  C_14
REMARK    7  A    between atoms: C_14  and  C_15
REMARK    8  A    between atoms: N_17  and  N_18
REMARK    9  A    between atoms: N_18  and  C_19
REMARK                            x       y       z     vdW  Elec       q    Type
REMARK                         _______ _______ _______ _____ _____    ______ ____
ROOT
ATOM      1  C   UNL     1      -4.087  -9.003   0.204  0.00  0.00    +0.229 C 
ATOM      2  O   UNL     1      -4.992  -8.222   0.002  0.00  0.00    -0.274 OA
ATOM      3  N   UNL     1      -4.331 -10.328   0.218  0.00  0.00    -0.236 N 
ATOM      4  H   UNL     1      -3.607 -10.953   0.380  0.00  0.00    +0.173 HD
ENDROOT
BRANCH   3   5
ATOM      5  N   UNL     1      -5.630 -10.803  -0.001  0.00  0.00    -0.259 N 
ATOM      6  H   UNL     1      -6.369 -10.179  -0.076  0.00  0.00    +0.170 HD
BRANCH   5   7
ATOM      7  C   UNL     1      -5.852 -12.116  -0.107  0.00  0.00    +0.116 C 
ATOM      8  C   UNL     1      -4.889 -13.153  -0.139  0.00  0.00    +0.025 A 
ATOM      9  C   UNL     1      -3.490 -13.165  -0.076  0.00  0.00    +0.031 A 
ATOM     10  C   UNL     1      -2.812 -14.368  -0.134  0.00  0.00    +0.042 A 
ATOM     11  C   UNL     1      -3.511 -15.559  -0.253  0.00  0.00    +0.022 A 
ATOM     12  C   UNL     1      -4.895 -15.568  -0.316  0.00  0.00    +0.025 A 
ATOM     13  C   UNL     1      -5.605 -14.372  -0.261  0.00  0.00    +0.043 A 
ATOM     14  N   UNL     1      -6.944 -14.110  -0.303  0.00  0.00    -0.280 N 
ATOM     15  C   UNL     1      -7.181 -12.814  -0.212  0.00  0.00    +0.264 C 
ATOM     16  O   UNL     1      -8.276 -12.281  -0.216  0.00  0.00    -0.268 OA
ATOM     17 CL   UNL     1      -1.078 -14.387  -0.058  0.00  0.00    -0.084 Cl
ATOM     18  H   UNL     1      -7.632 -14.789  -0.384  0.00  0.00    +0.155 HD
ENDBRANCH   5   7
ENDBRANCH   3   5
BRANCH   1  19
ATOM     19  C   UNL     1      -2.689  -8.492   0.440  0.00  0.00    +0.097 C 
BRANCH  19  20
ATOM     20  C   UNL     1      -2.686  -6.963   0.373  0.00  0.00    +0.009 C 
BRANCH  20  21
ATOM     21  C   UNL     1      -1.267  -6.444   0.612  0.00  0.00    +0.002 C 
BRANCH  21  22
ATOM     22  C   UNL     1      -1.265  -4.916   0.545  0.00  0.00    +0.019 C 
BRANCH  22  23
ATOM     23  C   UNL     1       0.155  -4.397   0.784  0.00  0.00    +0.104 C 
BRANCH  23  26
ATOM     24  C   UNL     1       1.306  -2.253   0.902  0.00  0.00    +0.245 C 
ATOM     25  O   UNL     1       2.340  -2.853   1.120  0.00  0.00    -0.270 OA
ATOM     26  N   UNL     1       0.157  -2.934   0.720  0.00  0.00    -0.311 N 
ATOM     27  H   UNL     1      -0.668  -2.454   0.546  0.00  0.00    +0.149 HD
BRANCH  24  32
ATOM     28  C   UNL     1       0.131   1.294   0.526  0.00  0.00    +0.001 A 
ATOM     29  C   UNL     1       1.312   1.991   0.714  0.00  0.00    +0.001 A 
ATOM     30  C   UNL     1       2.491   1.312   0.963  0.00  0.00    +0.016 A 
ATOM     31  C   UNL     1       2.497  -0.068   1.025  0.00  0.00    +0.030 A 
ATOM     32  C   UNL     1       1.308  -0.776   0.837  0.00  0.00    +0.051 A 
ATOM     33  C   UNL     1       0.122  -0.084   0.586  0.00  0.00    +0.014 A 
ATOM     34 BR   UNL     1       4.110  -0.995   1.365  0.00  0.00    -0.050 Br
ENDBRANCH  24  32
ENDBRANCH  23  26
ENDBRANCH  22  23
ENDBRANCH  21  22
ENDBRANCH  20  21
ENDBRANCH  19  20
ENDBRANCH   1  19
TORSDOF 9
