REMARK  Name = ZINC63807087
REMARK  7 active torsions:
REMARK  status: ('A' for Active; 'I' for Inactive)
REMARK    1  A    between atoms: C_3  and  N_9
REMARK    2  A    between atoms: C_10  and  C_12
REMARK    3  A    between atoms: C_12  and  C_13
REMARK    4  A    between atoms: C_16  and  C_20
REMARK    5  A    between atoms: N_22  and  C_23
REMARK    6  A    between atoms: C_23  and  C_24
REMARK    7  A    between atoms: C_24  and  C_25
REMARK                            x       y       z     vdW  Elec       q    Type
REMARK                         _______ _______ _______ _____ _____    ______ ____
ROOT
ATOM      1  C   UNL     1       4.563   5.736  -0.329  0.00  0.00    +0.158 C 
ATOM      2  N   UNL     1       5.814   6.494  -0.544  0.00  0.00    -0.265 NA
ATOM      3  C   UNL     1       5.957   7.397   0.620  0.00  0.00    +0.297 C 
ATOM      4  O   UNL     1       4.611   7.569   1.119  0.00  0.00    -0.270 OA
ATOM      5  N   UNL     1       4.008   6.226   0.955  0.00  0.00    -0.181 NA
ATOM      6  H   UNL     1       6.605   5.872  -0.618  0.00  0.00    +0.126 HD
ATOM      7  H   UNL     1       4.268   5.617   1.716  0.00  0.00    +0.156 HD
ENDROOT
BRANCH   3   8
ATOM      8  C   UNL     1       6.532   8.722   0.189  0.00  0.00    +0.259 C 
ATOM      9  O   UNL     1       5.838   9.716   0.198  0.00  0.00    -0.271 OA
ATOM     10  N   UNL     1       7.817   8.801  -0.208  0.00  0.00    -0.312 N 
ATOM     11  H   UNL     1       8.373   8.006  -0.216  0.00  0.00    +0.149 HD
BRANCH  10  12
ATOM     12  C   UNL     1       8.377  10.089  -0.627  0.00  0.00    +0.108 C 
BRANCH  12  13
ATOM     13  C   UNL     1       9.842   9.904  -1.025  0.00  0.00    +0.052 C 
BRANCH  13  14
ATOM     14  C   UNL     1      10.417  11.228  -1.456  0.00  0.00    -0.040 C 
ATOM     15  C   UNL     1      11.116  12.099  -0.692  0.00  0.00    +0.000 A 
ATOM     16  C   UNL     1      11.532  12.074   0.715  0.00  0.00    +0.030 A 
ATOM     17  C   UNL     1      12.239  13.117   1.209  0.00  0.00    +0.042 A 
ATOM     18  C   UNL     1      12.582  14.219   0.411  0.00  0.00    +0.022 A 
ATOM     19  C   UNL     1      12.235  14.312  -0.890  0.00  0.00    +0.027 A 
ATOM     20  C   UNL     1      11.491  13.272  -1.513  0.00  0.00    +0.043 A 
ATOM     21  N   UNL     1      11.042  13.133  -2.736  0.00  0.00    -0.380 N 
ATOM     22  C   UNL     1      10.336  11.850  -2.832  0.00  0.00    +0.144 C 
ATOM     23 CL   UNL     1      12.734  13.092   2.873  0.00  0.00    -0.084 Cl
ATOM     24  H   UNL     1      11.160  13.769  -3.459  0.00  0.00    +0.160 HD
ENDBRANCH  13  14
ENDBRANCH  12  13
ENDBRANCH  10  12
ENDBRANCH   3   8
BRANCH   1  25
ATOM     25  C   UNL     1       4.861   4.238  -0.238  0.00  0.00    +0.132 C 
BRANCH  25  27
ATOM     26  N   UNL     1       3.585   2.131  -0.021  0.00  0.00    -0.283 N 
ATOM     27  C   UNL     1       3.568   3.475  -0.116  0.00  0.00    +0.220 C 
ATOM     28  O   UNL     1       2.511   4.070  -0.103  0.00  0.00    -0.275 OA
ATOM     29  H   UNL     1       4.430   1.660   0.049  0.00  0.00    +0.155 HD
BRANCH  26  32
ATOM     30  C   UNL     1       0.065   1.244  -0.621  0.00  0.00    +0.040 A 
ATOM     31  C   UNL     1       1.250   1.954  -0.618  0.00  0.00    +0.029 A 
ATOM     32  C   UNL     1       2.381   1.412  -0.024  0.00  0.00    +0.069 A 
ATOM     33  C   UNL     1       2.319   0.155   0.567  0.00  0.00    +0.147 A 
ATOM     34  C   UNL     1       1.130  -0.551   0.562  0.00  0.00    +0.078 A 
ATOM     35  C   UNL     1       0.004  -0.007  -0.032  0.00  0.00    +0.126 A 
ATOM     36  F   UNL     1      -1.157  -0.698  -0.035  0.00  0.00    -0.205 F 
ATOM     37  F   UNL     1       3.419  -0.375   1.146  0.00  0.00    -0.203 F 
ENDBRANCH  26  32
ENDBRANCH  25  27
ENDBRANCH   1  25
TORSDOF 7
