REMARK  Name = ZINC42954322
REMARK  10 active torsions:
REMARK  status: ('A' for Active; 'I' for Inactive)
REMARK    1  A    between atoms: C_1  and  C_2
REMARK    2  A    between atoms: C_2  and  C_3
REMARK    3  A    between atoms: C_3  and  C_5
REMARK    4  A    between atoms: C_3  and  N_23
REMARK    5  A    between atoms: C_5  and  C_7
REMARK    6  A    between atoms: C_5  and  N_14
REMARK    7  A    between atoms: N_14  and  C_15
REMARK    8  A    between atoms: N_14  and  C_16
REMARK    9  A    between atoms: C_16  and  C_17
REMARK   10  A    between atoms: C_21  and  C_22
REMARK                            x       y       z     vdW  Elec       q    Type
REMARK                         _______ _______ _______ _____ _____    ______ ____
ROOT
ATOM      1  C   UNL     1       0.739  -2.083   1.293  0.00  0.00    -0.052 C 
ENDROOT
BRANCH   1   2
ATOM      2  C   UNL     1       1.511  -2.769   0.195  0.00  0.00    -0.062 A 
ATOM      3  C   UNL     1       0.911  -3.004  -1.028  0.00  0.00    +0.003 A 
ATOM      4  C   UNL     1       1.619  -3.633  -2.035  0.00  0.00    +0.015 A 
ATOM      5  C   UNL     1       2.927  -4.027  -1.819  0.00  0.00    +0.018 A 
ATOM      6  C   UNL     1       3.527  -3.791  -0.595  0.00  0.00    +0.015 A 
ATOM      7  C   UNL     1       2.820  -3.158   0.410  0.00  0.00    +0.003 A 
ATOM      8 BR   UNL     1       3.896  -4.887  -3.197  0.00  0.00    -0.050 Br
ENDBRANCH   1   2
BRANCH   1   9
ATOM      9  N   UNL     1      -0.641  -2.586   1.309  0.00  0.00    +0.384 N 
ATOM     10  C   UNL     1      -0.632  -4.035   1.548  0.00  0.00    -0.095 C 
ATOM     11  H   UNL     1      -1.079  -2.394   0.420  0.00  0.00    -0.081 HD
BRANCH   9  12
ATOM     12  C   UNL     1      -1.393  -1.917   2.379  0.00  0.00    -0.039 C 
BRANCH  12  13
ATOM     13  C   UNL     1      -2.831  -2.366   2.338  0.00  0.00    -0.023 A 
ATOM     14  C   UNL     1      -3.451  -3.289   3.210  0.00  0.00    +0.043 A 
ATOM     15  C   UNL     1      -4.733  -3.396   2.817  0.00  0.00    +0.195 A 
ATOM     16  O   UNL     1      -4.922  -2.591   1.760  0.00  0.00    -0.468 OA
ATOM     17  C   UNL     1      -3.773  -1.959   1.467  0.00  0.00    +0.103 A 
ATOM     18  C   UNL     1      -3.572  -0.967   0.351  0.00  0.00    +0.086 C 
ENDBRANCH  12  13
ENDBRANCH   9  12
ENDBRANCH   1   9
BRANCH   1  19
ATOM     19  C   UNL     1       0.730  -0.574   1.044  0.00  0.00    -0.085 C 
BRANCH  19  20
ATOM     20  N   UNL     1       2.111  -0.091   0.909  0.00  0.00    +0.379 N 
ATOM     21  H   UNL     1       2.105   0.904   0.744  0.00  0.00    -0.090 HD
ATOM     22  H   UNL     1       2.621  -0.289   1.757  0.00  0.00    -0.090 HD
ATOM     23  H   UNL     1       2.556  -0.558   0.133  0.00  0.00    -0.090 HD
ENDBRANCH  19  20
BRANCH  19  25
ATOM     24  C   UNL     1      -0.159   1.240  -0.426  0.00  0.00    +0.002 C 
ATOM     25  C   UNL     1      -0.043  -0.274  -0.242  0.00  0.00    -0.021 C 
ENDBRANCH  19  25
ENDBRANCH   1  19
TORSDOF 7
