REMARK  Name = ZINC39631757
REMARK  16 active torsions:
REMARK  status: ('A' for Active; 'I' for Inactive)
REMARK    1  A    between atoms: C_1  and  C_2
REMARK    2  A    between atoms: C_2  and  C_3
REMARK    3  A    between atoms: C_3  and  C_4
REMARK    4  A    between atoms: C_4  and  C_5
REMARK    5  A    between atoms: C_5  and  C_6
REMARK    6  A    between atoms: C_6  and  C_7
REMARK    7  A    between atoms: C_11  and  C_20
REMARK    8  A    between atoms: N_22  and  C_23
REMARK    9  A    between atoms: C_23  and  C_25
REMARK   10  A    between atoms: C_23  and  C_26
REMARK   11  A    between atoms: C_26  and  C_27
REMARK   12  A    between atoms: C_27  and  C_28
REMARK   13  A    between atoms: C_28  and  C_29
REMARK   14  A    between atoms: C_29  and  C_30
REMARK   15  A    between atoms: C_29  and  C_31
REMARK   16  A    between atoms: C_29  and  O_32
REMARK                            x       y       z     vdW  Elec       q    Type
REMARK                         _______ _______ _______ _____ _____    ______ ____
ROOT
ATOM      1  C   UNL     1       2.283  -4.552  -3.885  0.00  0.00    +0.216 C 
ATOM      2  O   UNL     1       2.690  -3.776  -4.723  0.00  0.00    -0.276 OA
ATOM      3  N   UNL     1       2.377  -5.880  -4.094  0.00  0.00    -0.300 N 
ATOM      4  C   UNL     1       1.933  -6.974  -3.198  0.00  0.00    +0.121 C 
ATOM      5  C   UNL     1       1.337  -8.038  -4.147  0.00  0.00    +0.100 C 
ATOM      6  C   UNL     1       2.008  -7.773  -5.505  0.00  0.00    -0.004 C 
ATOM      7  C   UNL     1       2.942  -6.577  -5.274  0.00  0.00    +0.115 C 
ATOM      8  C   UNL     1       0.958  -7.420  -6.553  0.00  0.00    -0.010 C 
ATOM      9  C   UNL     1       1.643  -7.217  -7.908  0.00  0.00    -0.082 C 
ATOM     10  N   UNL     1       2.350  -8.445  -8.289  0.00  0.00    +0.379 N 
ATOM     11  C   UNL     1       3.420  -8.727  -7.324  0.00  0.00    -0.082 C 
ATOM     12  C   UNL     1       2.810  -8.994  -5.946  0.00  0.00    -0.010 C 
ATOM     13  H   UNL     1       1.699  -9.216  -8.302  0.00  0.00    -0.086 HD
ATOM     14  H   UNL     1       2.750  -8.330  -9.208  0.00  0.00    -0.086 HD
ENDROOT
BRANCH   5  15
ATOM     15  C   UNL     1       1.668  -9.424  -3.656  0.00  0.00    +0.218 C 
ATOM     16  O   UNL     1       2.701  -9.622  -3.052  0.00  0.00    -0.275 OA
ATOM     17  N   UNL     1       0.818 -10.443  -3.889  0.00  0.00    -0.312 N 
ATOM     18  H   UNL     1      -0.008 -10.284  -4.373  0.00  0.00    +0.149 HD
BRANCH  17  19
ATOM     19  C   UNL     1       1.140 -11.790  -3.413  0.00  0.00    +0.070 C 
ATOM     20  C   UNL     1       2.032 -12.494  -4.437  0.00  0.00    +0.028 C 
BRANCH  19  21
ATOM     21  C   UNL     1      -0.152 -12.588  -3.228  0.00  0.00    +0.022 C 
BRANCH  21  22
ATOM     22  C   UNL     1      -0.988 -11.954  -2.115  0.00  0.00    +0.005 C 
BRANCH  22  23
ATOM     23  C   UNL     1      -2.280 -12.753  -1.929  0.00  0.00    +0.034 C 
BRANCH  23  24
ATOM     24  C   UNL     1      -3.116 -12.119  -0.816  0.00  0.00    +0.061 C 
ATOM     25  C   UNL     1      -4.347 -12.987  -0.546  0.00  0.00    +0.041 C 
ATOM     26  C   UNL     1      -2.276 -12.016   0.458  0.00  0.00    +0.041 C 
BRANCH  24  27
ATOM     27  O   UNL     1      -3.534 -10.813  -1.219  0.00  0.00    -0.389 OA
ATOM     28  H   UNL     1      -4.069 -10.351  -0.560  0.00  0.00    +0.210 HD
ENDBRANCH  24  27
ENDBRANCH  23  24
ENDBRANCH  22  23
ENDBRANCH  21  22
ENDBRANCH  19  21
ENDBRANCH  17  19
ENDBRANCH   5  15
BRANCH   1  29
ATOM     29  C   UNL     1       1.671  -4.031  -2.610  0.00  0.00    +0.096 C 
BRANCH  29  30
ATOM     30  C   UNL     1       1.685  -2.502  -2.626  0.00  0.00    +0.009 C 
BRANCH  30  31
ATOM     31  C   UNL     1       1.064  -1.973  -1.331  0.00  0.00    +0.000 C 
BRANCH  31  32
ATOM     32  C   UNL     1       1.078  -0.443  -1.346  0.00  0.00    -0.000 C 
BRANCH  32  34
ATOM     33  C   UNL     1       0.472   1.616  -0.067  0.00  0.00    +0.004 C 
ATOM     34  C   UNL     1       0.457   0.086  -0.052  0.00  0.00    -0.003 C 
ENDBRANCH  32  34
ENDBRANCH  31  32
ENDBRANCH  30  31
ENDBRANCH  29  30
ENDBRANCH   1  29
TORSDOF 12
