REMARK  Name = ZINC23360305
REMARK  7 active torsions:
REMARK  status: ('A' for Active; 'I' for Inactive)
REMARK    1  A    between atoms: C_4  and  C_7
REMARK    2  A    between atoms: C_8  and  C_9
REMARK    3  A    between atoms: C_9  and  N_10
REMARK    4  A    between atoms: N_13  and  C_16
REMARK    5  A    between atoms: C_16  and  C_17
REMARK    6  A    between atoms: C_21  and  C_24
REMARK    7  A    between atoms: N_26  and  C_27
REMARK                            x       y       z     vdW  Elec       q    Type
REMARK                         _______ _______ _______ _____ _____    ______ ____
ROOT
ATOM      1  C   UNL     1       6.814  -8.010   3.112  0.00  0.00    +0.033 A 
ATOM      2  N   UNL     1       7.033  -8.798   2.032  0.00  0.00    -0.324 N 
ATOM      3  C   UNL     1       8.161  -9.525   1.921  0.00  0.00    +0.261 A 
ATOM      4  O   UNL     1       8.340 -10.229   0.942  0.00  0.00    -0.267 OA
ATOM      5  C   UNL     1       9.140  -9.469   2.946  0.00  0.00    +0.101 A 
ATOM      6  C   UNL     1       8.908  -8.656   4.053  0.00  0.00    +0.020 A 
ATOM      7  C   UNL     1       7.724  -7.921   4.115  0.00  0.00    +0.023 A 
ATOM      8  H   UNL     1       6.367  -8.840   1.329  0.00  0.00    +0.169 HD
ENDROOT
BRANCH   5   9
ATOM      9  C   UNL     1      10.378 -10.257   2.842  0.00  0.00    +0.250 C 
ATOM     10  O   UNL     1      11.257 -10.120   3.672  0.00  0.00    -0.270 OA
ATOM     11  N   UNL     1      10.539 -11.129   1.828  0.00  0.00    -0.304 N 
ATOM     12  H   UNL     1       9.864 -11.197   1.135  0.00  0.00    +0.150 HD
BRANCH  11  13
ATOM     13  C   UNL     1      11.733 -11.976   1.773  0.00  0.00    +0.104 C 
ATOM     14  C   UNL     1      11.415 -13.243   0.980  0.00  0.00    +0.027 C 
ATOM     15  C   UNL     1      12.724 -14.008   0.747  0.00  0.00    +0.007 C 
ATOM     16  C   UNL     1      13.575 -13.216  -0.243  0.00  0.00    +0.035 C 
ATOM     17  C   UNL     1      13.703 -11.781   0.198  0.00  0.00    -0.042 A 
ATOM     18  C   UNL     1      12.854 -11.211   1.120  0.00  0.00    -0.024 A 
ATOM     19  C   UNL     1      13.023  -9.880   1.478  0.00  0.00    +0.006 A 
ATOM     20  C   UNL     1      14.035  -9.127   0.920  0.00  0.00    +0.000 A 
ATOM     21  C   UNL     1      14.889  -9.701  -0.004  0.00  0.00    +0.000 A 
ATOM     22  C   UNL     1      14.722 -11.021  -0.361  0.00  0.00    +0.004 A 
ENDBRANCH  11  13
ENDBRANCH   5   9
BRANCH   1  23
ATOM     23  C   UNL     1       5.538  -7.212   3.198  0.00  0.00    +0.137 C 
BRANCH  23  27
ATOM     24  N   UNL     1       5.219  -3.577   1.065  0.00  0.00    +0.384 N 
ATOM     25  C   UNL     1       4.183  -4.595   0.852  0.00  0.00    -0.063 C 
ATOM     26  C   UNL     1       4.188  -5.581   2.022  0.00  0.00    +0.066 C 
ATOM     27  N   UNL     1       5.510  -6.215   2.119  0.00  0.00    -0.300 NA
ATOM     28  C   UNL     1       6.561  -5.206   2.308  0.00  0.00    +0.066 C 
ATOM     29  C   UNL     1       6.537  -4.223   1.135  0.00  0.00    -0.063 C 
ATOM     30  H   UNL     1       5.038  -3.089   1.929  0.00  0.00    -0.081 HD
BRANCH  24  31
ATOM     31  C   UNL     1       5.202  -2.620  -0.050  0.00  0.00    -0.051 C 
BRANCH  31  33
ATOM     32  C   UNL     1       3.894  -0.543  -0.019  0.00  0.00    +0.002 C 
ATOM     33  C   UNL     1       3.896  -1.869  -0.047  0.00  0.00    -0.045 C 
BRANCH  32  37
ATOM     34  C   UNL     1       0.212   1.574  -0.012  0.00  0.00    +0.000 A 
ATOM     35  C   UNL     1       1.407   2.271   0.015  0.00  0.00    +0.001 A 
ATOM     36  C   UNL     1       2.607   1.589   0.013  0.00  0.00    +0.008 A 
ATOM     37  C   UNL     1       2.612   0.194  -0.016  0.00  0.00    -0.025 A 
ATOM     38  C   UNL     1       1.403  -0.503  -0.043  0.00  0.00    +0.008 A 
ATOM     39  C   UNL     1       0.211   0.191  -0.041  0.00  0.00    +0.001 A 
ENDBRANCH  32  37
ENDBRANCH  31  33
ENDBRANCH  24  31
ENDBRANCH  23  27
ENDBRANCH   1  23
TORSDOF 7
