REMARK  Name = ZINC64160345
REMARK  7 active torsions:
REMARK  status: ('A' for Active; 'I' for Inactive)
REMARK    1  A    between atoms: C_4  and  O_7
REMARK    2  A    between atoms: O_7  and  C_8
REMARK    3  A    between atoms: C_11  and  N_14
REMARK    4  A    between atoms: C_15  and  C_17
REMARK    5  A    between atoms: C_17  and  C_19
REMARK    6  A    between atoms: C_17  and  N_29
REMARK    7  A    between atoms: C_19  and  C_20
REMARK                            x       y       z     vdW  Elec       q    Type
REMARK                         _______ _______ _______ _____ _____    ______ ____
ROOT
ATOM      1  C   UNL     1       3.990  -8.408   0.307  0.00  0.00    +0.165 C 
ENDROOT
BRANCH   1   2
ATOM      2  N   UNL     1       5.262  -9.061  -0.011  0.00  0.00    -0.288 N 
ATOM      3  C   UNL     1       6.362  -8.784   0.717  0.00  0.00    +0.298 C 
ATOM      4  O   UNL     1       6.298  -7.992   1.637  0.00  0.00    -0.253 OA
ATOM      5  N   UNL     1       7.532  -9.385   0.424  0.00  0.00    -0.313 N 
ATOM      6  H   UNL     1       5.313  -9.693  -0.745  0.00  0.00    +0.151 HD
ATOM      7  H   UNL     1       7.583 -10.016  -0.310  0.00  0.00    +0.146 HD
ATOM      8  H   UNL     1       8.324  -9.185   0.948  0.00  0.00    +0.146 HD
ENDBRANCH   1   2
BRANCH   1  10
ATOM      9  N   UNL     1       3.057  -6.135   0.022  0.00  0.00    -0.284 N 
ATOM     10  C   UNL     1       4.145  -6.915   0.178  0.00  0.00    +0.238 C 
ATOM     11  O   UNL     1       5.250  -6.415   0.214  0.00  0.00    -0.273 OA
ATOM     12  H   UNL     1       2.180  -6.539  -0.071  0.00  0.00    +0.155 HD
BRANCH   9  16
ATOM     13  C   UNL     1       3.460  -1.986  -0.064  0.00  0.00    +0.129 A 
ATOM     14  C   UNL     1       4.447  -2.790  -0.616  0.00  0.00    +0.048 A 
ATOM     15  C   UNL     1       4.314  -4.164  -0.588  0.00  0.00    +0.027 A 
ATOM     16  C   UNL     1       3.192  -4.741  -0.007  0.00  0.00    +0.034 A 
ATOM     17  C   UNL     1       2.205  -3.936   0.546  0.00  0.00    +0.027 A 
ATOM     18  C   UNL     1       2.341  -2.562   0.522  0.00  0.00    +0.048 A 
BRANCH  13  19
ATOM     19  O   UNL     1       3.591  -0.633  -0.092  0.00  0.00    -0.456 OA
BRANCH  19  23
ATOM     20  C   UNL     1       2.902   1.306  -3.667  0.00  0.00    +0.000 A 
ATOM     21  C   UNL     1       3.156   2.039  -2.522  0.00  0.00    +0.004 A 
ATOM     22  C   UNL     1       3.387   1.392  -1.324  0.00  0.00    +0.046 A 
ATOM     23  C   UNL     1       3.363   0.006  -1.269  0.00  0.00    +0.128 A 
ATOM     24  C   UNL     1       3.107  -0.727  -2.420  0.00  0.00    +0.046 A 
ATOM     25  C   UNL     1       2.877  -0.075  -3.615  0.00  0.00    +0.004 A 
ENDBRANCH  19  23
ENDBRANCH  13  19
ENDBRANCH   9  16
ENDBRANCH   1  10
BRANCH   1  26
ATOM     26  C   UNL     1       3.582  -8.756   1.740  0.00  0.00    +0.065 C 
BRANCH  26  27
ATOM     27  C   UNL     1       3.307 -10.235   1.840  0.00  0.00    -0.039 C 
ATOM     28  C   UNL     1       4.169 -11.197   2.241  0.00  0.00    -0.001 A 
ATOM     29  C   UNL     1       5.567 -11.156   2.687  0.00  0.00    +0.010 A 
ATOM     30  C   UNL     1       6.179 -12.312   3.031  0.00  0.00    +0.001 A 
ATOM     31  C   UNL     1       5.514 -13.545   2.973  0.00  0.00    +0.002 A 
ATOM     32  C   UNL     1       4.230 -13.662   2.574  0.00  0.00    +0.026 A 
ATOM     33  C   UNL     1       3.489 -12.511   2.189  0.00  0.00    +0.043 A 
ATOM     34  N   UNL     1       2.255 -12.366   1.771  0.00  0.00    -0.380 N 
ATOM     35  C   UNL     1       2.010 -10.942   1.517  0.00  0.00    +0.144 C 
ATOM     36  H   UNL     1       1.609 -13.081   1.654  0.00  0.00    +0.160 HD
ENDBRANCH  26  27
ENDBRANCH   1  26
TORSDOF 7
