REMARK  Name = ZINC14981705
REMARK  10 active torsions:
REMARK  status: ('A' for Active; 'I' for Inactive)
REMARK    1  A    between atoms: C_1  and  C_2
REMARK    2  A    between atoms: C_7  and  C_14
REMARK    3  A    between atoms: N_11  and  C_12
REMARK    4  A    between atoms: N_11  and  C_13
REMARK    5  A    between atoms: C_14  and  N_15
REMARK    6  A    between atoms: N_15  and  C_16
REMARK    7  A    between atoms: C_16  and  C_17
REMARK    8  A    between atoms: C_17  and  C_18
REMARK    9  A    between atoms: C_25  and  C_27
REMARK   10  A    between atoms: C_31  and  N_33
REMARK                            x       y       z     vdW  Elec       q    Type
REMARK                         _______ _______ _______ _____ _____    ______ ____
ROOT
ATOM      1  N   UNL     1      -2.432  -0.555   0.181  0.00  0.00    -0.293 N 
ATOM      2  C   UNL     1      -2.454   0.725  -0.243  0.00  0.00    +0.247 C 
ATOM      3  O   UNL     1      -3.513   1.312  -0.347  0.00  0.00    -0.270 OA
ENDROOT
BRANCH   2   4
ATOM      4  C   UNL     1      -1.190   1.414  -0.580  0.00  0.00    +0.039 A 
ATOM      5  C   UNL     1      -0.911   2.670  -0.038  0.00  0.00    +0.013 A 
ATOM      6  C   UNL     1       0.272   3.308  -0.349  0.00  0.00    +0.003 A 
ATOM      7  C   UNL     1       1.181   2.711  -1.202  0.00  0.00    +0.023 A 
ATOM      8  C   UNL     1       0.910   1.464  -1.752  0.00  0.00    +0.039 A 
ATOM      9  C   UNL     1      -0.275   0.814  -1.445  0.00  0.00    +0.036 A 
BRANCH   8  10
ATOM     10  N   UNL     1       1.834   0.864  -2.615  0.00  0.00    -0.254 N 
ATOM     11  C   UNL     1       1.556   0.429  -3.992  0.00  0.00    +0.134 C 
ATOM     12  C   UNL     1       2.900  -0.150  -4.476  0.00  0.00    +0.125 C 
ATOM     13  N   UNL     1       3.790   0.013  -3.317  0.00  0.00    -0.297 N 
ATOM     14  C   UNL     1       3.111   0.589  -2.317  0.00  0.00    +0.307 C 
ATOM     15  O   UNL     1       3.608   0.841  -1.236  0.00  0.00    -0.252 OA
ATOM     16  H   UNL     1       4.722  -0.256  -3.282  0.00  0.00    +0.150 HD
ENDBRANCH   8  10
ENDBRANCH   2   4
BRANCH   1  17
ATOM     17  C   UNL     1      -3.687  -1.290   0.358  0.00  0.00    +0.146 C 
BRANCH  17  24
ATOM     18  C   UNL     1      -6.089  -4.258  -6.589  0.00  0.00    +0.044 C 
ATOM     19  C   UNL     1      -5.766  -3.511  -5.321  0.00  0.00    -0.048 A 
ATOM     20  C   UNL     1      -6.341  -2.263  -5.096  0.00  0.00    +0.004 A 
ATOM     21  C   UNL     1      -6.068  -1.563  -3.959  0.00  0.00    +0.010 A 
ATOM     22  C   UNL     1      -5.198  -2.107  -3.001  0.00  0.00    -0.001 A 
ATOM     23  C   UNL     1      -4.893  -1.413  -1.813  0.00  0.00    +0.018 A 
ATOM     24  C   UNL     1      -4.040  -1.996  -0.925  0.00  0.00    +0.008 A 
ATOM     25  C   UNL     1      -3.488  -3.254  -1.210  0.00  0.00    +0.103 A 
ATOM     26  C   UNL     1      -4.613  -3.376  -3.228  0.00  0.00    +0.048 A 
ATOM     27  C   UNL     1      -4.918  -4.068  -4.413  0.00  0.00    +0.029 A 
ATOM     28  N   UNL     1      -2.618  -3.833  -0.299  0.00  0.00    -0.322 N 
ATOM     29  C   UNL     1      -3.329  -4.758   0.593  0.00  0.00    +0.130 C 
ATOM     30  C   UNL     1      -1.511  -4.511  -0.987  0.00  0.00    +0.130 C 
ATOM     31  N   UNL     1      -3.751  -3.969  -2.332  0.00  0.00    -0.343 N 
ATOM     32  H   UNL     1      -3.334  -4.891  -2.502  0.00  0.00    +0.167 HD
ENDBRANCH  17  24
ENDBRANCH   1  17
BRANCH   1  33
ATOM     33  C   UNL     1      -1.152  -1.210   0.464  0.00  0.00    +0.113 C 
BRANCH  33  34
ATOM     34  C   UNL     1      -0.863  -1.138   1.964  0.00  0.00    +0.054 C 
BRANCH  34  35
ATOM     35  C   UNL     1       0.453  -1.813   2.255  0.00  0.00    -0.046 A 
ATOM     36  C   UNL     1       0.486  -3.162   2.554  0.00  0.00    +0.006 A 
ATOM     37  C   UNL     1       1.692  -3.783   2.816  0.00  0.00    +0.038 A 
ATOM     38  C   UNL     1       2.867  -3.051   2.790  0.00  0.00    +0.123 A 
ATOM     39  C   UNL     1       2.832  -1.698   2.496  0.00  0.00    +0.038 A 
ATOM     40  C   UNL     1       1.625  -1.081   2.229  0.00  0.00    +0.006 A 
ATOM     41  F   UNL     1       4.047  -3.655   3.051  0.00  0.00    -0.205 F 
ENDBRANCH  34  35
ENDBRANCH  33  34
ENDBRANCH   1  33
TORSDOF 7
