REMARK  Name = ZINC45944537
REMARK  5 active torsions:
REMARK  status: ('A' for Active; 'I' for Inactive)
REMARK    1  A    between atoms: C_1  and  C_2
REMARK    2  A    between atoms: N_8  and  C_9
REMARK    3  A    between atoms: C_9  and  C_11
REMARK    4  A    between atoms: C_9  and  C_17
REMARK    5  A    between atoms: C_26  and  O_27
REMARK                            x       y       z     vdW  Elec       q    Type
REMARK                         _______ _______ _______ _____ _____    ______ ____
ROOT
ATOM      1  C   UNL     1       0.048  -2.142   3.611  0.00  0.00    +0.154 C 
ENDROOT
BRANCH   1   2
ATOM      2  C   UNL     1      -0.646  -2.997   4.641  0.00  0.00    +0.024 A 
ATOM      3  C   UNL     1      -0.601  -4.384   4.524  0.00  0.00    +0.030 A 
ATOM      4  C   UNL     1      -1.218  -5.184   5.438  0.00  0.00    +0.051 A 
ATOM      5  C   UNL     1      -1.910  -4.605   6.515  0.00  0.00    +0.022 A 
ATOM      6  C   UNL     1      -2.559  -5.399   7.480  0.00  0.00    +0.013 A 
ATOM      7  C   UNL     1      -3.213  -4.768   8.499  0.00  0.00    +0.020 A 
ATOM      8  C   UNL     1      -3.223  -3.376   8.562  0.00  0.00    +0.111 A 
ATOM      9  N   UNL     1      -2.617  -2.640   7.662  0.00  0.00    -0.251 NA
ATOM     10  C   UNL     1      -1.960  -3.195   6.639  0.00  0.00    +0.114 A 
ATOM     11  C   UNL     1      -1.305  -2.399   5.677  0.00  0.00    +0.148 A 
ATOM     12 CL   UNL     1      -1.149  -6.911   5.272  0.00  0.00    -0.083 Cl
BRANCH  11  13
ATOM     13  O   UNL     1      -1.335  -1.045   5.777  0.00  0.00    -0.504 OA
ATOM     14  H   UNL     1      -2.083  -0.633   5.324  0.00  0.00    +0.292 HD
ENDBRANCH  11  13
ENDBRANCH   1   2
BRANCH   1  22
ATOM     15  C   UNL     1       0.141   1.434  -0.058  0.00  0.00    +0.044 C 
ATOM     16  C   UNL     1       0.158  -0.073  -0.037  0.00  0.00    -0.046 A 
ATOM     17  C   UNL     1       0.210  -0.799  -1.219  0.00  0.00    +0.021 A 
ATOM     18  C   UNL     1       0.225  -2.178  -1.166  0.00  0.00    +0.084 A 
ATOM     19  N   UNL     1       0.190  -2.811  -0.008  0.00  0.00    -0.350 N 
ATOM     20  C   UNL     1       0.139  -2.155   1.140  0.00  0.00    +0.097 A 
ATOM     21  C   UNL     1       0.128  -0.764   1.161  0.00  0.00    +0.045 A 
ATOM     22  N   UNL     1       0.104  -2.862   2.337  0.00  0.00    -0.318 N 
ATOM     23  H   UNL     1       0.116  -3.832   2.327  0.00  0.00    +0.148 HD
ATOM     24  H   UNL     1       0.201  -3.781   0.001  0.00  0.00    +0.166 HD
ENDBRANCH   1  22
BRANCH   1  25
ATOM     25  C   UNL     1       1.448  -1.834   4.076  0.00  0.00    +0.066 A 
ATOM     26  C   UNL     1       2.521  -2.135   3.258  0.00  0.00    +0.025 A 
ATOM     27  C   UNL     1       3.805  -1.848   3.695  0.00  0.00    +0.003 A 
ATOM     28  C   UNL     1       3.962  -1.265   4.944  0.00  0.00    +0.020 A 
ATOM     29  C   UNL     1       2.842  -0.993   5.706  0.00  0.00    +0.111 A 
ATOM     30  N   UNL     1       1.635  -1.275   5.256  0.00  0.00    -0.258 NA
ENDBRANCH   1  25
TORSDOF 4
