REMARK  Name = ZINC53272542
REMARK  13 active torsions:
REMARK  status: ('A' for Active; 'I' for Inactive)
REMARK    1  A    between atoms: C_1  and  C_2
REMARK    2  A    between atoms: C_2  and  N_3
REMARK    3  A    between atoms: N_3  and  C_4
REMARK    4  A    between atoms: N_3  and  C_6
REMARK    5  A    between atoms: C_4  and  C_5
REMARK    6  A    between atoms: C_6  and  C_8
REMARK    7  A    between atoms: C_6  and  C_20
REMARK    8  A    between atoms: C_8  and  N_9
REMARK    9  A    between atoms: C_10  and  C_12
REMARK   10  A    between atoms: C_12  and  C_13
REMARK   11  A    between atoms: C_12  and  C_14
REMARK   12  A    between atoms: C_12  and  N_15
REMARK   13  A    between atoms: N_18  and  C_19
REMARK                            x       y       z     vdW  Elec       q    Type
REMARK                         _______ _______ _______ _____ _____    ______ ____
ROOT
ATOM      1  C   UNL     1       0.744  -0.629  -4.026  0.00  0.00    +0.093 C 
ENDROOT
BRANCH   1   2
ATOM      2  N   UNL     1       1.401  -1.915  -3.782  0.00  0.00    -0.315 N 
ATOM      3  C   UNL     1       2.653  -2.129  -4.234  0.00  0.00    +0.236 C 
ATOM      4  O   UNL     1       3.242  -1.249  -4.825  0.00  0.00    -0.273 OA
ATOM      5  H   UNL     1       0.936  -2.613  -3.294  0.00  0.00    +0.149 HD
BRANCH   3   6
ATOM      6  C   UNL     1       3.320  -3.460  -4.004  0.00  0.00    +0.106 C 
ATOM      7  C   UNL     1       2.849  -4.457  -5.065  0.00  0.00    +0.041 C 
ATOM      8  C   UNL     1       4.838  -3.293  -4.100  0.00  0.00    +0.041 C 
BRANCH   6   9
ATOM      9  N   UNL     1       2.967  -3.960  -2.673  0.00  0.00    -0.286 N 
ATOM     10  C   UNL     1       3.406  -5.168  -2.268  0.00  0.00    +0.300 C 
ATOM     11  O   UNL     1       4.096  -5.843  -3.008  0.00  0.00    -0.253 OA
ATOM     12  N   UNL     1       3.081  -5.628  -1.044  0.00  0.00    -0.302 N 
ATOM     13  C   UNL     1       3.559  -6.941  -0.604  0.00  0.00    +0.129 C 
ATOM     14  H   UNL     1       2.416  -3.422  -2.083  0.00  0.00    +0.151 HD
ATOM     15  H   UNL     1       2.531  -5.090  -0.454  0.00  0.00    +0.150 HD
ENDBRANCH   6   9
ENDBRANCH   3   6
ENDBRANCH   1   2
BRANCH   1  16
ATOM     16  C   UNL     1      -0.624  -0.617  -3.340  0.00  0.00    -0.019 C 
BRANCH  16  17
ATOM     17  C   UNL     1      -1.205   0.772  -3.403  0.00  0.00    -0.041 A 
ATOM     18  C   UNL     1      -0.696   1.772  -2.595  0.00  0.00    +0.003 A 
ATOM     19  C   UNL     1      -1.229   3.046  -2.653  0.00  0.00    +0.000 A 
ATOM     20  C   UNL     1      -2.272   3.321  -3.518  0.00  0.00    +0.001 A 
ATOM     21  C   UNL     1      -2.781   2.322  -4.326  0.00  0.00    +0.020 A 
ATOM     22  C   UNL     1      -2.244   1.048  -4.273  0.00  0.00    +0.043 A 
ATOM     23 CL   UNL     1      -2.880  -0.205  -5.293  0.00  0.00    -0.083 Cl
ENDBRANCH  16  17
BRANCH  16  24
ATOM     24  N   UNL     1      -0.471  -1.021  -1.936  0.00  0.00    +0.385 N 
ATOM     25  H   UNL     1      -0.271  -2.009  -1.890  0.00  0.00    -0.081 HD
BRANCH  24  27
ATOM     26  C   UNL     1       1.566  -1.235  -0.593  0.00  0.00    -0.017 C 
ATOM     27  C   UNL     1       0.635  -0.268  -1.328  0.00  0.00    -0.081 C 
ENDBRANCH  24  27
BRANCH  24  28
ATOM     28  C   UNL     1      -1.714  -0.738  -1.207  0.00  0.00    -0.081 C 
ATOM     29  C   UNL     1      -2.865  -1.526  -1.837  0.00  0.00    -0.017 C 
ENDBRANCH  24  28
ENDBRANCH  16  24
ENDBRANCH   1  16
TORSDOF 8
