REMARK  Name = ZINC09542819
REMARK  6 active torsions:
REMARK  status: ('A' for Active; 'I' for Inactive)
REMARK    1  A    between atoms: C_1  and  C_2
REMARK    2  A    between atoms: C_2  and  C_3
REMARK    3  A    between atoms: C_6  and  C_9
REMARK    4  A    between atoms: C_11  and  C_24
REMARK    5  A    between atoms: C_13  and  C_16
REMARK    6  A    between atoms: C_21  and  O_22
REMARK                            x       y       z     vdW  Elec       q    Type
REMARK                         _______ _______ _______ _____ _____    ______ ____
ROOT
ATOM      1  C   UNL     1       5.125   1.590   1.821  0.00  0.00    +0.040 C 
ATOM      2  N   UNL     1       4.708   1.390   0.628  0.00  0.00    -0.299 NA
ATOM      3  C   UNL     1       3.672   2.184  -0.021  0.00  0.00    +0.081 C 
ATOM      4  C   UNL     1       3.284   3.222   2.121  0.00  0.00    -0.028 C 
ATOM      5  C   UNL     1       4.597   2.688   2.702  0.00  0.00    +0.044 C 
ATOM      6  N   UNL     1       3.480   3.463   0.678  0.00  0.00    +0.401 N 
ATOM      7  H   UNL     1       2.655   3.939   0.297  0.00  0.00    -0.081 HD
ATOM      8  H   UNL     1       4.309   4.054   0.542  0.00  0.00    -0.081 HD
ENDROOT
BRANCH   3   9
ATOM      9  C   UNL     1       2.378   1.413  -0.013  0.00  0.00    -0.039 A 
ATOM     10  C   UNL     1       2.397   0.030  -0.021  0.00  0.00    +0.006 A 
ATOM     11  C   UNL     1       1.211  -0.679  -0.013  0.00  0.00    +0.040 A 
ATOM     12  C   UNL     1       0.002  -0.004   0.002  0.00  0.00    +0.137 A 
ATOM     13  C   UNL     1      -0.017   1.381   0.010  0.00  0.00    +0.053 A 
ATOM     14  C   UNL     1       1.172   2.088   0.002  0.00  0.00    +0.022 A 
ATOM     15 BR   UNL     1      -1.667   2.305   0.022  0.00  0.00    -0.047 Br
ATOM     16  F   UNL     1      -1.158  -0.696   0.009  0.00  0.00    -0.204 F 
ENDBRANCH   3   9
BRANCH   4  17
ATOM     17  C   UNL     1       2.914   4.514   2.803  0.00  0.00    -0.018 A 
ATOM     18  C   UNL     1       3.201   5.722   2.197  0.00  0.00    +0.025 A 
ATOM     19  C   UNL     1       2.862   6.908   2.823  0.00  0.00    +0.041 A 
ATOM     20  C   UNL     1       2.234   6.887   4.056  0.00  0.00    +0.023 A 
ATOM     21  C   UNL     1       1.946   5.681   4.665  0.00  0.00    +0.047 A 
ATOM     22  C   UNL     1       2.280   4.491   4.036  0.00  0.00    +0.119 A 
ATOM     23 CL   UNL     1       3.223   8.425   2.059  0.00  0.00    -0.084 Cl
BRANCH  22  24
ATOM     24  O   UNL     1       1.991   3.303   4.631  0.00  0.00    -0.507 OA
ATOM     25  H   UNL     1       2.693   2.971   5.207  0.00  0.00    +0.292 HD
ENDBRANCH  22  24
ENDBRANCH   4  17
BRANCH   1  29
ATOM     26  C   UNL     1       8.143  -0.966   3.365  0.00  0.00    -0.048 A 
ATOM     27  C   UNL     1       7.671  -1.157   2.079  0.00  0.00    +0.004 A 
ATOM     28  C   UNL     1       6.691  -0.330   1.570  0.00  0.00    +0.010 A 
ATOM     29  C   UNL     1       6.174   0.702   2.358  0.00  0.00    -0.004 A 
ATOM     30  C   UNL     1       6.659   0.892   3.653  0.00  0.00    +0.010 A 
ATOM     31  C   UNL     1       7.636   0.054   4.151  0.00  0.00    +0.004 A 
BRANCH  26  33
ATOM     32  C   UNL     1      10.591  -1.289   3.595  0.00  0.00    +0.009 C 
ATOM     33  C   UNL     1       9.213  -1.874   3.914  0.00  0.00    +0.032 C 
ENDBRANCH  26  33
ENDBRANCH   1  29
TORSDOF 5
