REMARK  Name = ZINC11789178
REMARK  7 active torsions:
REMARK  status: ('A' for Active; 'I' for Inactive)
REMARK    1  A    between atoms: C_4  and  O_7
REMARK    2  A    between atoms: O_7  and  C_8
REMARK    3  A    between atoms: C_8  and  C_9
REMARK    4  A    between atoms: N_11  and  C_12
REMARK    5  A    between atoms: C_21  and  O_23
REMARK    6  A    between atoms: C_28  and  C_29
REMARK    7  A    between atoms: C_28  and  N_63
REMARK                            x       y       z     vdW  Elec       q    Type
REMARK                         _______ _______ _______ _____ _____    ______ ____
ROOT
ATOM      1  C   UNL     1       3.096  -3.648  -1.132  0.00  0.00    +0.133 C 
ATOM      2  C   UNL     1       2.121  -4.726  -0.707  0.00  0.00    -0.021 A 
ATOM      3  C   UNL     1       2.214  -6.104  -0.794  0.00  0.00    +0.006 A 
ATOM      4  C   UNL     1       1.184  -6.902  -0.337  0.00  0.00    +0.000 A 
ATOM      5  C   UNL     1       0.054  -6.322   0.211  0.00  0.00    +0.000 A 
ATOM      6  C   UNL     1      -0.041  -4.947   0.300  0.00  0.00    +0.004 A 
ATOM      7  C   UNL     1       0.992  -4.145  -0.158  0.00  0.00    -0.034 A 
ATOM      8  C   UNL     1       1.136  -2.643  -0.174  0.00  0.00    +0.021 C 
ATOM      9  C   UNL     1       2.636  -2.372  -0.394  0.00  0.00    +0.149 C 
ATOM     10  C   UNL     1       0.325  -2.042  -1.319  0.00  0.00    -0.005 C 
ATOM     11  C   UNL     1       0.466  -0.517  -1.294  0.00  0.00    -0.077 C 
ATOM     12  C   UNL     1       0.819  -0.525   1.105  0.00  0.00    -0.077 C 
ATOM     13  C   UNL     1       0.690  -2.050   1.160  0.00  0.00    -0.005 C 
ATOM     14  N   UNL     1      -0.027  -0.013   0.006  0.00  0.00    +0.383 N 
ATOM     15  H   UNL     1      -0.990  -0.340   0.147  0.00  0.00    -0.081 HD
ENDROOT
BRANCH   1  18
ATOM     16  C   UNL     1       3.776  -4.213  -3.403  0.00  0.00    +0.251 C 
ATOM     17  O   UNL     1       4.502  -5.068  -2.941  0.00  0.00    -0.272 OA
ATOM     18  N   UNL     1       3.030  -3.447  -2.582  0.00  0.00    -0.303 N 
ATOM     19  H   UNL     1       2.450  -2.763  -2.951  0.00  0.00    +0.149 HD
BRANCH  16  20
ATOM     20  C   UNL     1       3.709  -4.006  -4.894  0.00  0.00    +0.324 C 
BRANCH  20  21
ATOM     21  O   UNL     1       4.584  -4.931  -5.543  0.00  0.00    -0.483 OA
BRANCH  21  25
ATOM     22  C   UNL     1       4.761  -4.768  -9.661  0.00  0.00    +0.000 A 
ATOM     23  C   UNL     1       5.528  -5.690  -8.974  0.00  0.00    +0.004 A 
ATOM     24  C   UNL     1       5.471  -5.746  -7.595  0.00  0.00    +0.045 A 
ATOM     25  C   UNL     1       4.642  -4.877  -6.900  0.00  0.00    +0.121 A 
ATOM     26  C   UNL     1       3.869  -3.957  -7.592  0.00  0.00    +0.045 A 
ATOM     27  C   UNL     1       3.934  -3.901  -8.971  0.00  0.00    +0.004 A 
ENDBRANCH  21  25
ENDBRANCH  20  21
ENDBRANCH  16  20
ENDBRANCH   1  18
BRANCH   9  28
ATOM     28  O   UNL     1       3.316  -2.235   0.856  0.00  0.00    -0.389 OA
ATOM     29  H   UNL     1       4.264  -2.064   0.771  0.00  0.00    +0.210 HD
ENDBRANCH   9  28
BRANCH  14  30
ATOM     30  C   UNL     1      -0.018   1.465   0.010  0.00  0.00    -0.037 C 
BRANCH  30  31
ATOM     31  C   UNL     1      -0.723   1.951   1.250  0.00  0.00    +0.009 A 
ATOM     32  C   UNL     1      -2.090   2.169   1.228  0.00  0.00    +0.128 A 
ATOM     33  C   UNL     1      -2.739   2.610   2.369  0.00  0.00    +0.041 A 
ATOM     34  C   UNL     1      -2.022   2.844   3.527  0.00  0.00    +0.044 A 
ATOM     35  C   UNL     1      -0.654   2.632   3.549  0.00  0.00    +0.159 A 
ATOM     36  C   UNL     1      -0.004   2.185   2.409  0.00  0.00    +0.162 A 
ATOM     37  F   UNL     1       1.331   1.978   2.429  0.00  0.00    -0.202 F 
ATOM     38  F   UNL     1       0.047   2.861   4.681  0.00  0.00    -0.202 F 
ATOM     39  F   UNL     1      -2.792   1.946   0.096  0.00  0.00    -0.205 F 
ENDBRANCH  30  31
ENDBRANCH  14  30
TORSDOF 7
