REMARK  Name = ZINC09272548
REMARK  6 active torsions:
REMARK  status: ('A' for Active; 'I' for Inactive)
REMARK    1  A    between atoms: C_1  and  O_2
REMARK    2  A    between atoms: O_2  and  C_3
REMARK    3  A    between atoms: C_6  and  C_9
REMARK    4  A    between atoms: C_9  and  C_11
REMARK    5  A    between atoms: N_29  and  C_32
REMARK    6  A    between atoms: C_36  and  N_38
REMARK                            x       y       z     vdW  Elec       q    Type
REMARK                         _______ _______ _______ _____ _____    ______ ____
ROOT
ATOM      1  C   UNL     1       5.333  -2.594  -1.719  0.00  0.00    +0.141 C 
ATOM      2  C   UNL     1       5.159  -2.388  -0.201  0.00  0.00    +0.116 C 
ATOM      3  C   UNL     1       5.905  -1.047   0.077  0.00  0.00    +0.113 C 
ATOM      4  C   UNL     1       6.950  -0.962  -1.033  0.00  0.00    +0.100 C 
ATOM      5  C   UNL     1       7.070  -1.768  -3.406  0.00  0.00    +0.054 C 
ATOM      6  C   UNL     1       7.519  -0.564  -3.815  0.00  0.00    +0.022 C 
ATOM      7  C   UNL     1       7.349   0.610  -2.935  0.00  0.00    -0.019 A 
ATOM      8  C   UNL     1       7.076   0.439  -1.572  0.00  0.00    -0.021 A 
ATOM      9  C   UNL     1       6.927   1.533  -0.753  0.00  0.00    +0.006 A 
ATOM     10  C   UNL     1       7.042   2.810  -1.277  0.00  0.00    +0.000 A 
ATOM     11  C   UNL     1       7.306   2.990  -2.623  0.00  0.00    +0.001 A 
ATOM     12  C   UNL     1       7.460   1.901  -3.455  0.00  0.00    +0.008 A 
ATOM     13  C   UNL     1       4.807  -0.027  -0.141  0.00  0.00    +0.232 C 
ATOM     14  O   UNL     1       4.969   1.152  -0.371  0.00  0.00    -0.274 OA
ATOM     15  N   UNL     1       3.624  -0.652  -0.035  0.00  0.00    -0.210 N 
ATOM     16  C   UNL     1       3.715  -1.988   0.062  0.00  0.00    +0.232 C 
ATOM     17  O   UNL     1       2.803  -2.745   0.313  0.00  0.00    -0.274 OA
ATOM     18  N   UNL     1       6.696  -2.034  -1.966  0.00  0.00    -0.384 NA
ATOM     19  H   UNL     1       7.341  -2.780  -1.683  0.00  0.00    +0.127 HD
ENDROOT
BRANCH  15  20
ATOM     20  C   UNL     1       2.399   0.030  -0.020  0.00  0.00    +0.046 A 
ATOM     21  C   UNL     1       1.619   0.035   1.128  0.00  0.00    +0.024 A 
ATOM     22  C   UNL     1       0.413   0.708   1.139  0.00  0.00    +0.004 A 
ATOM     23  C   UNL     1      -0.017   1.377   0.008  0.00  0.00    +0.033 A 
ATOM     24  C   UNL     1       0.758   1.375  -1.137  0.00  0.00    +0.128 A 
ATOM     25  C   UNL     1       1.965   0.703  -1.154  0.00  0.00    +0.056 A 
BRANCH  24  26
ATOM     26  N   UNL     1       0.294   2.092  -2.346  0.00  0.00    +0.056 N 
ATOM     27  O   UNL     1      -0.770   2.684  -2.331  0.00  0.00    -0.126 OA
ATOM     28  O   UNL     1       0.976   2.090  -3.355  0.00  0.00    -0.126 OA
ENDBRANCH  24  26
ENDBRANCH  15  20
BRANCH   1  29
ATOM     29  C   UNL     1       4.099  -2.122  -2.443  0.00  0.00    +0.183 C 
ATOM     30  O   UNL     1       4.117  -1.071  -3.049  0.00  0.00    -0.290 OA
BRANCH  29  34
ATOM     31  C   UNL     1       0.570  -4.462  -2.362  0.00  0.00    +0.120 A 
ATOM     32  C   UNL     1       0.587  -3.258  -3.058  0.00  0.00    +0.046 A 
ATOM     33  C   UNL     1       1.727  -2.496  -3.087  0.00  0.00    +0.015 A 
ATOM     34  C   UNL     1       2.875  -2.933  -2.415  0.00  0.00    +0.019 A 
ATOM     35  C   UNL     1       2.854  -4.149  -1.721  0.00  0.00    +0.015 A 
ATOM     36  C   UNL     1       1.708  -4.900  -1.693  0.00  0.00    +0.046 A 
BRANCH  31  38
ATOM     37  C   UNL     1      -0.510  -6.437  -1.603  0.00  0.00    +0.277 C 
ATOM     38  O   UNL     1      -0.561  -5.211  -2.336  0.00  0.00    -0.495 OA
ENDBRANCH  31  38
ENDBRANCH  29  34
ENDBRANCH   1  29
TORSDOF 5
