REMARK  Name = ZINC43021936
REMARK  10 active torsions:
REMARK  status: ('A' for Active; 'I' for Inactive)
REMARK    1  A    between atoms: C_1  and  C_2
REMARK    2  A    between atoms: C_2  and  C_3
REMARK    3  A    between atoms: C_3  and  C_5
REMARK    4  A    between atoms: C_3  and  N_22
REMARK    5  A    between atoms: C_5  and  C_7
REMARK    6  A    between atoms: C_5  and  N_14
REMARK    7  A    between atoms: N_14  and  C_15
REMARK    8  A    between atoms: N_14  and  C_17
REMARK    9  A    between atoms: C_15  and  C_16
REMARK   10  A    between atoms: C_17  and  C_18
REMARK                            x       y       z     vdW  Elec       q    Type
REMARK                         _______ _______ _______ _____ _____    ______ ____
ROOT
ATOM      1  C   UNL     1       0.744  -2.029  -1.333  0.00  0.00    +0.073 C 
ENDROOT
BRANCH   1   2
ATOM      2  C   UNL     1       1.577  -2.889  -0.418  0.00  0.00    -0.031 A 
ATOM      3  C   UNL     1       1.143  -3.154   0.868  0.00  0.00    +0.005 A 
ATOM      4  C   UNL     1       1.907  -3.943   1.707  0.00  0.00    +0.001 A 
ATOM      5  C   UNL     1       3.105  -4.468   1.260  0.00  0.00    +0.015 A 
ATOM      6  C   UNL     1       3.539  -4.205  -0.026  0.00  0.00    +0.018 A 
ATOM      7  C   UNL     1       2.772  -3.419  -0.867  0.00  0.00    +0.020 A 
ATOM      8 BR   UNL     1       5.178  -4.923  -0.637  0.00  0.00    -0.050 Br
ENDBRANCH   1   2
BRANCH   1   9
ATOM      9  C   UNL     1       0.977  -0.554  -0.998  0.00  0.00    -0.053 C 
BRANCH   9  10
ATOM     10  N   UNL     1       2.415  -0.259  -1.065  0.00  0.00    +0.381 N 
ATOM     11  H   UNL     1       2.755  -0.451  -1.995  0.00  0.00    -0.090 HD
ATOM     12  H   UNL     1       2.569   0.714  -0.844  0.00  0.00    -0.090 HD
ATOM     13  H   UNL     1       2.908  -0.837  -0.401  0.00  0.00    -0.090 HD
ENDBRANCH   9  10
BRANCH   9  15
ATOM     14  C   UNL     1       0.581   1.235   0.701  0.00  0.00    +0.002 C 
ATOM     15  C   UNL     1       0.462  -0.263   0.413  0.00  0.00    -0.018 C 
ENDBRANCH   9  15
ENDBRANCH   1   9
BRANCH   1  16
ATOM     16  N   UNL     1      -0.677  -2.353  -1.150  0.00  0.00    -0.289 NA
BRANCH  16  17
ATOM     17  C   UNL     1      -0.924  -3.784  -1.371  0.00  0.00    +0.082 C 
ATOM     18  C   UNL     1      -0.598  -4.139  -2.824  0.00  0.00    +0.020 C 
ENDBRANCH  16  17
BRANCH  16  19
ATOM     19  C   UNL     1      -1.522  -1.531  -2.027  0.00  0.00    +0.198 C 
BRANCH  19  20
ATOM     20  C   UNL     1      -2.969  -1.577  -1.531  0.00  0.00    +0.402 C 
ATOM     21  F   UNL     1      -3.011  -1.212  -0.181  0.00  0.00    -0.169 F 
ATOM     22  F   UNL     1      -3.747  -0.687  -2.279  0.00  0.00    -0.169 F 
ATOM     23  F   UNL     1      -3.472  -2.874  -1.680  0.00  0.00    -0.169 F 
ENDBRANCH  19  20
ENDBRANCH  16  19
ENDBRANCH   1  16
TORSDOF 8
