REMARK  Name = ZINC03129087
REMARK  4 active torsions:
REMARK  status: ('A' for Active; 'I' for Inactive)
REMARK    1  A    between atoms: C_1  and  C_2
REMARK    2  A    between atoms: C_2  and  C_3
REMARK    3  A    between atoms: C_2  and  N_4
REMARK    4  A    between atoms: N_9  and  C_12
REMARK                            x       y       z     vdW  Elec       q    Type
REMARK                         _______ _______ _______ _____ _____    ______ ____
ROOT
ATOM      1  N   UNL     1      -4.646   4.182   0.001  0.00  0.00    -0.242 N 
ATOM      2  C   UNL     1      -4.084   5.404   0.119  0.00  0.00    +0.308 C 
ATOM      3  O   UNL     1      -4.655   6.472   0.187  0.00  0.00    -0.265 OA
ATOM      4  C   UNL     1      -2.606   5.162   0.154  0.00  0.00    +0.312 C 
ATOM      5  O   UNL     1      -1.727   5.992   0.258  0.00  0.00    -0.264 OA
ATOM      6  N   UNL     1      -2.458   3.824   0.044  0.00  0.00    -0.214 N 
ATOM      7  C   UNL     1      -3.672   3.258  -0.042  0.00  0.00    +0.154 C 
ATOM      8  S   UNL     1      -3.945   1.575  -0.190  0.00  0.00    -0.017 S 
ENDROOT
BRANCH   6   9
ATOM      9  C   UNL     1      -1.236   3.138   0.029  0.00  0.00    +0.043 A 
ATOM     10  C   UNL     1      -0.364   3.294  -1.039  0.00  0.00    +0.024 A 
ATOM     11  C   UNL     1       0.837   2.612  -1.054  0.00  0.00    +0.002 A 
ATOM     12  C   UNL     1       1.176   1.782  -0.001  0.00  0.00    +0.000 A 
ATOM     13  C   UNL     1       0.311   1.628   1.067  0.00  0.00    +0.002 A 
ATOM     14  C   UNL     1      -0.894   2.304   1.085  0.00  0.00    +0.024 A 
ENDBRANCH   6   9
BRANCH   1  16
ATOM     15  C   UNL     1      -6.763   4.417   1.203  0.00  0.00    +0.028 C 
ATOM     16  C   UNL     1      -6.084   3.909  -0.070  0.00  0.00    +0.078 C 
ATOM     17  C   UNL     1      -6.679   4.622  -1.286  0.00  0.00    +0.028 C 
ENDBRANCH   1  16
TORSDOF 2
