REMARK  Name = ZINC13021069
REMARK  3 active torsions:
REMARK  status: ('A' for Active; 'I' for Inactive)
REMARK    1  A    between atoms: C_1  and  C_2
REMARK    2  A    between atoms: C_9  and  C_11
REMARK    3  A    between atoms: C_17  and  C_19
REMARK                            x       y       z     vdW  Elec       q    Type
REMARK                         _______ _______ _______ _____ _____    ______ ____
ROOT
ATOM      1  C   UNL     1      -2.340   4.888  -0.037  0.00  0.00    +0.009 C 
ATOM      2  C   UNL     1      -2.141   3.371  -0.040  0.00  0.00    +0.003 C 
ATOM      3  C   UNL     1      -1.532   2.933   1.294  0.00  0.00    +0.006 C 
ATOM      4  C   UNL     1      -1.359   1.412   1.307  0.00  0.00    +0.019 C 
ATOM      5  C   UNL     1      -0.408   1.001   0.179  0.00  0.00    +0.108 C 
ATOM      6  N   UNL     1      -0.912   1.543  -1.090  0.00  0.00    -0.301 N 
ATOM      7  C   UNL     1      -1.195   2.982  -1.181  0.00  0.00    +0.111 C 
ATOM      8  C   UNL     1      -1.111   0.736  -2.151  0.00  0.00    +0.219 C 
ATOM      9  O   UNL     1      -1.587   1.184  -3.173  0.00  0.00    -0.275 OA
ENDROOT
BRANCH   8  10
ATOM     10  C   UNL     1      -0.741  -0.722  -2.068  0.00  0.00    +0.078 C 
ATOM     11  C   UNL     1       0.778  -0.857  -1.941  0.00  0.00    +0.032 C 
ATOM     12  C   UNL     1       1.148  -2.339  -1.822  0.00  0.00    +0.108 C 
ATOM     13  N   UNL     1       0.572  -3.063  -2.963  0.00  0.00    -0.302 N 
ATOM     14  C   UNL     1      -0.867  -2.930  -3.231  0.00  0.00    +0.108 C 
ATOM     15  C   UNL     1      -1.214  -1.441  -3.334  0.00  0.00    +0.032 C 
ATOM     16  C   UNL     1       1.348  -3.834  -3.749  0.00  0.00    +0.212 C 
ATOM     17  O   UNL     1       2.515  -4.007  -3.467  0.00  0.00    -0.276 OA
ATOM     18  C   UNL     1       0.766  -4.483  -4.978  0.00  0.00    +0.109 C 
ENDBRANCH   8  10
TORSDOF 1
