REMARK  Name = ZINC13647989
REMARK  9 active torsions:
REMARK  status: ('A' for Active; 'I' for Inactive)
REMARK    1  A    between atoms: C_1  and  C_2
REMARK    2  A    between atoms: C_2  and  O_3
REMARK    3  A    between atoms: O_3  and  C_4
REMARK    4  A    between atoms: C_6  and  C_20
REMARK    5  A    between atoms: C_9  and  O_10
REMARK    6  A    between atoms: O_10  and  C_11
REMARK    7  A    between atoms: C_11  and  C_12
REMARK    8  A    between atoms: N_21  and  N_22
REMARK    9  A    between atoms: C_23  and  C_24
REMARK                            x       y       z     vdW  Elec       q    Type
REMARK                         _______ _______ _______ _____ _____    ______ ____
ROOT
ATOM      1  C   UNL     1       1.214  -1.768   0.189  0.00  0.00    +0.164 A 
ATOM      2  C   UNL     1       0.658  -2.806   0.911  0.00  0.00    +0.059 A 
ATOM      3  C   UNL     1       0.694  -4.108   0.399  0.00  0.00    -0.001 A 
ATOM      4  C   UNL     1       1.294  -4.351  -0.842  0.00  0.00    +0.028 A 
ATOM      5  C   UNL     1       1.847  -3.309  -1.556  0.00  0.00    +0.064 A 
ATOM      6  C   UNL     1       1.805  -2.016  -1.048  0.00  0.00    +0.176 A 
ATOM      7 BR   UNL     1       2.657  -3.638  -3.232  0.00  0.00    -0.046 Br
ENDROOT
BRANCH   3   8
ATOM      8  C   UNL     1       0.105  -5.217   1.162  0.00  0.00    +0.140 C 
ATOM      9  N   UNL     1       0.140  -6.433   0.682  0.00  0.00    -0.180 NA
BRANCH   9  10
ATOM     10  N   UNL     1      -0.378  -7.406   1.352  0.00  0.00    -0.263 N 
ATOM     11  C   UNL     1      -0.342  -8.629   0.869  0.00  0.00    +0.143 C 
ATOM     12  N   UNL     1      -0.896  -9.670   1.585  0.00  0.00    -0.342 N 
ATOM     13  H   UNL     1      -1.414  -9.487   2.385  0.00  0.00    +0.144 HD
ATOM     14  H   UNL     1      -0.767 -10.585   1.290  0.00  0.00    +0.144 HD
ATOM     15  H   UNL     1      -0.793  -7.236   2.212  0.00  0.00    +0.190 HD
BRANCH  11  16
ATOM     16  C   UNL     1       0.289  -8.887  -0.440  0.00  0.00    +0.187 A 
ATOM     17  C   UNL     1       0.032 -10.045  -1.308  0.00  0.00    +0.191 A 
ATOM     18  N   UNL     1       0.771  -9.929  -2.376  0.00  0.00    -0.033 NA
ATOM     19  O   UNL     1       1.520  -8.732  -2.262  0.00  0.00    -0.240 OA
ATOM     20  N   UNL     1       1.172  -8.122  -1.032  0.00  0.00    -0.044 NA
ATOM     21  N   UNL     1      -0.848 -11.084  -1.036  0.00  0.00    -0.339 N 
ATOM     22  H   UNL     1      -1.438 -11.032  -0.268  0.00  0.00    +0.144 HD
ATOM     23  H   UNL     1      -0.872 -11.862  -1.615  0.00  0.00    +0.144 HD
ENDBRANCH  11  16
ENDBRANCH   9  10
ENDBRANCH   3   8
BRANCH   1  24
ATOM     24  O   UNL     1       1.180  -0.502   0.684  0.00  0.00    -0.489 OA
BRANCH  24  26
ATOM     25  C   UNL     1       0.617   1.159   2.347  0.00  0.00    +0.048 C 
ATOM     26  C   UNL     1       0.560  -0.319   1.958  0.00  0.00    +0.226 C 
ENDBRANCH  24  26
ENDBRANCH   1  24
BRANCH   6  27
ATOM     27  O   UNL     1       2.346  -0.992  -1.759  0.00  0.00    -0.483 OA
BRANCH  27  28
ATOM     28  C   UNL     1       3.724  -0.697  -1.524  0.00  0.00    +0.264 C 
BRANCH  28  29
ATOM     29  C   UNL     1       4.146   0.459  -2.394  0.00  0.00    -0.010 A 
ATOM     30  C   UNL     1       4.645   0.224  -3.662  0.00  0.00    +0.008 A 
ATOM     31  C   UNL     1       5.032   1.284  -4.460  0.00  0.00    +0.020 A 
ATOM     32  C   UNL     1       4.919   2.581  -3.990  0.00  0.00    +0.041 A 
ATOM     33  C   UNL     1       4.420   2.815  -2.721  0.00  0.00    +0.020 A 
ATOM     34  C   UNL     1       4.028   1.755  -1.926  0.00  0.00    +0.008 A 
ATOM     35 CL   UNL     1       5.405   3.913  -4.992  0.00  0.00    -0.084 Cl
ENDBRANCH  28  29
ENDBRANCH  27  28
ENDBRANCH   6  27
TORSDOF 8
