REMARK  Name = ZINC02927304
REMARK  9 active torsions:
REMARK  status: ('A' for Active; 'I' for Inactive)
REMARK    1  A    between atoms: C_1  and  C_2
REMARK    2  A    between atoms: C_5  and  C_8
REMARK    3  A    between atoms: C_8  and  N_9
REMARK    4  A    between atoms: C_10  and  C_12
REMARK    5  A    between atoms: C_12  and  S_13
REMARK    6  A    between atoms: S_13  and  C_14
REMARK    7  A    between atoms: C_18  and  C_22
REMARK    8  A    between atoms: N_25  and  C_26
REMARK    9  A    between atoms: C_29  and  C_32
REMARK                            x       y       z     vdW  Elec       q    Type
REMARK                         _______ _______ _______ _____ _____    ______ ____
ROOT
ATOM      1  C   UNL     1      -1.184   1.883  -6.357  0.00  0.00    +0.177 A 
ATOM      2  N   UNL     1      -2.218   2.594  -5.980  0.00  0.00    -0.201 NA
ATOM      3  C   UNL     1      -3.054   3.168  -6.858  0.00  0.00    +0.187 A 
ATOM      4  C   UNL     1      -2.830   3.012  -8.233  0.00  0.00    +0.082 A 
ATOM      5  C   UNL     1      -3.847   3.711  -8.906  0.00  0.00    +0.046 A 
ATOM      6  N   UNL     1      -4.633   4.252  -8.015  0.00  0.00    -0.279 N 
ATOM      7  N   UNL     1      -4.171   3.935  -6.732  0.00  0.00    -0.153 NA
ATOM      8  H   UNL     1      -5.501   4.847  -8.337  0.00  0.00    +0.189 HD
ATOM      9  C   UNL     1      -4.003   3.817 -10.401  0.00  0.00    +0.066 C 
ATOM     10  C   UNL     1      -1.673   2.217  -8.664  0.00  0.00    +0.124 A 
ATOM     11  N   UNL     1      -1.407   2.033  -9.934  0.00  0.00    -0.384 N 
ATOM     12  N   UNL     1      -0.870   1.673  -7.673  0.00  0.00    -0.275 N 
ATOM     13  H   UNL     1      -0.534   1.433 -10.232  0.00  0.00    +0.157 HD
ATOM     14  H   UNL     1      -2.056   2.478 -10.702  0.00  0.00    +0.157 HD
ENDROOT
BRANCH  12  15
ATOM     15  C   UNL     1       0.252   0.908  -8.015  0.00  0.00    +0.050 A 
ATOM     16  C   UNL     1       1.319   1.497  -8.681  0.00  0.00    +0.026 A 
ATOM     17  C   UNL     1       2.425   0.741  -9.014  0.00  0.00    +0.005 A 
ATOM     18  C   UNL     1       2.468  -0.603  -8.694  0.00  0.00    -0.050 A 
ATOM     19  C   UNL     1       1.405  -1.194  -8.036  0.00  0.00    +0.005 A 
ATOM     20  C   UNL     1       0.297  -0.443  -7.696  0.00  0.00    +0.026 A 
ATOM     21  C   UNL     1       3.674  -1.427  -9.065  0.00  0.00    +0.044 C 
ENDBRANCH  12  15
BRANCH   1  22
ATOM     22  S   UNL     1      -0.150   1.174  -5.119  0.00  0.00    -0.078 S 
BRANCH  22  23
ATOM     23  C   UNL     1      -0.997   1.758  -3.630  0.00  0.00    +0.173 C 
BRANCH  23  25
ATOM     24  N   UNL     1      -0.721   1.571  -1.179  0.00  0.00    -0.311 N 
ATOM     25  C   UNL     1      -0.268   1.259  -2.409  0.00  0.00    +0.224 C 
ATOM     26  O   UNL     1       0.726   0.575  -2.534  0.00  0.00    -0.275 OA
ATOM     27  H   UNL     1      -1.623   2.191  -1.066  0.00  0.00    +0.149 HD
BRANCH  24  28
ATOM     28  C   UNL     1      -0.013   1.086   0.008  0.00  0.00    +0.139 C 
BRANCH  28  33
ATOM     29  C   UNL     1      -2.717   2.949   4.763  0.00  0.00    +0.044 C 
ATOM     30  C   UNL     1      -2.011   2.463   3.523  0.00  0.00    -0.050 A 
ATOM     31  C   UNL     1      -2.366   1.254   2.955  0.00  0.00    +0.003 A 
ATOM     32  C   UNL     1      -1.719   0.808   1.818  0.00  0.00    +0.005 A 
ATOM     33  C   UNL     1      -0.718   1.572   1.248  0.00  0.00    -0.030 A 
ATOM     34  C   UNL     1      -0.360   2.779   1.819  0.00  0.00    +0.005 A 
ATOM     35  C   UNL     1      -1.010   3.227   2.953  0.00  0.00    +0.003 A 
ENDBRANCH  28  33
ENDBRANCH  24  28
ENDBRANCH  23  25
ENDBRANCH  22  23
ENDBRANCH   1  22
TORSDOF 6
