REMARK  Name = ZINC23078127
REMARK  11 active torsions:
REMARK  status: ('A' for Active; 'I' for Inactive)
REMARK    1  A    between atoms: C_1  and  C_2
REMARK    2  A    between atoms: C_2  and  C_4
REMARK    3  A    between atoms: C_2  and  N_14
REMARK    4  A    between atoms: C_7  and  S_10
REMARK    5  A    between atoms: S_10  and  N_13
REMARK    6  A    between atoms: N_14  and  C_15
REMARK    7  A    between atoms: C_15  and  C_17
REMARK    8  A    between atoms: C_15  and  C_18
REMARK    9  A    between atoms: N_20  and  C_21
REMARK   10  A    between atoms: C_26  and  O_27
REMARK   11  A    between atoms: O_27  and  C_28
REMARK                            x       y       z     vdW  Elec       q    Type
REMARK                         _______ _______ _______ _____ _____    ______ ____
ROOT
ATOM      1  N   UNL     1      -3.524   4.482   4.780  0.00  0.00    +0.391 N 
ATOM      2  H   UNL     1      -2.671   5.136   5.014  0.00  0.00    -0.084 HD
ATOM      3  H   UNL     1      -3.849   4.660   3.744  0.00  0.00    -0.084 HD
ENDROOT
BRANCH   1   5
ATOM      4  C   UNL     1      -1.630   2.938   4.611  0.00  0.00    -0.009 C 
ATOM      5  C   UNL     1      -3.120   3.078   4.931  0.00  0.00    -0.043 C 
BRANCH   5   6
ATOM      6  C   UNL     1      -3.920   2.220   3.985  0.00  0.00    -0.062 A 
ATOM      7  C   UNL     1      -4.385   0.985   4.397  0.00  0.00    +0.004 A 
ATOM      8  C   UNL     1      -5.118   0.198   3.528  0.00  0.00    +0.029 A 
ATOM      9  C   UNL     1      -5.386   0.646   2.248  0.00  0.00    +0.105 A 
ATOM     10  C   UNL     1      -4.917   1.879   1.835  0.00  0.00    +0.029 A 
ATOM     11  C   UNL     1      -4.188   2.668   2.705  0.00  0.00    +0.004 A 
BRANCH   9  12
ATOM     12  S   UNL     1      -6.320  -0.357   1.141  0.00  0.00    +0.056 S 
ATOM     13  O   UNL     1      -6.173  -1.698   1.587  0.00  0.00    -0.153 OA
ATOM     14  O   UNL     1      -5.968   0.053  -0.173  0.00  0.00    -0.153 OA
BRANCH  12  15
ATOM     15  N   UNL     1      -7.915   0.038   1.349  0.00  0.00    -0.204 NA
ATOM     16  H   UNL     1      -8.534  -0.569   0.673  0.00  0.00    +0.144 HD
ATOM     17  H   UNL     1      -8.061   1.105   1.122  0.00  0.00    +0.144 HD
ENDBRANCH  12  15
ENDBRANCH   9  12
ENDBRANCH   5   6
ENDBRANCH   1   5
BRANCH   1  18
ATOM     18  C   UNL     1      -4.633   4.811   5.685  0.00  0.00    +0.014 C 
ATOM     19  C   UNL     1      -4.072   5.298   7.023  0.00  0.00    -0.004 C 
BRANCH  18  20
ATOM     20  C   UNL     1      -5.478   5.897   5.070  0.00  0.00    +0.203 C 
ATOM     21  O   UNL     1      -5.185   6.351   3.985  0.00  0.00    -0.277 OA
ATOM     22  N   UNL     1      -6.559   6.362   5.726  0.00  0.00    -0.284 N 
ATOM     23  H   UNL     1      -6.789   5.996   6.738  0.00  0.00    +0.155 HD
BRANCH  22  24
ATOM     24  C   UNL     1      -7.391   7.313   5.120  0.00  0.00    +0.076 A 
ATOM     25  C   UNL     1      -6.886   8.157   4.142  0.00  0.00    +0.027 A 
ATOM     26  C   UNL     1      -7.709   9.091   3.542  0.00  0.00    +0.002 A 
ATOM     27  C   UNL     1      -9.035   9.193   3.922  0.00  0.00    +0.004 A 
ATOM     28  C   UNL     1      -9.545   8.359   4.899  0.00  0.00    +0.047 A 
ATOM     29  C   UNL     1      -8.727   7.417   5.502  0.00  0.00    +0.141 A 
BRANCH  29  30
ATOM     30  O   UNL     1      -9.226   6.597   6.465  0.00  0.00    -0.493 OA
ATOM     31  C   UNL     1     -10.604   6.761   6.805  0.00  0.00    +0.277 C 
ENDBRANCH  29  30
ENDBRANCH  22  24
ENDBRANCH  18  20
ENDBRANCH   1  18
TORSDOF 8
