REMARK  Name = ZINC02797938
REMARK  7 active torsions:
REMARK  status: ('A' for Active; 'I' for Inactive)
REMARK    1  A    between atoms: C_1  and  C_2
REMARK    2  A    between atoms: C_2  and  N_3
REMARK    3  A    between atoms: C_5  and  N_11
REMARK    4  A    between atoms: C_6  and  C_8
REMARK    5  A    between atoms: C_12  and  C_14
REMARK    6  A    between atoms: C_16  and  C_19
REMARK    7  A    between atoms: C_22  and  C_25
REMARK                            x       y       z     vdW  Elec       q    Type
REMARK                         _______ _______ _______ _____ _____    ______ ____
ROOT
ATOM      1  N   UNL     1      -1.014   3.863   4.225  0.00  0.00    -0.277 N 
ATOM      2  C   UNL     1       0.114   4.565   4.452  0.00  0.00    +0.270 C 
ATOM      3  O   UNL     1       1.042   4.495   3.670  0.00  0.00    -0.268 OA
ATOM      4  H   UNL     1      -1.754   3.919   4.849  0.00  0.00    +0.155 HD
ENDROOT
BRANCH   1   7
ATOM      5  N   UNL     1      -0.704   1.998   1.216  0.00  0.00    -0.269 N 
ATOM      6  C   UNL     1      -0.175   2.857   2.124  0.00  0.00    +0.132 A 
ATOM      7  C   UNL     1      -1.116   3.050   3.087  0.00  0.00    +0.084 A 
ATOM      8  C   UNL     1      -2.222   2.250   2.698  0.00  0.00    +0.168 A 
ATOM      9  N   UNL     1      -1.891   1.655   1.568  0.00  0.00    -0.165 NA
BRANCH   8  10
ATOM     10  C   UNL     1      -3.500   2.110   3.421  0.00  0.00    +0.263 C 
ATOM     11  O   UNL     1      -3.681   2.717   4.458  0.00  0.00    -0.269 OA
ATOM     12  N   UNL     1      -4.467   1.310   2.931  0.00  0.00    -0.324 N 
ATOM     13  H   UNL     1      -4.323   0.825   2.103  0.00  0.00    +0.145 HD
ATOM     14  H   UNL     1      -5.308   1.218   3.406  0.00  0.00    +0.145 HD
ENDBRANCH   8  10
BRANCH   5  16
ATOM     15  C   UNL     1       0.002  -0.004   0.002  0.00  0.00    +0.029 C 
ATOM     16  C   UNL     1      -0.019   1.526   0.010  0.00  0.00    +0.140 C 
ENDBRANCH   5  16
ENDBRANCH   1   7
BRANCH   2  17
ATOM     17  C   UNL     1       0.222   5.425   5.656  0.00  0.00    +0.168 A 
ATOM     18  C   UNL     1       1.336   6.217   6.038  0.00  0.00    +0.086 A 
ATOM     19  C   UNL     1       0.932   6.807   7.204  0.00  0.00    +0.168 A 
ATOM     20  O   UNL     1      -0.313   6.359   7.443  0.00  0.00    -0.354 OA
ATOM     21  N   UNL     1      -0.689   5.599   6.582  0.00  0.00    -0.073 NA
BRANCH  19  22
ATOM     22  C   UNL     1       1.712   7.746   8.038  0.00  0.00    +0.020 A 
ATOM     23  C   UNL     1       3.003   8.115   7.658  0.00  0.00    +0.012 A 
ATOM     24  C   UNL     1       3.723   8.996   8.438  0.00  0.00    +0.004 A 
ATOM     25  C   UNL     1       3.172   9.505   9.600  0.00  0.00    -0.050 A 
ATOM     26  C   UNL     1       1.895   9.139   9.986  0.00  0.00    +0.004 A 
ATOM     27  C   UNL     1       1.162   8.263   9.212  0.00  0.00    +0.012 A 
ATOM     28  C   UNL     1       3.967  10.463  10.450  0.00  0.00    +0.044 C 
ENDBRANCH  19  22
ENDBRANCH   2  17
TORSDOF 5
