REMARK  Name = ZINC36544375
REMARK  11 active torsions:
REMARK  status: ('A' for Active; 'I' for Inactive)
REMARK    1  A    between atoms: C_1  and  C_2
REMARK    2  A    between atoms: C_5  and  S_8
REMARK    3  A    between atoms: S_8  and  C_11
REMARK    4  A    between atoms: C_11  and  N_12
REMARK    5  A    between atoms: C_13  and  C_15
REMARK    6  A    between atoms: C_15  and  C_17
REMARK    7  A    between atoms: C_15  and  N_26
REMARK    8  A    between atoms: C_18  and  O_25
REMARK    9  A    between atoms: C_20  and  O_24
REMARK   10  A    between atoms: C_22  and  O_23
REMARK   11  A    between atoms: N_26  and  C_29
REMARK                            x       y       z     vdW  Elec       q    Type
REMARK                         _______ _______ _______ _____ _____    ______ ____
ROOT
ATOM      1  C   UNL     1       3.005  -4.877   3.638  0.00  0.00    +0.204 C 
ENDROOT
BRANCH   1   2
ATOM      2  C   UNL     1       4.437  -4.495   3.909  0.00  0.00    +0.065 A 
ATOM      3  C   UNL     1       5.372  -5.474   4.207  0.00  0.00    +0.129 A 
ATOM      4  C   UNL     1       6.690  -5.122   4.456  0.00  0.00    +0.091 A 
ATOM      5  C   UNL     1       7.073  -3.790   4.407  0.00  0.00    +0.124 A 
ATOM      6  C   UNL     1       6.138  -2.811   4.109  0.00  0.00    +0.091 A 
ATOM      7  C   UNL     1       4.821  -3.163   3.856  0.00  0.00    +0.129 A 
BRANCH   7   8
ATOM      8  O   UNL     1       3.906  -2.204   3.558  0.00  0.00    -0.506 OA
ATOM      9  H   UNL     1       3.455  -1.837   4.332  0.00  0.00    +0.292 HD
ENDBRANCH   7   8
BRANCH   5  10
ATOM     10  O   UNL     1       8.364  -3.445   4.652  0.00  0.00    -0.507 OA
ATOM     11  H   UNL     1       8.924  -3.430   3.864  0.00  0.00    +0.292 HD
ENDBRANCH   5  10
BRANCH   3  12
ATOM     12  O   UNL     1       4.997  -6.780   4.254  0.00  0.00    -0.506 OA
ATOM     13  H   UNL     1       5.021  -7.228   3.397  0.00  0.00    +0.292 HD
ENDBRANCH   3  12
ENDBRANCH   1   2
BRANCH   1  15
ATOM     14  N   UNL     1       2.563  -4.817   1.205  0.00  0.00    -0.294 N 
ATOM     15  C   UNL     1       2.909  -5.541   2.289  0.00  0.00    +0.240 C 
ATOM     16  O   UNL     1       3.142  -6.726   2.177  0.00  0.00    -0.273 OA
ATOM     17  H   UNL     1       2.376  -3.870   1.294  0.00  0.00    +0.150 HD
BRANCH  14  18
ATOM     18  C   UNL     1       2.470  -5.462  -0.107  0.00  0.00    +0.278 C 
BRANCH  18  19
ATOM     19  S   UNL     1       0.750  -5.949  -0.420  0.00  0.00    +0.013 S 
ATOM     20  O   UNL     1       0.215  -6.615   0.716  0.00  0.00    -0.168 OA
ATOM     21  O   UNL     1       0.632  -6.520  -1.716  0.00  0.00    -0.168 OA
BRANCH  19  26
ATOM     22  C   UNL     1      -2.303  -0.755  -0.741  0.00  0.00    +0.044 C 
ATOM     23  C   UNL     1      -1.540  -2.052  -0.661  0.00  0.00    -0.050 A 
ATOM     24  C   UNL     1      -0.987  -2.601  -1.803  0.00  0.00    +0.005 A 
ATOM     25  C   UNL     1      -0.288  -3.791  -1.730  0.00  0.00    +0.027 A 
ATOM     26  C   UNL     1      -0.140  -4.432  -0.514  0.00  0.00    +0.090 A 
ATOM     27  C   UNL     1      -0.692  -3.883   0.629  0.00  0.00    +0.027 A 
ATOM     28  C   UNL     1      -1.388  -2.691   0.556  0.00  0.00    +0.005 A 
ENDBRANCH  19  26
ENDBRANCH  18  19
ENDBRANCH  14  18
ENDBRANCH   1  15
BRANCH   1  29
ATOM     29  N   UNL     1       2.543  -5.806   4.673  0.00  0.00    -0.256 N 
ATOM     30  C   UNL     1       2.890  -5.607   5.960  0.00  0.00    +0.333 C 
ATOM     31  O   UNL     1       3.583  -4.659   6.262  0.00  0.00    -0.279 OA
BRANCH  29  32
ATOM     32  C   UNL     1       1.743  -6.900   4.325  0.00  0.00    +0.055 A 
ATOM     33  C   UNL     1       2.311  -8.158   4.174  0.00  0.00    +0.025 A 
ATOM     34  C   UNL     1       1.518  -9.236   3.831  0.00  0.00    +0.002 A 
ATOM     35  C   UNL     1       0.160  -9.064   3.637  0.00  0.00    +0.002 A 
ATOM     36  C   UNL     1      -0.410  -7.813   3.786  0.00  0.00    +0.022 A 
ATOM     37  C   UNL     1       0.377  -6.731   4.135  0.00  0.00    +0.062 A 
ATOM     38 CL   UNL     1      -0.340  -5.162   4.328  0.00  0.00    -0.082 Cl
ENDBRANCH  29  32
ENDBRANCH   1  29
TORSDOF 10
