REMARK  Name = ZINC07326313
REMARK  13 active torsions:
REMARK  status: ('A' for Active; 'I' for Inactive)
REMARK    1  A    between atoms: C_1  and  C_2
REMARK    2  A    between atoms: C_4  and  C_26
REMARK    3  A    between atoms: C_5  and  N_9
REMARK    4  A    between atoms: N_9  and  C_10
REMARK    5  A    between atoms: C_10  and  N_12
REMARK    6  A    between atoms: N_12  and  C_13
REMARK    7  A    between atoms: C_13  and  C_14
REMARK    8  A    between atoms: C_14  and  C_16
REMARK    9  A    between atoms: C_14  and  N_52
REMARK   10  A    between atoms: C_21  and  O_22
REMARK   11  A    between atoms: O_22  and  C_23
REMARK   12  A    between atoms: C_24  and  N_52
REMARK   13  A    between atoms: C_25  and  N_52
REMARK                            x       y       z     vdW  Elec       q    Type
REMARK                         _______ _______ _______ _____ _____    ______ ____
ROOT
ATOM      1  N   UNL     1       1.719  -4.117  -1.028  0.00  0.00    -0.328 N 
ATOM      2  H   UNL     1       1.059  -4.281  -0.336  0.00  0.00    +0.148 HD
ENDROOT
BRANCH   1   3
ATOM      3  C   UNL     1       1.532  -4.610  -2.268  0.00  0.00    +0.135 C 
ATOM      4  S   UNL     1       2.696  -4.320  -3.489  0.00  0.00    -0.019 S 
BRANCH   3   5
ATOM      5  N   UNL     1       0.428  -5.331  -2.547  0.00  0.00    -0.296 N 
ATOM      6  H   UNL     1      -0.270  -5.427  -1.880  0.00  0.00    +0.154 HD
BRANCH   5  11
ATOM      7  C   UNL     1      -0.136  -7.803  -7.623  0.00  0.00    +0.044 C 
ATOM      8  C   UNL     1       0.014  -7.147  -6.274  0.00  0.00    -0.049 A 
ATOM      9  C   UNL     1       0.046  -5.768  -6.178  0.00  0.00    +0.008 A 
ATOM     10  C   UNL     1       0.183  -5.163  -4.944  0.00  0.00    -0.028 A 
ATOM     11  C   UNL     1       0.288  -5.941  -3.799  0.00  0.00    +0.054 A 
ATOM     12  C   UNL     1       0.261  -7.327  -3.899  0.00  0.00    +0.063 A 
ATOM     13  C   UNL     1       0.118  -7.925  -5.136  0.00  0.00    +0.025 A 
ATOM     14 CL   UNL     1       0.399  -8.304  -2.471  0.00  0.00    -0.082 Cl
ATOM     15  C   UNL     1       0.218  -3.660  -4.840  0.00  0.00    +0.046 C 
ENDBRANCH   5  11
ENDBRANCH   3   5
ENDBRANCH   1   3
BRANCH   1  16
ATOM     16  C   UNL     1       2.919  -3.333  -0.725  0.00  0.00    +0.092 C 
BRANCH  16  17
ATOM     17  C   UNL     1       3.010  -3.103   0.785  0.00  0.00    -0.017 C 
BRANCH  17  18
ATOM     18  C   UNL     1       4.134  -2.144   1.081  0.00  0.00    -0.018 A 
ATOM     19  C   UNL     1       5.330  -2.615   1.587  0.00  0.00    +0.005 A 
ATOM     20  C   UNL     1       6.362  -1.736   1.858  0.00  0.00    +0.000 A 
ATOM     21  C   UNL     1       6.200  -0.383   1.622  0.00  0.00    +0.004 A 
ATOM     22  C   UNL     1       5.007   0.094   1.116  0.00  0.00    +0.046 A 
ATOM     23  C   UNL     1       3.970  -0.787   0.843  0.00  0.00    +0.122 A 
BRANCH  23  24
ATOM     24  O   UNL     1       2.794  -0.321   0.346  0.00  0.00    -0.495 OA
ATOM     25  C   UNL     1       2.696   1.088   0.127  0.00  0.00    +0.277 C 
ENDBRANCH  23  24
ENDBRANCH  17  18
BRANCH  17  28
ATOM     26  C   UNL     1       2.010  -5.080   1.761  0.00  0.00    -0.096 C 
ATOM     27  C   UNL     1       4.163  -5.228   0.662  0.00  0.00    -0.096 C 
ATOM     28  N   UNL     1       3.280  -4.376   1.486  0.00  0.00    +0.382 N 
ATOM     29  H   UNL     1       3.749  -4.173   2.377  0.00  0.00    -0.082 HD
ENDBRANCH  17  28
ENDBRANCH  16  17
ENDBRANCH   1  16
TORSDOF 8
