REMARK  Name = ZINC44793236
REMARK  12 active torsions:
REMARK  status: ('A' for Active; 'I' for Inactive)
REMARK    1  A    between atoms: C_1  and  C_2
REMARK    2  A    between atoms: C_2  and  C_3
REMARK    3  A    between atoms: C_3  and  C_4
REMARK    4  A    between atoms: C_4  and  N_5
REMARK    5  A    between atoms: C_6  and  S_8
REMARK    6  A    between atoms: S_8  and  C_9
REMARK    7  A    between atoms: C_9  and  C_10
REMARK    8  A    between atoms: C_11  and  C_23
REMARK    9  A    between atoms: C_12  and  C_18
REMARK   10  A    between atoms: C_23  and  O_25
REMARK   11  A    between atoms: O_25  and  C_26
REMARK   12  A    between atoms: C_26  and  C_27
REMARK                            x       y       z     vdW  Elec       q    Type
REMARK                         _______ _______ _______ _____ _____    ______ ____
ROOT
ATOM      1  C   UNL     1       2.955  -6.933  -5.147  0.00  0.00    +0.034 C 
ATOM      2  C   UNL     1       4.270  -7.229  -5.069  0.00  0.00    +0.082 C 
ATOM      3  C   UNL     1       4.972  -7.666  -6.338  0.00  0.00    +0.179 C 
ATOM      4  N   UNL     1       4.155  -7.735  -7.562  0.00  0.00    -0.285 N 
ATOM      5  C   UNL     1       2.850  -7.408  -7.481  0.00  0.00    +0.304 C 
ATOM      6  O   UNL     1       2.168  -7.461  -8.486  0.00  0.00    -0.252 OA
ATOM      7  N   UNL     1       2.280  -7.032  -6.330  0.00  0.00    -0.272 N 
ATOM      8  H   UNL     1       4.547  -8.008  -8.406  0.00  0.00    +0.151 HD
ATOM      9  H   UNL     1       1.335  -6.814  -6.337  0.00  0.00    +0.156 HD
ENDROOT
BRANCH   3  10
ATOM     10  C   UNL     1       6.110  -6.712  -6.593  0.00  0.00    +0.130 A 
ATOM     11  C   UNL     1       7.405  -6.940  -6.309  0.00  0.00    +0.047 A 
ATOM     12  C   UNL     1       8.120  -5.788  -6.710  0.00  0.00    +0.041 A 
ATOM     13  C   UNL     1       7.220  -4.926  -7.215  0.00  0.00    +0.195 A 
ATOM     14  O   UNL     1       6.004  -5.493  -7.146  0.00  0.00    -0.466 OA
ENDBRANCH   3  10
BRANCH   2  15
ATOM     15  C   UNL     1       4.970  -7.132  -3.843  0.00  0.00    +0.339 C 
ATOM     16  O   UNL     1       5.214  -8.136  -3.201  0.00  0.00    -0.245 OA
BRANCH  15  17
ATOM     17  O   UNL     1       5.366  -5.926  -3.386  0.00  0.00    -0.462 OA
BRANCH  17  18
ATOM     18  C   UNL     1       6.068  -5.902  -2.141  0.00  0.00    +0.229 C 
ATOM     19  C   UNL     1       6.433  -4.459  -1.788  0.00  0.00    +0.048 C 
ENDBRANCH  17  18
ENDBRANCH  15  17
ENDBRANCH   2  15
BRANCH   1  20
ATOM     20  C   UNL     1       2.219  -6.494  -3.908  0.00  0.00    +0.128 C 
BRANCH  20  21
ATOM     21  S   UNL     1       1.933  -4.704  -3.977  0.00  0.00    -0.087 S 
BRANCH  21  23
ATOM     22  N   UNL     1       0.712  -3.127  -2.208  0.00  0.00    -0.368 N 
ATOM     23  C   UNL     1       1.075  -4.351  -2.479  0.00  0.00    +0.126 C 
ATOM     24  N   UNL     1       0.789  -5.365  -1.595  0.00  0.00    -0.339 N 
ATOM     25  H   UNL     1       0.317  -5.170  -0.770  0.00  0.00    +0.144 HD
ATOM     26  H   UNL     1       1.060  -6.274  -1.796  0.00  0.00    +0.144 HD
ATOM     27  H   UNL     1       0.914  -2.412  -2.832  0.00  0.00    +0.161 HD
BRANCH  22  28
ATOM     28  C   UNL     1      -0.001  -2.834  -0.963  0.00  0.00    +0.114 C 
BRANCH  28  29
ATOM     29  C   UNL     1      -0.308  -1.337  -0.892  0.00  0.00    +0.021 C 
BRANCH  29  31
ATOM     30  C   UNL     1      -1.360   0.467   0.480  0.00  0.00    +0.004 C 
ATOM     31  C   UNL     1      -1.053  -1.030   0.409  0.00  0.00    -0.002 C 
ENDBRANCH  29  31
ENDBRANCH  28  29
ENDBRANCH  22  28
ENDBRANCH  21  23
ENDBRANCH  20  21
ENDBRANCH   1  20
TORSDOF 10
