REMARK  Name = ZINC02927451
REMARK  9 active torsions:
REMARK  status: ('A' for Active; 'I' for Inactive)
REMARK    1  A    between atoms: C_1  and  C_2
REMARK    2  A    between atoms: C_6  and  N_8
REMARK    3  A    between atoms: C_9  and  C_11
REMARK    4  A    between atoms: C_11  and  S_12
REMARK    5  A    between atoms: S_12  and  C_13
REMARK    6  A    between atoms: C_17  and  C_21
REMARK    7  A    between atoms: N_24  and  C_25
REMARK    8  A    between atoms: C_28  and  O_31
REMARK    9  A    between atoms: O_31  and  C_32
REMARK                            x       y       z     vdW  Elec       q    Type
REMARK                         _______ _______ _______ _____ _____    ______ ____
ROOT
ATOM      1  C   UNL     1       2.433   9.787   0.482  0.00  0.00    +0.177 A 
ATOM      2  N   UNL     1       1.188  10.197   0.474  0.00  0.00    -0.201 NA
ATOM      3  C   UNL     1       0.858  11.494   0.569  0.00  0.00    +0.187 A 
ATOM      4  C   UNL     1       1.867  12.460   0.682  0.00  0.00    +0.082 A 
ATOM      5  C   UNL     1       1.241  13.715   0.764  0.00  0.00    +0.046 A 
ATOM      6  N   UNL     1      -0.051  13.534   0.705  0.00  0.00    -0.279 N 
ATOM      7  N   UNL     1      -0.325  12.166   0.584  0.00  0.00    -0.153 NA
ATOM      8  H   UNL     1      -0.730  14.399   0.752  0.00  0.00    +0.189 HD
ATOM      9  C   UNL     1       1.940  15.043   0.897  0.00  0.00    +0.066 C 
ATOM     10  C   UNL     1       3.265  12.008   0.693  0.00  0.00    +0.124 A 
ATOM     11  N   UNL     1       4.256  12.859   0.796  0.00  0.00    -0.384 N 
ATOM     12  N   UNL     1       3.493  10.644   0.593  0.00  0.00    -0.275 N 
ATOM     13  H   UNL     1       5.295  12.496   0.801  0.00  0.00    +0.157 HD
ATOM     14  H   UNL     1       4.050  13.936   0.877  0.00  0.00    +0.157 HD
ENDROOT
BRANCH  12  15
ATOM     15  C   UNL     1       4.804  10.146   0.601  0.00  0.00    +0.051 A 
ATOM     16  C   UNL     1       5.593  10.288   1.734  0.00  0.00    +0.030 A 
ATOM     17  C   UNL     1       6.883   9.793   1.743  0.00  0.00    +0.047 A 
ATOM     18  C   UNL     1       7.392   9.164   0.617  0.00  0.00    +0.120 A 
ATOM     19  C   UNL     1       6.606   9.027  -0.517  0.00  0.00    +0.047 A 
ATOM     20  C   UNL     1       5.315   9.516  -0.526  0.00  0.00    +0.030 A 
BRANCH  18  21
ATOM     21  O   UNL     1       8.664   8.682   0.624  0.00  0.00    -0.495 OA
ATOM     22  C   UNL     1       9.417   8.859   1.826  0.00  0.00    +0.277 C 
ENDBRANCH  18  21
ENDBRANCH  12  15
BRANCH   1  23
ATOM     23  S   UNL     1       2.753   8.059   0.351  0.00  0.00    -0.078 S 
BRANCH  23  24
ATOM     24  C   UNL     1       1.058   7.433   0.243  0.00  0.00    +0.173 C 
BRANCH  24  26
ATOM     25  N   UNL     1      -0.069   5.242   0.027  0.00  0.00    -0.285 N 
ATOM     26  C   UNL     1       1.085   5.931   0.121  0.00  0.00    +0.227 C 
ATOM     27  O   UNL     1       2.146   5.342   0.109  0.00  0.00    -0.275 OA
ATOM     28  H   UNL     1      -1.026   5.779  -0.049  0.00  0.00    +0.155 HD
BRANCH  25  34
ATOM     29  C   UNL     1      -1.980   0.986  -1.526  0.00  0.00    +0.044 C 
ATOM     30  C   UNL     1      -0.966   1.754  -0.719  0.00  0.00    -0.049 A 
ATOM     31  C   UNL     1      -0.014   1.076   0.021  0.00  0.00    +0.003 A 
ATOM     32  C   UNL     1       0.922   1.777   0.758  0.00  0.00    +0.002 A 
ATOM     33  C   UNL     1       0.907   3.158   0.762  0.00  0.00    +0.023 A 
ATOM     34  C   UNL     1      -0.051   3.843   0.025  0.00  0.00    +0.034 A 
ATOM     35  C   UNL     1      -0.990   3.135  -0.715  0.00  0.00    +0.026 A 
ENDBRANCH  25  34
ENDBRANCH  24  26
ENDBRANCH  23  24
ENDBRANCH   1  23
TORSDOF 6
