REMARK  Name = ZINC16635945
REMARK  9 active torsions:
REMARK  status: ('A' for Active; 'I' for Inactive)
REMARK    1  A    between atoms: C_1  and  N_48
REMARK    2  A    between atoms: C_2  and  C_3
REMARK    3  A    between atoms: C_2  and  N_48
REMARK    4  A    between atoms: N_5  and  C_6
REMARK    5  A    between atoms: C_6  and  C_7
REMARK    6  A    between atoms: N_9  and  C_10
REMARK    7  A    between atoms: C_19  and  C_20
REMARK    8  A    between atoms: C_19  and  N_48
REMARK    9  A    between atoms: N_22  and  C_23
REMARK                            x       y       z     vdW  Elec       q    Type
REMARK                         _______ _______ _______ _____ _____    ______ ____
ROOT
ATOM      1  C   UNL     1       4.660   6.911   2.486  0.00  0.00    +0.197 C 
ATOM      2  O   UNL     1       3.744   7.537   2.976  0.00  0.00    -0.278 OA
ATOM      3  N   UNL     1       4.643   5.563   2.508  0.00  0.00    -0.308 N 
ATOM      4  H   UNL     1       5.376   5.062   2.116  0.00  0.00    +0.149 HD
ENDROOT
BRANCH   1   5
ATOM      5  C   UNL     1       5.817   7.639   1.853  0.00  0.00    +0.019 C 
BRANCH   5   7
ATOM      6  C   UNL     1       4.442   9.506   1.155  0.00  0.00    -0.095 C 
ATOM      7  N   UNL     1       5.594   9.095   1.985  0.00  0.00    +0.389 N 
ATOM      8  H   UNL     1       5.392   9.313   2.967  0.00  0.00    -0.081 HD
BRANCH   7   9
ATOM      9  C   UNL     1       6.805   9.832   1.568  0.00  0.00    +0.019 C 
BRANCH   9  10
ATOM     10  C   UNL     1       6.633  11.287   1.917  0.00  0.00    +0.201 C 
ATOM     11  O   UNL     1       5.607  11.668   2.439  0.00  0.00    -0.278 OA
ATOM     12  N   UNL     1       7.620  12.166   1.650  0.00  0.00    -0.285 N 
ATOM     13  H   UNL     1       8.406  11.878   1.160  0.00  0.00    +0.155 HD
BRANCH  12  14
ATOM     14  C   UNL     1       7.510  13.494   2.079  0.00  0.00    +0.070 A 
ATOM     15  C   UNL     1       6.373  14.233   1.774  0.00  0.00    +0.064 A 
ATOM     16  C   UNL     1       6.266  15.543   2.203  0.00  0.00    +0.022 A 
ATOM     17  C   UNL     1       7.292  16.120   2.927  0.00  0.00    +0.003 A 
ATOM     18  C   UNL     1       8.427  15.390   3.229  0.00  0.00    +0.022 A 
ATOM     19  C   UNL     1       8.539  14.078   2.807  0.00  0.00    +0.064 A 
ATOM     20 CL   UNL     1       9.964  13.162   3.185  0.00  0.00    -0.082 Cl
ATOM     21 CL   UNL     1       5.087  13.510   0.860  0.00  0.00    -0.082 Cl
ENDBRANCH  12  14
ENDBRANCH   9  10
ENDBRANCH   7   9
ENDBRANCH   5   7
ENDBRANCH   1   5
BRANCH   3  22
ATOM     22  C   UNL     1       3.518   4.855   3.124  0.00  0.00    +0.200 C 
BRANCH  22  23
ATOM     23  C   UNL     1       3.742   3.368   3.017  0.00  0.00    +0.234 C 
ATOM     24  O   UNL     1       4.742   2.942   2.479  0.00  0.00    -0.274 OA
ATOM     25  N   UNL     1       2.830   2.512   3.518  0.00  0.00    -0.282 N 
ATOM     26  H   UNL     1       1.994   2.849   3.877  0.00  0.00    +0.155 HD
BRANCH  25  27
ATOM     27  C   UNL     1       3.090   1.135   3.522  0.00  0.00    +0.072 A 
ATOM     28  C   UNL     1       4.400   0.674   3.507  0.00  0.00    +0.029 A 
ATOM     29  C   UNL     1       4.655  -0.683   3.510  0.00  0.00    +0.043 A 
ATOM     30  C   UNL     1       3.607  -1.587   3.528  0.00  0.00    +0.161 A 
ATOM     31  C   UNL     1       2.297  -1.132   3.543  0.00  0.00    +0.195 A 
ATOM     32  C   UNL     1       2.037   0.228   3.540  0.00  0.00    +0.182 A 
ATOM     33  F   UNL     1       0.761   0.673   3.549  0.00  0.00    -0.200 F 
ATOM     34  F   UNL     1       1.275  -2.016   3.561  0.00  0.00    -0.199 F 
ATOM     35  F   UNL     1       3.860  -2.914   3.531  0.00  0.00    -0.202 F 
ENDBRANCH  25  27
ENDBRANCH  22  23
ENDBRANCH   3  22
TORSDOF 8
