REMARK  Name = ZINC09281707
REMARK  10 active torsions:
REMARK  status: ('A' for Active; 'I' for Inactive)
REMARK    1  A    between atoms: C_1  and  O_2
REMARK    2  A    between atoms: O_2  and  C_3
REMARK    3  A    between atoms: C_6  and  C_9
REMARK    4  A    between atoms: C_17  and  O_37
REMARK    5  A    between atoms: C_20  and  C_21
REMARK    6  A    between atoms: C_20  and  N_72
REMARK    7  A    between atoms: N_23  and  C_24
REMARK    8  A    between atoms: C_25  and  C_33
REMARK    9  A    between atoms: C_33  and  O_35
REMARK   10  A    between atoms: O_35  and  C_36
REMARK                            x       y       z     vdW  Elec       q    Type
REMARK                         _______ _______ _______ _____ _____    ______ ____
ROOT
ATOM      1  C   UNL     1      -1.474   3.630  -2.477  0.00  0.00    -0.031 C 
ATOM      2  C   UNL     1      -0.762   3.124  -1.221  0.00  0.00    +0.011 C 
ATOM      3  C   UNL     1      -1.491   3.618   0.029  0.00  0.00    +0.005 C 
ATOM      4  C   UNL     1      -0.760   3.110   1.274  0.00  0.00    +0.000 C 
ATOM      5  C   UNL     1      -0.731   1.580   1.266  0.00  0.00    +0.003 C 
ATOM      6  C   UNL     1      -0.013   1.086   0.008  0.00  0.00    +0.035 C 
ATOM      7  C   UNL     1      -0.754   1.593  -1.229  0.00  0.00    +0.066 C 
ATOM      8  C   UNL     1      -0.052   1.103  -2.497  0.00  0.00    +0.016 C 
ATOM      9  C   UNL     1      -0.778   1.667  -3.722  0.00  0.00    -0.075 C 
ATOM     10  N   UNL     1      -0.742   3.144  -3.668  0.00  0.00    +0.390 N 
ATOM     11  H   UNL     1       0.236   3.451  -3.605  0.00  0.00    -0.080 HD
ENDROOT
BRANCH   1  15
ATOM     12  C   UNL     1      -1.470   7.903  -2.495  0.00  0.00    +0.120 A 
ATOM     13  C   UNL     1      -2.603   7.211  -2.091  0.00  0.00    +0.046 A 
ATOM     14  C   UNL     1      -2.601   5.830  -2.087  0.00  0.00    +0.005 A 
ATOM     15  C   UNL     1      -1.472   5.137  -2.483  0.00  0.00    -0.060 A 
ATOM     16  C   UNL     1      -0.341   5.824  -2.881  0.00  0.00    +0.005 A 
ATOM     17  C   UNL     1      -0.339   7.206  -2.893  0.00  0.00    +0.046 A 
BRANCH  12  19
ATOM     18  C   UNL     1      -0.268   9.908  -2.928  0.00  0.00    +0.277 C 
ATOM     19  O   UNL     1      -1.469   9.262  -2.500  0.00  0.00    -0.495 OA
ENDBRANCH  12  19
ENDBRANCH   1  15
BRANCH   7  20
ATOM     20  O   UNL     1      -2.098   1.109  -1.211  0.00  0.00    -0.388 OA
ATOM     21  H   UNL     1      -2.169   0.145  -1.212  0.00  0.00    +0.210 HD
ENDBRANCH   7  20
BRANCH  10  22
ATOM     22  C   UNL     1      -1.343   3.708  -4.894  0.00  0.00    +0.020 C 
BRANCH  22  23
ATOM     23  C   UNL     1      -2.807   3.359  -4.976  0.00  0.00    +0.201 C 
ATOM     24  O   UNL     1      -3.323   2.697  -4.101  0.00  0.00    -0.278 OA
ATOM     25  N   UNL     1      -3.542   3.782  -6.024  0.00  0.00    -0.281 N 
ATOM     26  H   UNL     1      -3.129   4.312  -6.724  0.00  0.00    +0.155 HD
BRANCH  25  27
ATOM     27  C   UNL     1      -4.888   3.461  -6.100  0.00  0.00    +0.086 A 
ATOM     28  C   UNL     1      -5.802   3.801  -7.089  0.00  0.00    +0.091 A 
ATOM     29  C   UNL     1      -7.168   3.333  -6.929  0.00  0.00    -0.021 A 
ATOM     30  C   UNL     1      -7.401   2.607  -5.816  0.00  0.00    -0.004 A 
ATOM     31  S   UNL     1      -5.838   2.531  -4.988  0.00  0.00    -0.077 S 
ATOM     32  C   UNL     1      -8.702   1.999  -5.389  0.00  0.00    +0.043 C 
ATOM     33  C   UNL     1      -9.828   2.637  -6.215  0.00  0.00    +0.005 C 
ATOM     34  C   UNL     1      -9.423   2.627  -7.692  0.00  0.00    +0.005 C 
ATOM     35  C   UNL     1      -8.285   3.622  -7.926  0.00  0.00    +0.037 C 
BRANCH  28  36
ATOM     36  C   UNL     1      -5.403   4.601  -8.249  0.00  0.00    +0.342 C 
ATOM     37  O   UNL     1      -4.997   4.053  -9.256  0.00  0.00    -0.245 OA
BRANCH  36  38
ATOM     38  O   UNL     1      -5.486   5.947  -8.200  0.00  0.00    -0.464 OA
ATOM     39  C   UNL     1      -5.074   6.676  -9.386  0.00  0.00    +0.280 C 
ENDBRANCH  36  38
ENDBRANCH  28  36
ENDBRANCH  25  27
ENDBRANCH  22  23
ENDBRANCH  10  22
TORSDOF 8
