REMARK  Name = ZINC13190980
REMARK  8 active torsions:
REMARK  status: ('A' for Active; 'I' for Inactive)
REMARK    1  A    between atoms: C_1  and  N_2
REMARK    2  A    between atoms: N_2  and  C_3
REMARK    3  A    between atoms: N_2  and  C_10
REMARK    4  A    between atoms: C_3  and  C_4
REMARK    5  A    between atoms: C_13  and  S_19
REMARK    6  A    between atoms: C_15  and  N_16
REMARK    7  A    between atoms: S_19  and  N_22
REMARK    8  A    between atoms: C_25  and  C_28
REMARK                            x       y       z     vdW  Elec       q    Type
REMARK                         _______ _______ _______ _____ _____    ______ ____
ROOT
ATOM      1  C   UNL     1       1.181   1.788   0.000  0.00  0.00    +0.060 A 
ATOM      2  C   UNL     1      -0.013   1.076   0.008  0.00  0.00    +0.027 A 
ATOM      3  C   UNL     1      -1.217   1.751   0.017  0.00  0.00    +0.030 A 
ATOM      4  C   UNL     1      -1.237   3.134   0.031  0.00  0.00    +0.108 A 
ATOM      5  C   UNL     1      -0.051   3.845   0.023  0.00  0.00    +0.063 A 
ATOM      6  C   UNL     1       1.157   3.176   0.008  0.00  0.00    +0.149 A 
ENDROOT
BRANCH   6   7
ATOM      7  N   UNL     1       2.426   3.939   0.001  0.00  0.00    +0.058 N 
ATOM      8  O   UNL     1       2.405   5.156   0.007  0.00  0.00    -0.126 OA
ATOM      9  O   UNL     1       3.491   3.348  -0.012  0.00  0.00    -0.126 OA
ENDBRANCH   6   7
BRANCH   4  10
ATOM     10  S   UNL     1      -2.776   3.991   0.050  0.00  0.00    +0.061 S 
ATOM     11  O   UNL     1      -3.732   3.097   0.605  0.00  0.00    -0.153 OA
ATOM     12  O   UNL     1      -2.520   5.273   0.606  0.00  0.00    -0.153 OA
BRANCH  10  13
ATOM     13  N   UNL     1      -3.219   4.237  -1.526  0.00  0.00    -0.177 NA
ATOM     14  C   UNL     1      -2.809   5.456  -2.237  0.00  0.00    +0.110 C 
ATOM     15  C   UNL     1      -4.048   6.130  -2.825  0.00  0.00    +0.032 C 
ATOM     16  C   UNL     1      -4.811   5.124  -3.690  0.00  0.00    +0.105 C 
ATOM     17  C   UNL     1      -5.264   3.945  -2.825  0.00  0.00    +0.032 C 
ATOM     18  C   UNL     1      -4.034   3.244  -2.239  0.00  0.00    +0.110 C 
BRANCH  16  19
ATOM     19  C   UNL     1      -6.016   5.795  -4.296  0.00  0.00    +0.359 C 
ATOM     20  O   UNL     1      -7.124   5.374  -4.060  0.00  0.00    -0.246 OA
ATOM     21  O   UNL     1      -5.860   6.860  -5.097  0.00  0.00    -0.246 OA
ENDBRANCH  16  19
ENDBRANCH  10  13
ENDBRANCH   4  10
BRANCH   1  23
ATOM     22  C   UNL     1       2.580   0.319   1.210  0.00  0.00    +0.129 C 
ATOM     23  N   UNL     1       2.401   1.108  -0.015  0.00  0.00    -0.326 N 
BRANCH  23  24
ATOM     24  C   UNL     1       2.515   0.260  -1.209  0.00  0.00    +0.147 C 
BRANCH  24  25
ATOM     25  C   UNL     1       3.925  -0.262  -1.321  0.00  0.00    +0.008 A 
ATOM     26  C   UNL     1       4.457  -1.399  -0.812  0.00  0.00    +0.014 A 
ATOM     27  C   UNL     1       5.791  -1.679  -1.044  0.00  0.00    +0.028 A 
ATOM     28  C   UNL     1       6.527  -0.805  -1.775  0.00  0.00    +0.078 A 
ATOM     29  S   UNL     1       5.325   0.455  -2.166  0.00  0.00    -0.080 S 
ATOM     30 CL   UNL     1       8.203  -0.894  -2.221  0.00  0.00    -0.076 Cl
ENDBRANCH  24  25
ENDBRANCH  23  24
ENDBRANCH   1  23
TORSDOF 7
