REMARK  Name = ZINC45356467
REMARK  11 active torsions:
REMARK  status: ('A' for Active; 'I' for Inactive)
REMARK    1  A    between atoms: C_1  and  C_2
REMARK    2  A    between atoms: C_4  and  C_7
REMARK    3  A    between atoms: C_11  and  N_13
REMARK    4  A    between atoms: C_14  and  C_16
REMARK    5  A    between atoms: C_16  and  N_17
REMARK    6  A    between atoms: N_17  and  C_18
REMARK    7  A    between atoms: N_17  and  C_19
REMARK    8  A    between atoms: C_19  and  C_21
REMARK    9  A    between atoms: C_19  and  C_22
REMARK   10  A    between atoms: C_25  and  S_28
REMARK   11  A    between atoms: S_28  and  N_31
REMARK                            x       y       z     vdW  Elec       q    Type
REMARK                         _______ _______ _______ _____ _____    ______ ____
ROOT
ATOM      1  C   UNL     1      -8.108  -3.326  -0.214  0.00  0.00    +0.019 C 
ENDROOT
BRANCH   1   3
ATOM      2  N   UNL     1      -5.666  -2.997  -0.001  0.00  0.00    -0.287 N 
ATOM      3  C   UNL     1      -6.701  -3.854  -0.103  0.00  0.00    +0.201 C 
ATOM      4  O   UNL     1      -6.500  -5.050  -0.106  0.00  0.00    -0.278 OA
ATOM      5  H   UNL     1      -5.831  -2.044   0.078  0.00  0.00    +0.155 HD
BRANCH   2  10
ATOM      6  C   UNL     1      -2.725  -5.082  -0.763  0.00  0.00    +0.003 A 
ATOM      7  C   UNL     1      -1.746  -4.431  -0.013  0.00  0.00    +0.010 A 
ATOM      8  C   UNL     1      -2.074  -3.316   0.731  0.00  0.00    +0.002 A 
ATOM      9  C   UNL     1      -3.371  -2.840   0.736  0.00  0.00    +0.023 A 
ATOM     10  C   UNL     1      -4.353  -3.482  -0.009  0.00  0.00    +0.034 A 
ATOM     11  C   UNL     1      -4.031  -4.599  -0.763  0.00  0.00    +0.033 A 
BRANCH   6  15
ATOM     12  C   UNL     1      -3.853  -8.818  -3.870  0.00  0.00    +0.073 C 
ATOM     13  C   UNL     1      -2.960  -7.977  -2.994  0.00  0.00    +0.076 A 
ATOM     14  N   UNL     1      -3.277  -6.921  -2.292  0.00  0.00    -0.244 NA
ATOM     15  C   UNL     1      -2.374  -6.281  -1.563  0.00  0.00    +0.078 A 
ATOM     16  C   UNL     1      -1.101  -6.784  -1.587  0.00  0.00    +0.075 A 
ATOM     17  S   UNL     1      -1.319  -8.178  -2.682  0.00  0.00    -0.080 S 
ENDBRANCH   6  15
ENDBRANCH   2  10
ENDBRANCH   1   3
BRANCH   1  18
ATOM     18  N   UNL     1      -9.047  -4.451  -0.313  0.00  0.00    +0.388 N 
ATOM     19  C   UNL     1      -9.020  -5.223   0.937  0.00  0.00    -0.095 C 
ATOM     20  H   UNL     1      -8.779  -5.047  -1.082  0.00  0.00    -0.081 HD
BRANCH  18  21
ATOM     21  C   UNL     1     -10.405  -3.938  -0.541  0.00  0.00    -0.041 C 
ATOM     22  C   UNL     1     -10.434  -3.134  -1.843  0.00  0.00    -0.008 C 
BRANCH  21  23
ATOM     23  C   UNL     1     -11.368  -5.093  -0.642  0.00  0.00    -0.061 A 
ATOM     24  C   UNL     1     -11.000  -6.243  -1.315  0.00  0.00    +0.004 A 
ATOM     25  C   UNL     1     -11.883  -7.302  -1.407  0.00  0.00    +0.029 A 
ATOM     26  C   UNL     1     -13.135  -7.211  -0.828  0.00  0.00    +0.105 A 
ATOM     27  C   UNL     1     -13.503  -6.061  -0.155  0.00  0.00    +0.029 A 
ATOM     28  C   UNL     1     -12.618  -5.003  -0.058  0.00  0.00    +0.004 A 
BRANCH  26  29
ATOM     29  S   UNL     1     -14.262  -8.560  -0.947  0.00  0.00    +0.056 S 
ATOM     30  O   UNL     1     -15.565  -8.016  -0.790  0.00  0.00    -0.153 OA
ATOM     31  O   UNL     1     -13.880  -9.308  -2.094  0.00  0.00    -0.153 OA
BRANCH  29  32
ATOM     32  N   UNL     1     -13.996  -9.537   0.364  0.00  0.00    -0.204 NA
ATOM     33  H   UNL     1     -14.726 -10.056   0.738  0.00  0.00    +0.144 HD
ATOM     34  H   UNL     1     -13.111  -9.591   0.758  0.00  0.00    +0.144 HD
ENDBRANCH  29  32
ENDBRANCH  26  29
ENDBRANCH  21  23
ENDBRANCH  18  21
ENDBRANCH   1  18
TORSDOF 8
