REMARK  Name = ZINC62257876
REMARK  11 active torsions:
REMARK  status: ('A' for Active; 'I' for Inactive)
REMARK    1  A    between atoms: C_1  and  C_2
REMARK    2  A    between atoms: C_2  and  O_3
REMARK    3  A    between atoms: O_3  and  C_4
REMARK    4  A    between atoms: C_6  and  C_18
REMARK    5  A    between atoms: C_9  and  O_10
REMARK    6  A    between atoms: O_10  and  C_11
REMARK    7  A    between atoms: C_11  and  C_12
REMARK    8  A    between atoms: C_18  and  N_19
REMARK    9  A    between atoms: N_19  and  C_20
REMARK   10  A    between atoms: N_24  and  C_26
REMARK   11  A    between atoms: C_26  and  C_27
REMARK                            x       y       z     vdW  Elec       q    Type
REMARK                         _______ _______ _______ _____ _____    ______ ____
ROOT
ATOM      1  C   UNL     1       0.777  -1.811  -1.336  0.00  0.00    +0.162 A 
ATOM      2  C   UNL     1       0.243  -2.669  -0.388  0.00  0.00    +0.051 A 
ATOM      3  C   UNL     1       0.352  -4.037  -0.555  0.00  0.00    -0.061 A 
ATOM      4  C   UNL     1       0.992  -4.552  -1.667  0.00  0.00    +0.005 A 
ATOM      5  C   UNL     1       1.526  -3.702  -2.616  0.00  0.00    +0.049 A 
ATOM      6  C   UNL     1       1.416  -2.330  -2.458  0.00  0.00    +0.162 A 
ENDROOT
BRANCH   1   7
ATOM      7  O   UNL     1       0.671  -0.465  -1.174  0.00  0.00    -0.489 OA
BRANCH   7   9
ATOM      8  C   UNL     1      -0.019   1.526   0.010  0.00  0.00    +0.048 C 
ATOM      9  C   UNL     1       0.002  -0.004   0.002  0.00  0.00    +0.226 C 
ENDBRANCH   7   9
ENDBRANCH   1   7
BRANCH   6  10
ATOM     10  O   UNL     1       1.936  -1.492  -3.394  0.00  0.00    -0.484 OA
BRANCH  10  11
ATOM     11  C   UNL     1       2.578  -2.095  -4.520  0.00  0.00    +0.264 C 
BRANCH  11  12
ATOM     12  C   UNL     1       3.088  -1.019  -5.443  0.00  0.00    -0.010 A 
ATOM     13  C   UNL     1       2.278  -0.532  -6.452  0.00  0.00    +0.007 A 
ATOM     14  C   UNL     1       2.746   0.455  -7.299  0.00  0.00    +0.000 A 
ATOM     15  C   UNL     1       4.024   0.956  -7.137  0.00  0.00    +0.000 A 
ATOM     16  C   UNL     1       4.835   0.470  -6.128  0.00  0.00    +0.000 A 
ATOM     17  C   UNL     1       4.365  -0.514  -5.278  0.00  0.00    +0.007 A 
ENDBRANCH  11  12
ENDBRANCH  10  11
ENDBRANCH   6  10
BRANCH   3  18
ATOM     18  C   UNL     1      -0.229  -4.969   0.477  0.00  0.00    -0.046 C 
BRANCH  18  19
ATOM     19  N   UNL     1      -1.621  -5.283   0.127  0.00  0.00    +0.384 N 
ATOM     20  H   UNL     1      -2.161  -4.431   0.100  0.00  0.00    -0.085 HD
ATOM     21  H   UNL     1      -1.647  -5.726  -0.779  0.00  0.00    -0.085 HD
BRANCH  19  22
ATOM     22  C   UNL     1      -2.187  -6.191   1.133  0.00  0.00    -0.057 C 
ATOM     23  C   UNL     1      -2.266  -5.472   2.483  0.00  0.00    -0.013 C 
ATOM     24  C   UNL     1      -2.912  -6.405   3.511  0.00  0.00    +0.014 C 
ATOM     25  C   UNL     1      -4.297  -6.825   3.013  0.00  0.00    +0.085 C 
ATOM     26  N   UNL     1      -4.167  -7.508   1.719  0.00  0.00    -0.296 NA
ATOM     27  C   UNL     1      -3.592  -6.617   0.703  0.00  0.00    +0.069 C 
BRANCH  26  28
ATOM     28  C   UNL     1      -5.459  -8.048   1.276  0.00  0.00    +0.180 C 
BRANCH  28  29
ATOM     29  C   UNL     1      -5.896  -9.141   2.217  0.00  0.00    +0.225 C 
ATOM     30  O   UNL     1      -5.200  -9.441   3.163  0.00  0.00    -0.275 OA
ATOM     31  N   UNL     1      -7.061  -9.785   2.007  0.00  0.00    -0.328 N 
ATOM     32  H   UNL     1      -7.618  -9.545   1.250  0.00  0.00    +0.145 HD
ATOM     33  H   UNL     1      -7.343 -10.489   2.612  0.00  0.00    +0.145 HD
ENDBRANCH  28  29
ENDBRANCH  26  28
ENDBRANCH  19  22
ENDBRANCH  18  19
ENDBRANCH   3  18
TORSDOF 10
