REMARK  Name = ZINC35842952
REMARK  6 active torsions:
REMARK  status: ('A' for Active; 'I' for Inactive)
REMARK    1  A    between atoms: C_1  and  O_2
REMARK    2  A    between atoms: O_2  and  C_3
REMARK    3  A    between atoms: C_6  and  N_9
REMARK    4  A    between atoms: N_12  and  C_13
REMARK    5  A    between atoms: N_23  and  S_26
REMARK    6  A    between atoms: S_26  and  C_29
REMARK                            x       y       z     vdW  Elec       q    Type
REMARK                         _______ _______ _______ _____ _____    ______ ____
ROOT
ATOM      1  C   UNL     1       2.919  -5.813  -5.427  0.00  0.00    +0.051 A 
ATOM      2  C   UNL     1       3.539  -6.341  -6.558  0.00  0.00    +0.028 A 
ATOM      3  C   UNL     1       3.624  -7.716  -6.682  0.00  0.00    +0.043 A 
ATOM      4  C   UNL     1       3.091  -8.521  -5.681  0.00  0.00    +0.099 A 
ATOM      5  N   UNL     1       2.508  -7.985  -4.620  0.00  0.00    -0.348 N 
ATOM      6  C   UNL     1       2.415  -6.677  -4.467  0.00  0.00    +0.107 A 
ATOM      7  N   UNL     1       3.170  -9.906  -5.796  0.00  0.00    -0.315 N 
ATOM      8  C   UNL     1       2.492 -10.723  -4.831  0.00  0.00    +0.108 C 
ATOM      9  C   UNL     1       3.433 -10.918  -3.630  0.00  0.00    +0.036 C 
ATOM     10  C   UNL     1       4.464 -11.931  -3.902  0.00  0.00    +0.111 C 
ATOM     11  N   UNL     1       5.264 -11.546  -5.089  0.00  0.00    -0.175 NA
ATOM     12  C   UNL     1       4.730 -11.733  -6.409  0.00  0.00    +0.128 C 
ATOM     13  C   UNL     1       3.951 -10.492  -6.920  0.00  0.00    +0.123 C 
ATOM     14  H   UNL     1       2.144  -8.568  -3.936  0.00  0.00    +0.167 HD
ENDROOT
BRANCH   1  18
ATOM     15  N   UNL     1       2.676  -2.286  -6.184  0.00  0.00    -0.269 N 
ATOM     16  C   UNL     1       2.674  -3.626  -6.336  0.00  0.00    +0.308 C 
ATOM     17  O   UNL     1       2.550  -4.112  -7.443  0.00  0.00    -0.252 OA
ATOM     18  N   UNL     1       2.810  -4.425  -5.260  0.00  0.00    -0.268 N 
ATOM     19  H   UNL     1       2.850  -1.897  -5.313  0.00  0.00    +0.156 HD
ATOM     20  H   UNL     1       2.833  -4.041  -4.369  0.00  0.00    +0.156 HD
BRANCH  15  24
ATOM     21  C   UNL     1       1.934   0.184  -9.461  0.00  0.00    +0.120 A 
ATOM     22  C   UNL     1       1.300  -1.046  -9.363  0.00  0.00    +0.047 A 
ATOM     23  C   UNL     1       1.546  -1.865  -8.278  0.00  0.00    +0.027 A 
ATOM     24  C   UNL     1       2.427  -1.456  -7.286  0.00  0.00    +0.035 A 
ATOM     25  C   UNL     1       3.061  -0.225  -7.385  0.00  0.00    +0.027 A 
ATOM     26  C   UNL     1       2.819   0.590  -8.473  0.00  0.00    +0.047 A 
BRANCH  21  28
ATOM     27  C   UNL     1       0.769   0.508 -11.509  0.00  0.00    +0.277 C 
ATOM     28  O   UNL     1       1.692   0.989 -10.530  0.00  0.00    -0.495 OA
ENDBRANCH  21  28
ENDBRANCH  15  24
ENDBRANCH   1  18
BRANCH  11  29
ATOM     29  S   UNL     1       6.776 -10.899  -4.893  0.00  0.00    +0.061 S 
ATOM     30  O   UNL     1       7.048 -10.142  -6.064  0.00  0.00    -0.153 OA
ATOM     31  O   UNL     1       6.807 -10.328  -3.592  0.00  0.00    -0.153 OA
BRANCH  29  32
ATOM     32  C   UNL     1       7.919 -12.239  -4.882  0.00  0.00    +0.106 A 
ATOM     33  C   UNL     1       8.248 -12.858  -3.690  0.00  0.00    +0.030 A 
ATOM     34  C   UNL     1       9.145 -13.909  -3.681  0.00  0.00    +0.022 A 
ATOM     35  C   UNL     1       9.714 -14.343  -4.865  0.00  0.00    +0.041 A 
ATOM     36  C   UNL     1       9.385 -13.723  -6.058  0.00  0.00    +0.022 A 
ATOM     37  C   UNL     1       8.484 -12.675  -6.066  0.00  0.00    +0.030 A 
ATOM     38 CL   UNL     1      10.841 -15.663  -4.854  0.00  0.00    -0.084 Cl
ENDBRANCH  29  32
ENDBRANCH  11  29
TORSDOF 5
