REMARK  Name = ZINC02543921
REMARK  7 active torsions:
REMARK  status: ('A' for Active; 'I' for Inactive)
REMARK    1  A    between atoms: C_5  and  C_7
REMARK    2  A    between atoms: C_7  and  O_9
REMARK    3  A    between atoms: O_9  and  C_10
REMARK    4  A    between atoms: C_15  and  C_16
REMARK    5  A    between atoms: N_17  and  N_18
REMARK    6  A    between atoms: C_19  and  C_21
REMARK    7  A    between atoms: C_24  and  N_27
REMARK                            x       y       z     vdW  Elec       q    Type
REMARK                         _______ _______ _______ _____ _____    ______ ____
ROOT
ATOM      1  C   UNL     1       2.368  -7.148   0.165  0.00  0.00    +0.141 A 
ATOM      2  C   UNL     1       2.193  -8.497   0.426  0.00  0.00    +0.048 A 
ATOM      3  C   UNL     1       3.282  -9.349   0.431  0.00  0.00    +0.019 A 
ATOM      4  C   UNL     1       4.553  -8.863   0.172  0.00  0.00    +0.019 A 
ATOM      5  C   UNL     1       4.743  -7.522  -0.096  0.00  0.00    +0.028 A 
ATOM      6  C   UNL     1       3.651  -6.652  -0.104  0.00  0.00    +0.038 A 
ATOM      7 BR   UNL     1       6.032 -10.040   0.183  0.00  0.00    -0.050 Br
ENDROOT
BRANCH   6   8
ATOM      8  C   UNL     1       3.847  -5.220  -0.389  0.00  0.00    +0.142 C 
ATOM      9  N   UNL     1       2.822  -4.425  -0.456  0.00  0.00    -0.187 NA
BRANCH   9  10
ATOM     10  N   UNL     1       2.997  -3.088  -0.835  0.00  0.00    -0.203 N 
ATOM     11  C   UNL     1       1.949  -2.241  -0.820  0.00  0.00    +0.263 C 
ATOM     12  O   UNL     1       0.836  -2.655  -0.560  0.00  0.00    -0.268 OA
ATOM     13  H   UNL     1       3.872  -2.772  -1.109  0.00  0.00    +0.178 HD
BRANCH  11  14
ATOM     14  C   UNL     1       2.152  -0.807  -1.117  0.00  0.00    +0.038 A 
ATOM     15  C   UNL     1       1.069   0.073  -1.102  0.00  0.00    +0.015 A 
ATOM     16  C   UNL     1       1.266   1.409  -1.380  0.00  0.00    +0.033 A 
ATOM     17  C   UNL     1       2.534   1.878  -1.675  0.00  0.00    +0.126 A 
ATOM     18  C   UNL     1       3.612   1.011  -1.692  0.00  0.00    +0.033 A 
ATOM     19  C   UNL     1       3.429  -0.328  -1.415  0.00  0.00    +0.015 A 
BRANCH  17  20
ATOM     20  N   UNL     1       2.738   3.314  -1.973  0.00  0.00    +0.056 N 
ATOM     21  O   UNL     1       1.791   4.079  -1.959  0.00  0.00    -0.126 OA
ATOM     22  O   UNL     1       3.853   3.729  -2.232  0.00  0.00    -0.126 OA
ENDBRANCH  17  20
ENDBRANCH  11  14
ENDBRANCH   9  10
ENDBRANCH   6   8
BRANCH   1  23
ATOM     23  O   UNL     1       1.299  -6.310   0.166  0.00  0.00    -0.422 OA
BRANCH  23  24
ATOM     24  C   UNL     1       0.689  -6.095  -1.017  0.00  0.00    +0.346 C 
ATOM     25  O   UNL     1       1.163  -6.556  -2.037  0.00  0.00    -0.244 OA
BRANCH  24  30
ATOM     26  C   UNL     1      -2.264  -4.032   0.038  0.00  0.00    +0.001 A 
ATOM     27  C   UNL     1      -2.888  -3.812  -1.178  0.00  0.00    +0.001 A 
ATOM     28  C   UNL     1      -2.352  -4.332  -2.341  0.00  0.00    +0.021 A 
ATOM     29  C   UNL     1      -1.188  -5.076  -2.297  0.00  0.00    +0.055 A 
ATOM     30  C   UNL     1      -0.554  -5.301  -1.073  0.00  0.00    +0.078 A 
ATOM     31  C   UNL     1      -1.105  -4.776   0.099  0.00  0.00    +0.016 A 
ATOM     32 CL   UNL     1      -0.517  -5.729  -3.759  0.00  0.00    -0.083 Cl
ENDBRANCH  24  30
ENDBRANCH  23  24
ENDBRANCH   1  23
TORSDOF 7
