REMARK  Name = ZINC08143509
REMARK  7 active torsions:
REMARK  status: ('A' for Active; 'I' for Inactive)
REMARK    1  A    between atoms: C_1  and  C_2
REMARK    2  A    between atoms: C_2  and  C_4
REMARK    3  A    between atoms: C_2  and  N_50
REMARK    4  A    between atoms: N_6  and  C_7
REMARK    5  A    between atoms: C_12  and  C_13
REMARK    6  A    between atoms: N_19  and  C_22
REMARK    7  A    between atoms: C_25  and  O_28
REMARK                            x       y       z     vdW  Elec       q    Type
REMARK                         _______ _______ _______ _____ _____    ______ ____
ROOT
ATOM      1  C   UNL     1       2.488  -0.269  -1.102  0.00  0.00    -0.004 C 
ATOM      2  C   UNL     1       2.449   0.711   0.073  0.00  0.00    +0.017 C 
ENDROOT
BRANCH   2   8
ATOM      3  C   UNL     1       3.686   2.327  -1.240  0.00  0.00    -0.059 C 
ATOM      4  C   UNL     1       4.885   3.277  -1.218  0.00  0.00    +0.086 C 
ATOM      5  N   UNL     1       6.117   2.503  -1.013  0.00  0.00    -0.333 N 
ATOM      6  C   UNL     1       6.063   1.757   0.252  0.00  0.00    +0.086 C 
ATOM      7  C   UNL     1       4.863   0.806   0.229  0.00  0.00    -0.059 C 
ATOM      8  N   UNL     1       3.630   1.599   0.045  0.00  0.00    +0.389 N 
ATOM      9  H   UNL     1       3.554   2.280   0.811  0.00  0.00    -0.081 HD
BRANCH   5  10
ATOM     10  C   UNL     1       7.244   3.331  -1.059  0.00  0.00    +0.030 A 
ATOM     11  C   UNL     1       8.124   3.366   0.014  0.00  0.00    +0.026 A 
ATOM     12  C   UNL     1       9.239   4.180  -0.034  0.00  0.00    +0.047 A 
ATOM     13  C   UNL     1       9.473   4.971  -1.149  0.00  0.00    +0.117 A 
ATOM     14  C   UNL     1       8.591   4.940  -2.219  0.00  0.00    +0.047 A 
ATOM     15  C   UNL     1       7.479   4.123  -2.175  0.00  0.00    +0.026 A 
BRANCH  13  16
ATOM     16  O   UNL     1      10.568   5.776  -1.193  0.00  0.00    -0.507 OA
ATOM     17  H   UNL     1      10.418   6.664  -0.840  0.00  0.00    +0.292 HD
ENDBRANCH  13  16
ENDBRANCH   5  10
ENDBRANCH   2   8
BRANCH   2  18
ATOM     18  C   UNL     1       1.202   1.553  -0.017  0.00  0.00    +0.203 C 
ATOM     19  O   UNL     1       1.290   2.759  -0.112  0.00  0.00    -0.277 OA
ATOM     20  N   UNL     1      -0.011   0.966   0.007  0.00  0.00    -0.286 N 
ATOM     21  H   UNL     1      -0.082  -0.002   0.018  0.00  0.00    +0.155 HD
BRANCH  20  22
ATOM     22  C   UNL     1      -1.169   1.752   0.013  0.00  0.00    +0.045 A 
ATOM     23  C   UNL     1      -1.199   2.951  -0.688  0.00  0.00    +0.024 A 
ATOM     24  C   UNL     1      -2.345   3.721  -0.685  0.00  0.00    +0.002 A 
ATOM     25  C   UNL     1      -3.458   3.306   0.023  0.00  0.00    +0.001 A 
ATOM     26  C   UNL     1      -3.429   2.116   0.726  0.00  0.00    +0.014 A 
ATOM     27  C   UNL     1      -2.288   1.337   0.723  0.00  0.00    +0.076 A 
BRANCH  27  28
ATOM     28  C   UNL     1      -2.257   0.041   1.490  0.00  0.00    +0.419 C 
ATOM     29  F   UNL     1      -3.491  -0.159   2.118  0.00  0.00    -0.166 F 
ATOM     30  F   UNL     1      -2.006  -1.016   0.609  0.00  0.00    -0.166 F 
ATOM     31  F   UNL     1      -1.245   0.093   2.455  0.00  0.00    -0.166 F 
ENDBRANCH  27  28
ENDBRANCH  20  22
ENDBRANCH   2  18
TORSDOF 6
