REMARK  Name = ZINC37946587
REMARK  7 active torsions:
REMARK  status: ('A' for Active; 'I' for Inactive)
REMARK    1  A    between atoms: C_4  and  O_19
REMARK    2  A    between atoms: C_5  and  C_7
REMARK    3  A    between atoms: C_7  and  C_9
REMARK    4  A    between atoms: C_7  and  N_12
REMARK    5  A    between atoms: N_12  and  C_13
REMARK    6  A    between atoms: C_13  and  C_14
REMARK    7  A    between atoms: O_19  and  C_20
REMARK                            x       y       z     vdW  Elec       q    Type
REMARK                         _______ _______ _______ _____ _____    ______ ____
ROOT
ATOM      1  C   UNL     1       1.227  -2.187  -0.022  0.00  0.00    +0.051 C 
ENDROOT
BRANCH   1   6
ATOM      2  C   UNL     1      -0.017   1.378   0.010  0.00  0.00    +0.000 A 
ATOM      3  C   UNL     1       1.170   2.088   0.002  0.00  0.00    +0.004 A 
ATOM      4  C   UNL     1       2.377   1.417  -0.013  0.00  0.00    +0.046 A 
ATOM      5  C   UNL     1       2.399   0.030  -0.021  0.00  0.00    +0.129 A 
ATOM      6  C   UNL     1       1.207  -0.680  -0.013  0.00  0.00    -0.011 A 
ATOM      7  C   UNL     1       0.002  -0.004   0.002  0.00  0.00    +0.006 A 
BRANCH   5   8
ATOM      8  O   UNL     1       3.586  -0.632  -0.037  0.00  0.00    -0.434 OA
BRANCH   8   9
ATOM      9  C   UNL     1       4.772   0.164  -0.045  0.00  0.00    +0.541 C 
ATOM     10  F   UNL     1       4.781   0.977  -1.183  0.00  0.00    -0.166 F 
ATOM     11  F   UNL     1       4.804   0.965   1.101  0.00  0.00    -0.166 F 
ENDBRANCH   8   9
ENDBRANCH   5   8
ENDBRANCH   1   6
BRANCH   1  12
ATOM     12  C   UNL     1       1.372  -2.695   1.389  0.00  0.00    +0.201 C 
ATOM     13  O   UNL     1       0.514  -3.406   1.869  0.00  0.00    -0.277 OA
ATOM     14  N   UNL     1       2.454  -2.360   2.119  0.00  0.00    -0.330 N 
ATOM     15  H   UNL     1       3.140  -1.791   1.736  0.00  0.00    +0.145 HD
ATOM     16  H   UNL     1       2.547  -2.687   3.027  0.00  0.00    +0.145 HD
ENDBRANCH   1  12
BRANCH   1  17
ATOM     17  N   UNL     1      -0.028  -2.689  -0.597  0.00  0.00    +0.392 N 
ATOM     18  H   UNL     1      -0.798  -2.436   0.003  0.00  0.00    -0.084 HD
ATOM     19  H   UNL     1      -0.165  -2.284  -1.511  0.00  0.00    -0.084 HD
BRANCH  17  20
ATOM     20  C   UNL     1       0.040  -4.152  -0.716  0.00  0.00    -0.038 C 
BRANCH  20  21
ATOM     21  C   UNL     1      -1.247  -4.668  -1.307  0.00  0.00    -0.027 A 
ATOM     22  C   UNL     1      -1.570  -4.868  -2.608  0.00  0.00    +0.009 A 
ATOM     23  C   UNL     1      -2.825  -5.355  -2.920  0.00  0.00    +0.008 A 
ATOM     24  C   UNL     1      -3.696  -5.619  -1.916  0.00  0.00    +0.045 A 
ATOM     25  S   UNL     1      -2.740  -5.181  -0.473  0.00  0.00    -0.104 S 
ENDBRANCH  20  21
ENDBRANCH  17  20
ENDBRANCH   1  17
TORSDOF 7
