REMARK  Name = ZINC20779665
REMARK  12 active torsions:
REMARK  status: ('A' for Active; 'I' for Inactive)
REMARK    1  A    between atoms: C_1  and  C_2
REMARK    2  A    between atoms: C_2  and  N_3
REMARK    3  A    between atoms: C_4  and  C_32
REMARK    4  A    between atoms: C_5  and  C_9
REMARK    5  A    between atoms: C_6  and  C_8
REMARK    6  A    between atoms: C_9  and  N_10
REMARK    7  A    between atoms: N_10  and  C_11
REMARK    8  A    between atoms: N_10  and  C_19
REMARK    9  A    between atoms: C_11  and  C_12
REMARK   10  A    between atoms: C_12  and  N_13
REMARK   11  A    between atoms: C_19  and  C_20
REMARK   12  A    between atoms: N_25  and  C_27
REMARK                            x       y       z     vdW  Elec       q    Type
REMARK                         _______ _______ _______ _____ _____    ______ ____
ROOT
ATOM      1  N   UNL     1      -0.504  -0.643   5.995  0.00  0.00    -0.300 NA
ENDROOT
BRANCH   1   2
ATOM      2  C   UNL     1       0.160  -0.644   4.685  0.00  0.00    +0.123 C 
BRANCH   2   5
ATOM      3  N   UNL     1      -1.141   2.113   2.683  0.00  0.00    -0.268 N 
ATOM      4  C   UNL     1      -1.212   0.842   3.133  0.00  0.00    +0.041 A 
ATOM      5  C   UNL     1      -0.160   0.637   3.959  0.00  0.00    +0.010 A 
ATOM      6  C   UNL     1       0.574   1.826   4.023  0.00  0.00    +0.065 A 
ATOM      7  N   UNL     1      -0.013   2.711   3.259  0.00  0.00    -0.176 NA
ATOM      8  C   UNL     1       1.825   2.049   4.834  0.00  0.00    +0.068 C 
ATOM      9  C   UNL     1      -2.272  -0.168   2.776  0.00  0.00    +0.065 C 
BRANCH   3  11
ATOM     10  C   UNL     1      -1.607   2.544   0.321  0.00  0.00    +0.029 C 
ATOM     11  C   UNL     1      -2.081   2.755   1.761  0.00  0.00    +0.140 C 
ENDBRANCH   3  11
ENDBRANCH   2   5
ENDBRANCH   1   2
BRANCH   1  12
ATOM     12  C   UNL     1       0.051   0.402   6.867  0.00  0.00    +0.066 C 
BRANCH  12  13
ATOM     13  C   UNL     1      -0.890   0.631   8.051  0.00  0.00    -0.063 C 
BRANCH  13  14
ATOM     14  N   UNL     1      -0.380   1.734   8.875  0.00  0.00    +0.381 N 
ATOM     15  C   UNL     1       0.824   1.328   9.612  0.00  0.00    -0.079 C 
ATOM     16  C   UNL     1       1.409   2.539  10.343  0.00  0.00    -0.019 C 
ATOM     17  C   UNL     1       0.362   3.101  11.309  0.00  0.00    -0.004 C 
ATOM     18  C   UNL     1      -0.899   3.471  10.523  0.00  0.00    -0.019 C 
ATOM     19  C   UNL     1      -1.417   2.233   9.787  0.00  0.00    -0.079 C 
ATOM     20  H   UNL     1      -0.100   2.559   8.203  0.00  0.00    -0.082 HD
ENDBRANCH  13  14
ENDBRANCH  12  13
ENDBRANCH   1  12
BRANCH   1  21
ATOM     21  C   UNL     1      -0.413  -1.963   6.632  0.00  0.00    +0.086 C 
BRANCH  21  22
ATOM     22  C   UNL     1      -1.401  -2.921   5.964  0.00  0.00    -0.014 C 
ATOM     23  C   UNL     1      -2.830  -2.415   6.179  0.00  0.00    +0.001 C 
ATOM     24  C   UNL     1      -3.815  -3.410   5.559  0.00  0.00    -0.018 C 
ATOM     25  C   UNL     1      -3.604  -4.789   6.189  0.00  0.00    -0.078 C 
ATOM     26  N   UNL     1      -2.223  -5.229   5.955  0.00  0.00    +0.382 N 
ATOM     27  C   UNL     1      -1.260  -4.314   6.582  0.00  0.00    -0.074 C 
ATOM     28  H   UNL     1      -2.044  -5.211   4.870  0.00  0.00    -0.081 HD
BRANCH  26  29
ATOM     29  C   UNL     1      -2.023  -6.606   6.425  0.00  0.00    -0.069 C 
ATOM     30  C   UNL     1      -0.623  -7.108   6.012  0.00  0.00    -0.015 C 
ATOM     31  C   UNL     1      -0.844  -8.599   5.658  0.00  0.00    -0.002 C 
ATOM     32  C   UNL     1      -2.225  -8.584   4.958  0.00  0.00    -0.002 C 
ATOM     33  C   UNL     1      -3.041  -7.545   5.755  0.00  0.00    -0.015 C 
ENDBRANCH  26  29
ENDBRANCH  21  22
ENDBRANCH   1  21
TORSDOF 9
