REMARK  Name = ZINC02337273
REMARK  11 active torsions:
REMARK  status: ('A' for Active; 'I' for Inactive)
REMARK    1  A    between atoms: C_1  and  C_2
REMARK    2  A    between atoms: C_2  and  C_3
REMARK    3  A    between atoms: C_3  and  C_31
REMARK    4  A    between atoms: C_10  and  N_28
REMARK    5  A    between atoms: C_12  and  S_14
REMARK    6  A    between atoms: S_14  and  C_15
REMARK    7  A    between atoms: C_15  and  C_16
REMARK    8  A    between atoms: N_18  and  C_19
REMARK    9  A    between atoms: C_22  and  O_25
REMARK   10  A    between atoms: O_25  and  C_26
REMARK   11  A    between atoms: C_26  and  C_27
REMARK                            x       y       z     vdW  Elec       q    Type
REMARK                         _______ _______ _______ _____ _____    ______ ____
ROOT
ATOM      1  C   UNL     1       2.363 -12.784   0.663  0.00  0.00    +0.071 C 
ATOM      2  C   UNL     1       2.062 -11.453  -0.032  0.00  0.00    +0.071 C 
ATOM      3  C   UNL     1       3.365 -10.664  -0.129  0.00  0.00    -0.020 A 
ATOM      4  C   UNL     1       4.544 -11.304   0.024  0.00  0.00    +0.021 A 
ATOM      5  S   UNL     1       5.778 -10.048  -0.157  0.00  0.00    -0.071 S 
ATOM      6  C   UNL     1       4.707  -8.661  -0.440  0.00  0.00    +0.115 A 
ATOM      7  C   UNL     1       3.416  -9.226  -0.383  0.00  0.00    +0.051 A 
ATOM      8  C   UNL     1       2.341  -8.315  -0.581  0.00  0.00    +0.129 A 
ATOM      9  N   UNL     1       2.605  -7.037  -0.794  0.00  0.00    -0.207 NA
ATOM     10  C   UNL     1       3.848  -6.572  -0.840  0.00  0.00    +0.191 A 
ATOM     11  N   UNL     1       4.889  -7.374  -0.662  0.00  0.00    -0.214 NA
ATOM     12  C   UNL     1       4.731 -12.766   0.288  0.00  0.00    +0.203 C 
ATOM     13  O   UNL     1       3.479 -13.424   0.038  0.00  0.00    -0.368 OA
ATOM     14  C   UNL     1       2.690 -12.525   2.135  0.00  0.00    +0.042 C 
ENDROOT
BRANCH   8  15
ATOM     15  N   UNL     1       1.032  -8.762  -0.545  0.00  0.00    -0.343 N 
ATOM     16  H   UNL     1       0.844  -9.713  -0.538  0.00  0.00    +0.144 HD
ATOM     17  H   UNL     1       0.302  -8.123  -0.528  0.00  0.00    +0.144 HD
ENDBRANCH   8  15
BRANCH   1  19
ATOM     18  C   UNL     1       1.390 -14.975   1.368  0.00  0.00    +0.007 C 
ATOM     19  C   UNL     1       1.137 -13.695   0.569  0.00  0.00    +0.032 C 
ENDBRANCH   1  19
BRANCH  10  20
ATOM     20  S   UNL     1       4.118  -4.856  -1.136  0.00  0.00    -0.077 S 
BRANCH  20  21
ATOM     21  C   UNL     1       2.406  -4.291  -1.294  0.00  0.00    +0.173 C 
BRANCH  21  22
ATOM     22  C   UNL     1       2.389  -2.808  -1.558  0.00  0.00    +0.227 C 
ATOM     23  O   UNL     1       3.432  -2.193  -1.633  0.00  0.00    -0.275 OA
ATOM     24  N   UNL     1       1.215  -2.164  -1.712  0.00  0.00    -0.285 N 
ATOM     25  H   UNL     1       0.380  -2.639  -1.578  0.00  0.00    +0.155 HD
BRANCH  24  26
ATOM     26  C   UNL     1       1.201  -0.808  -2.066  0.00  0.00    +0.034 A 
ATOM     27  C   UNL     1       2.192  -0.295  -2.892  0.00  0.00    +0.027 A 
ATOM     28  C   UNL     1       2.177   1.041  -3.240  0.00  0.00    +0.047 A 
ATOM     29  C   UNL     1       1.171   1.871  -2.766  0.00  0.00    +0.121 A 
ATOM     30  C   UNL     1       0.180   1.359  -1.941  0.00  0.00    +0.047 A 
ATOM     31  C   UNL     1       0.194   0.023  -1.592  0.00  0.00    +0.027 A 
BRANCH  29  32
ATOM     32  O   UNL     1       1.157   3.186  -3.110  0.00  0.00    -0.492 OA
BRANCH  32  33
ATOM     33  C   UNL     1       0.093   3.982  -2.585  0.00  0.00    +0.225 C 
ATOM     34  C   UNL     1       0.244   5.423  -3.077  0.00  0.00    +0.048 C 
ENDBRANCH  32  33
ENDBRANCH  29  32
ENDBRANCH  24  26
ENDBRANCH  21  22
ENDBRANCH  20  21
ENDBRANCH  10  20
TORSDOF 8
