REMARK  Name = ZINC36313623
REMARK  16 active torsions:
REMARK  status: ('A' for Active; 'I' for Inactive)
REMARK    1  A    between atoms: C_1  and  C_2
REMARK    2  A    between atoms: C_2  and  C_3
REMARK    3  A    between atoms: C_2  and  C_4
REMARK    4  A    between atoms: C_4  and  O_5
REMARK    5  A    between atoms: O_5  and  C_6
REMARK    6  A    between atoms: C_6  and  C_7
REMARK    7  A    between atoms: C_7  and  C_9
REMARK    8  A    between atoms: C_7  and  O_33
REMARK    9  A    between atoms: C_9  and  N_10
REMARK   10  A    between atoms: N_10  and  C_11
REMARK   11  A    between atoms: N_10  and  C_16
REMARK   12  A    between atoms: C_11  and  C_12
REMARK   13  A    between atoms: C_12  and  C_13
REMARK   14  A    between atoms: C_13  and  O_14
REMARK   15  A    between atoms: O_14  and  C_15
REMARK   16  A    between atoms: C_16  and  C_17
REMARK                            x       y       z     vdW  Elec       q    Type
REMARK                         _______ _______ _______ _____ _____    ______ ____
ROOT
ATOM      1  N   UNL     1       6.667   0.084  -3.286  0.00  0.00    +0.386 N 
ATOM      2  H   UNL     1       6.219   0.916  -2.932  0.00  0.00    -0.081 HD
ENDROOT
BRANCH   1   3
ATOM      3  C   UNL     1       5.665  -0.976  -3.459  0.00  0.00    -0.044 C 
BRANCH   3   4
ATOM      4  C   UNL     1       4.913  -1.186  -2.143  0.00  0.00    +0.124 C 
BRANCH   4   5
ATOM      5  O   UNL     1       5.802  -1.738  -1.169  0.00  0.00    -0.391 OA
ATOM      6  H   UNL     1       6.181  -2.591  -1.421  0.00  0.00    +0.210 HD
ENDBRANCH   4   5
BRANCH   4   7
ATOM      7  C   UNL     1       3.746  -2.149  -2.372  0.00  0.00    +0.189 C 
BRANCH   7   8
ATOM      8  O   UNL     1       2.975  -2.255  -1.173  0.00  0.00    -0.377 OA
BRANCH   8   9
ATOM      9  C   UNL     1       1.854  -3.135  -1.280  0.00  0.00    +0.163 C 
BRANCH   9  11
ATOM     10  C   UNL     1       0.511  -1.792   0.343  0.00  0.00    +0.009 C 
ATOM     11  C   UNL     1       1.105  -3.171   0.054  0.00  0.00    +0.009 C 
ATOM     12  C   UNL     1      -0.019  -4.206  -0.020  0.00  0.00    +0.009 C 
ENDBRANCH   9  11
ENDBRANCH   8   9
ENDBRANCH   7   8
ENDBRANCH   4   7
ENDBRANCH   3   4
ENDBRANCH   1   3
BRANCH   1  13
ATOM     13  C   UNL     1       7.693  -0.362  -2.333  0.00  0.00    -0.076 C 
BRANCH  13  14
ATOM     14  C   UNL     1       8.262  -1.707  -2.789  0.00  0.00    +0.009 C 
BRANCH  14  15
ATOM     15  C   UNL     1       9.253  -2.222  -1.744  0.00  0.00    +0.157 C 
BRANCH  15  16
ATOM     16  O   UNL     1       9.785  -3.478  -2.170  0.00  0.00    -0.383 OA
ATOM     17  C   UNL     1      10.726  -4.050  -1.259  0.00  0.00    +0.193 C 
ENDBRANCH  15  16
ENDBRANCH  14  15
ENDBRANCH  13  14
ENDBRANCH   1  13
BRANCH   1  18
ATOM     18  C   UNL     1       7.297   0.379  -4.580  0.00  0.00    -0.003 C 
BRANCH  18  19
ATOM     19  C   UNL     1       8.204   1.574  -4.436  0.00  0.00    +0.094 A 
ATOM     20  N   UNL     1       8.933   1.990  -5.504  0.00  0.00    -0.312 N 
ATOM     21  H   UNL     1       8.858   1.512  -6.345  0.00  0.00    +0.170 HD
ATOM     22  C   UNL     1       9.756   3.052  -5.419  0.00  0.00    +0.260 A 
ATOM     23  O   UNL     1      10.403   3.413  -6.387  0.00  0.00    -0.267 OA
ATOM     24  C   UNL     1       9.858   3.750  -4.171  0.00  0.00    +0.075 A 
ATOM     25  C   UNL     1      10.682   4.920  -3.854  0.00  0.00    -0.023 A 
ATOM     26  C   UNL     1      10.603   5.392  -2.592  0.00  0.00    -0.004 A 
ATOM     27  S   UNL     1       9.439   4.332  -1.773  0.00  0.00    -0.073 S 
ATOM     28  C   UNL     1       9.068   3.248  -3.127  0.00  0.00    +0.116 A 
ATOM     29  N   UNL     1       8.272   2.194  -3.288  0.00  0.00    -0.229 NA
ATOM     30  C   UNL     1      11.342   6.550  -1.997  0.00  0.00    +0.043 C 
ATOM     31  C   UNL     1      11.217   7.763  -2.928  0.00  0.00    +0.005 C 
ATOM     32  C   UNL     1      12.373   7.728  -3.922  0.00  0.00    +0.001 C 
ATOM     33  C   UNL     1      12.741   6.281  -4.245  0.00  0.00    +0.005 C 
ATOM     34  C   UNL     1      11.571   5.567  -4.912  0.00  0.00    +0.037 C 
ENDBRANCH  18  19
ENDBRANCH   1  18
TORSDOF 13
