REMARK  Name = ZINC19936575
REMARK  10 active torsions:
REMARK  status: ('A' for Active; 'I' for Inactive)
REMARK    1  A    between atoms: C_1  and  O_2
REMARK    2  A    between atoms: O_2  and  C_3
REMARK    3  A    between atoms: C_6  and  C_9
REMARK    4  A    between atoms: C_9  and  C_11
REMARK    5  A    between atoms: C_9  and  N_14
REMARK    6  A    between atoms: C_11  and  C_12
REMARK    7  A    between atoms: C_12  and  N_13
REMARK    8  A    between atoms: N_17  and  C_20
REMARK    9  A    between atoms: C_20  and  C_21
REMARK   10  A    between atoms: C_20  and  C_27
REMARK                            x       y       z     vdW  Elec       q    Type
REMARK                         _______ _______ _______ _____ _____    ______ ____
ROOT
ATOM      1  N   UNL     1      -0.230   2.449   1.190  0.00  0.00    -0.299 NA
ATOM      2  C   UNL     1       1.232   2.569   1.085  0.00  0.00    +0.066 C 
ATOM      3  C   UNL     1       1.652   3.994   1.454  0.00  0.00    -0.062 C 
ATOM      4  N   UNL     1       1.198   4.298   2.818  0.00  0.00    +0.389 N 
ATOM      5  C   UNL     1      -0.263   4.178   2.923  0.00  0.00    -0.062 C 
ATOM      6  C   UNL     1      -0.683   2.753   2.554  0.00  0.00    +0.066 C 
ATOM      7  H   UNL     1       1.649   3.561   3.499  0.00  0.00    -0.080 HD
ENDROOT
BRANCH   1   8
ATOM      8  C   UNL     1      -0.680   1.115   0.770  0.00  0.00    +0.085 C 
BRANCH   8  12
ATOM      9  C   UNL     1      -4.531   1.421  -1.057  0.00  0.00    +0.120 A 
ATOM     10  C   UNL     1      -3.645   0.433  -1.463  0.00  0.00    +0.046 A 
ATOM     11  C   UNL     1      -2.401   0.337  -0.871  0.00  0.00    +0.009 A 
ATOM     12  C   UNL     1      -2.038   1.223   0.126  0.00  0.00    -0.030 A 
ATOM     13  C   UNL     1      -2.920   2.205   0.536  0.00  0.00    +0.009 A 
ATOM     14  C   UNL     1      -4.164   2.310  -0.057  0.00  0.00    +0.046 A 
BRANCH   9  16
ATOM     15  C   UNL     1      -6.615   2.559  -1.170  0.00  0.00    +0.277 C 
ATOM     16  O   UNL     1      -5.755   1.518  -1.638  0.00  0.00    -0.495 OA
ENDBRANCH   9  16
ENDBRANCH   8  12
BRANCH   8  17
ATOM     17  C   UNL     1      -0.767   0.199   1.992  0.00  0.00    +0.004 C 
BRANCH  17  18
ATOM     18  C   UNL     1       0.634  -0.019   2.567  0.00  0.00    -0.085 C 
BRANCH  18  19
ATOM     19  N   UNL     1       0.576  -1.033   3.628  0.00  0.00    +0.378 N 
ATOM     20  H   UNL     1       1.583  -1.190   4.042  0.00  0.00    -0.090 HD
ATOM     21  H   UNL     1       0.200  -1.979   3.211  0.00  0.00    -0.090 HD
ATOM     22  H   UNL     1      -0.099  -0.691   4.427  0.00  0.00    -0.090 HD
ENDBRANCH  18  19
ENDBRANCH  17  18
ENDBRANCH   8  17
ENDBRANCH   1   8
BRANCH   4  23
ATOM     23  C   UNL     1       1.648   5.632   3.238  0.00  0.00    -0.007 C 
BRANCH  23  24
ATOM     24  C   UNL     1       1.210   5.886   4.657  0.00  0.00    -0.057 A 
ATOM     25  C   UNL     1       1.399   4.916   5.623  0.00  0.00    +0.002 A 
ATOM     26  C   UNL     1       1.001   5.152   6.926  0.00  0.00    +0.000 A 
ATOM     27  C   UNL     1       0.406   6.354   7.261  0.00  0.00    +0.000 A 
ATOM     28  C   UNL     1       0.212   7.322   6.293  0.00  0.00    +0.000 A 
ATOM     29  C   UNL     1       0.614   7.088   4.991  0.00  0.00    +0.002 A 
ENDBRANCH  23  24
BRANCH  23  30
ATOM     30  C   UNL     1       3.151   5.703   3.155  0.00  0.00    -0.057 A 
ATOM     31  C   UNL     1       3.919   4.646   3.606  0.00  0.00    +0.002 A 
ATOM     32  C   UNL     1       5.298   4.709   3.526  0.00  0.00    +0.000 A 
ATOM     33  C   UNL     1       5.909   5.835   3.005  0.00  0.00    +0.000 A 
ATOM     34  C   UNL     1       5.141   6.895   2.560  0.00  0.00    +0.000 A 
ATOM     35  C   UNL     1       3.762   6.829   2.635  0.00  0.00    +0.002 A 
ENDBRANCH  23  30
ENDBRANCH   4  23
TORSDOF 9
