REMARK  Name = ZINC37306756
REMARK  5 active torsions:
REMARK  status: ('A' for Active; 'I' for Inactive)
REMARK    1  A    between atoms: C_1  and  C_2
REMARK    2  A    between atoms: C_5  and  O_8
REMARK    3  A    between atoms: O_8  and  C_9
REMARK    4  A    between atoms: C_12  and  C_19
REMARK    5  A    between atoms: C_13  and  C_15
REMARK                            x       y       z     vdW  Elec       q    Type
REMARK                         _______ _______ _______ _____ _____    ______ ____
ROOT
ATOM      1  C   UNL     1      -1.425  -3.007   3.325  0.00  0.00    +0.121 A 
ATOM      2  C   UNL     1      -0.776  -4.231   3.437  0.00  0.00    +0.046 A 
ATOM      3  C   UNL     1      -0.819  -4.928   4.624  0.00  0.00    +0.015 A 
ATOM      4  C   UNL     1      -1.516  -4.404   5.715  0.00  0.00    +0.024 A 
ATOM      5  C   UNL     1      -2.166  -3.174   5.599  0.00  0.00    +0.069 A 
ATOM      6  C   UNL     1      -2.115  -2.480   4.410  0.00  0.00    +0.058 A 
ENDROOT
BRANCH   4   7
ATOM      7  C   UNL     1      -1.565  -5.150   6.990  0.00  0.00    +0.095 C 
ATOM      8  N   UNL     1      -2.739  -5.512   7.505  0.00  0.00    -0.387 N 
ATOM      9  N   UNL     1      -0.434  -5.460   7.624  0.00  0.00    -0.345 N 
ATOM     10  H   UNL     1      -3.555  -5.364   7.003  0.00  0.00    +0.157 HD
ATOM     11  H   UNL     1       0.420  -5.197   7.249  0.00  0.00    +0.144 HD
ATOM     12  H   UNL     1      -0.467  -5.950   8.461  0.00  0.00    +0.144 HD
ATOM     13  H   UNL     1      -2.777  -5.923   8.383  0.00  0.00    +0.157 HD
ENDBRANCH   4   7
BRANCH   5  14
ATOM     14  C   UNL     1      -2.920  -2.604   6.773  0.00  0.00    +0.418 C 
ATOM     15  F   UNL     1      -3.363  -1.315   6.462  0.00  0.00    -0.166 F 
ATOM     16  F   UNL     1      -4.020  -3.419   7.061  0.00  0.00    -0.166 F 
ATOM     17  F   UNL     1      -2.075  -2.551   7.887  0.00  0.00    -0.166 F 
ENDBRANCH   5  14
BRANCH   1  18
ATOM     18  O   UNL     1      -1.381  -2.322   2.154  0.00  0.00    -0.489 OA
BRANCH  18  23
ATOM     19  C   UNL     1       0.762   0.838  -0.335  0.00  0.00    +0.007 C 
ATOM     20  C   UNL     1       0.479  -0.664  -0.270  0.00  0.00    -0.014 C 
ATOM     21  C   UNL     1      -1.032  -0.901  -0.325  0.00  0.00    +0.007 C 
ATOM     22  C   UNL     1      -1.314  -2.404  -0.261  0.00  0.00    +0.045 C 
ATOM     23  C   UNL     1      -0.756  -2.972   1.045  0.00  0.00    +0.173 C 
ATOM     24  C   UNL     1       0.755  -2.735   1.100  0.00  0.00    +0.045 C 
ATOM     25  C   UNL     1       1.038  -1.233   1.036  0.00  0.00    +0.007 C 
ENDBRANCH  18  23
ENDBRANCH   1  18
TORSDOF 4
