REMARK  Name = ZINC63478574
REMARK  11 active torsions:
REMARK  status: ('A' for Active; 'I' for Inactive)
REMARK    1  A    between atoms: C_1  and  C_2
REMARK    2  A    between atoms: C_6  and  N_8
REMARK    3  A    between atoms: C_9  and  S_14
REMARK    4  A    between atoms: S_14  and  C_15
REMARK    5  A    between atoms: C_15  and  C_17
REMARK    6  A    between atoms: C_15  and  C_18
REMARK    7  A    between atoms: N_20  and  C_21
REMARK    8  A    between atoms: C_21  and  C_22
REMARK    9  A    between atoms: C_22  and  C_23
REMARK   10  A    between atoms: C_27  and  O_32
REMARK   11  A    between atoms: O_32  and  C_33
REMARK                            x       y       z     vdW  Elec       q    Type
REMARK                         _______ _______ _______ _____ _____    ______ ____
ROOT
ATOM      1  C   UNL     1      -4.073  -4.885   2.321  0.00  0.00    +0.226 C 
ATOM      2  O   UNL     1      -4.134  -5.490   1.272  0.00  0.00    -0.275 OA
ATOM      3  N   UNL     1      -5.165  -4.782   3.104  0.00  0.00    -0.314 N 
ATOM      4  H   UNL     1      -5.116  -4.297   3.943  0.00  0.00    +0.149 HD
ENDROOT
BRANCH   1   5
ATOM      5  C   UNL     1      -2.776  -4.247   2.749  0.00  0.00    +0.133 C 
ATOM      6  C   UNL     1      -2.815  -2.750   2.432  0.00  0.00    +0.029 C 
BRANCH   5   7
ATOM      7  S   UNL     1      -1.399  -5.018   1.855  0.00  0.00    -0.100 S 
BRANCH   7   9
ATOM      8  N   UNL     1       0.052  -2.797   2.390  0.00  0.00    -0.201 N 
ATOM      9  C   UNL     1       0.078  -4.258   2.583  0.00  0.00    +0.294 C 
ATOM     10  N   UNL     1       0.085  -4.443   4.040  0.00  0.00    -0.135 NA
ATOM     11  N   UNL     1       0.068  -3.345   4.597  0.00  0.00    -0.066 NA
ATOM     12  N   UNL     1       0.052  -2.278   3.698  0.00  0.00    -0.164 N 
ATOM     13  H   UNL     1       0.040  -1.337   3.935  0.00  0.00    +0.195 HD
BRANCH   8  19
ATOM     14  C   UNL     1      -0.018   1.503   0.010  0.00  0.00    +0.044 C 
ATOM     15  C   UNL     1       0.002  -0.004   0.002  0.00  0.00    -0.049 A 
ATOM     16  C   UNL     1       0.006  -0.688  -1.200  0.00  0.00    +0.003 A 
ATOM     17  C   UNL     1       0.025  -2.071  -1.212  0.00  0.00    +0.002 A 
ATOM     18  C   UNL     1       0.040  -2.773  -0.023  0.00  0.00    +0.025 A 
ATOM     19  C   UNL     1       0.036  -2.089   1.186  0.00  0.00    +0.053 A 
ATOM     20  C   UNL     1       0.023  -0.700   1.194  0.00  0.00    +0.028 A 
ENDBRANCH   8  19
ENDBRANCH   7   9
ENDBRANCH   5   7
ENDBRANCH   1   5
BRANCH   3  21
ATOM     21  C   UNL     1      -6.425  -5.402   2.689  0.00  0.00    +0.108 C 
BRANCH  21  22
ATOM     22  C   UNL     1      -7.497  -5.138   3.748  0.00  0.00    +0.052 C 
BRANCH  22  23
ATOM     23  C   UNL     1      -8.794  -5.776   3.321  0.00  0.00    -0.040 C 
ATOM     24  C   UNL     1      -9.257  -6.993   3.681  0.00  0.00    -0.001 A 
ATOM     25  C   UNL     1      -8.712  -8.047   4.547  0.00  0.00    +0.013 A 
ATOM     26  C   UNL     1      -9.419  -9.184   4.723  0.00  0.00    +0.046 A 
ATOM     27  C   UNL     1     -10.664  -9.383   4.097  0.00  0.00    +0.122 A 
ATOM     28  C   UNL     1     -11.229  -8.454   3.284  0.00  0.00    +0.071 A 
ATOM     29  C   UNL     1     -10.569  -7.225   3.034  0.00  0.00    +0.046 A 
ATOM     30  N   UNL     1     -10.903  -6.188   2.301  0.00  0.00    -0.380 N 
ATOM     31  C   UNL     1      -9.841  -5.181   2.407  0.00  0.00    +0.144 C 
ATOM     32  H   UNL     1     -11.716  -6.101   1.779  0.00  0.00    +0.160 HD
BRANCH  27  33
ATOM     33  O   UNL     1     -11.325 -10.547   4.314  0.00  0.00    -0.495 OA
ATOM     34  C   UNL     1     -10.696 -11.499   5.175  0.00  0.00    +0.277 C 
ENDBRANCH  27  33
ENDBRANCH  22  23
ENDBRANCH  21  22
ENDBRANCH   3  21
TORSDOF 8
