REMARK  Name = ZINC59170387
REMARK  6 active torsions:
REMARK  status: ('A' for Active; 'I' for Inactive)
REMARK    1  A    between atoms: C_4  and  N_7
REMARK    2  A    between atoms: C_8  and  C_10
REMARK    3  A    between atoms: C_15  and  O_31
REMARK    4  A    between atoms: N_20  and  C_21
REMARK    5  A    between atoms: C_24  and  S_27
REMARK    6  A    between atoms: S_27  and  N_30
REMARK                            x       y       z     vdW  Elec       q    Type
REMARK                         _______ _______ _______ _____ _____    ______ ____
ROOT
ATOM      1  C   UNL     1       4.913  -2.679   0.209  0.00  0.00    +0.098 A 
ATOM      2  C   UNL     1       4.949  -4.067   0.190  0.00  0.00    +0.030 A 
ATOM      3  C   UNL     1       6.214  -4.705   0.252  0.00  0.00    +0.018 A 
ATOM      4  C   UNL     1       6.323  -6.087   0.034  0.00  0.00    +0.015 A 
ATOM      5  C   UNL     1       7.549  -6.683   0.055  0.00  0.00    +0.046 A 
ATOM      6  C   UNL     1       8.697  -5.932   0.298  0.00  0.00    +0.120 A 
ATOM      7  C   UNL     1       8.607  -4.568   0.536  0.00  0.00    +0.092 A 
ATOM      8  C   UNL     1       7.370  -3.948   0.525  0.00  0.00    +0.141 A 
ATOM      9  O   UNL     1       7.266  -2.623   0.798  0.00  0.00    -0.438 OA
ATOM     10  C   UNL     1       6.206  -1.968   0.254  0.00  0.00    +0.212 A 
ATOM     11  N   UNL     1       6.325  -0.743  -0.211  0.00  0.00    -0.325 N 
ATOM     12  H   UNL     1       5.590  -0.334  -0.695  0.00  0.00    +0.169 HD
ENDROOT
BRANCH  11  13
ATOM     13  C   UNL     1       7.484  -0.046  -0.013  0.00  0.00    +0.042 A 
ATOM     14  C   UNL     1       8.101  -0.051   1.241  0.00  0.00    +0.027 A 
ATOM     15  C   UNL     1       9.270   0.654   1.434  0.00  0.00    +0.030 A 
ATOM     16  C   UNL     1       9.834   1.365   0.389  0.00  0.00    +0.105 A 
ATOM     17  C   UNL     1       9.229   1.375  -0.856  0.00  0.00    +0.030 A 
ATOM     18  C   UNL     1       8.062   0.670  -1.065  0.00  0.00    +0.027 A 
BRANCH  16  19
ATOM     19  S   UNL     1      11.327   2.264   0.645  0.00  0.00    +0.056 S 
ATOM     20  O   UNL     1      11.358   3.289  -0.339  0.00  0.00    -0.153 OA
ATOM     21  O   UNL     1      11.401   2.542   2.037  0.00  0.00    -0.153 OA
BRANCH  19  22
ATOM     22  N   UNL     1      12.581   1.238   0.300  0.00  0.00    -0.204 NA
ATOM     23  H   UNL     1      12.399   0.329   0.017  0.00  0.00    +0.144 HD
ATOM     24  H   UNL     1      13.497   1.548   0.381  0.00  0.00    +0.144 HD
ENDBRANCH  19  22
ENDBRANCH  16  19
ENDBRANCH  11  13
BRANCH   1  26
ATOM     25  N   UNL     1       3.625  -0.609   0.344  0.00  0.00    -0.281 N 
ATOM     26  C   UNL     1       3.638  -1.947   0.181  0.00  0.00    +0.253 C 
ATOM     27  O   UNL     1       2.594  -2.549   0.009  0.00  0.00    -0.270 OA
ATOM     28  H   UNL     1       4.460  -0.122   0.426  0.00  0.00    +0.155 HD
BRANCH  25  32
ATOM     29  C   UNL     1      -0.000   1.436   0.499  0.00  0.00    +0.000 A 
ATOM     30  C   UNL     1       1.067   1.866   1.266  0.00  0.00    +0.002 A 
ATOM     31  C   UNL     1       2.271   1.190   1.217  0.00  0.00    +0.023 A 
ATOM     32  C   UNL     1       2.408   0.077   0.397  0.00  0.00    +0.034 A 
ATOM     33  C   UNL     1       1.333  -0.351  -0.372  0.00  0.00    +0.023 A 
ATOM     34  C   UNL     1       0.133   0.330  -0.319  0.00  0.00    +0.002 A 
ENDBRANCH  25  32
ENDBRANCH   1  26
BRANCH   6  35
ATOM     35  O   UNL     1       9.911  -6.538   0.304  0.00  0.00    -0.507 OA
ATOM     36  H   UNL     1      10.345  -6.558  -0.560  0.00  0.00    +0.292 HD
ENDBRANCH   6  35
TORSDOF 6
