REMARK  Name = ZINC40825218
REMARK  11 active torsions:
REMARK  status: ('A' for Active; 'I' for Inactive)
REMARK    1  A    between atoms: C_1  and  C_2
REMARK    2  A    between atoms: C_2  and  O_3
REMARK    3  A    between atoms: O_3  and  C_4
REMARK    4  A    between atoms: C_4  and  C_6
REMARK    5  A    between atoms: C_9  and  N_12
REMARK    6  A    between atoms: C_13  and  C_15
REMARK    7  A    between atoms: C_16  and  C_35
REMARK    8  A    between atoms: N_24  and  N_25
REMARK    9  A    between atoms: N_25  and  C_26
REMARK   10  A    between atoms: C_26  and  N_28
REMARK   11  A    between atoms: N_28  and  C_29
REMARK                            x       y       z     vdW  Elec       q    Type
REMARK                         _______ _______ _______ _____ _____    ______ ____
ROOT
ATOM      1  C   UNL     1       4.672  -6.016   6.758  0.00  0.00    +0.193 A 
ATOM      2  C   UNL     1       4.651  -7.313   7.193  0.00  0.00    +0.009 A 
ATOM      3  C   UNL     1       5.012  -7.277   8.545  0.00  0.00    +0.042 A 
ATOM      4  C   UNL     1       5.237  -5.963   8.879  0.00  0.00    +0.115 A 
ATOM      5  O   UNL     1       5.035  -5.222   7.791  0.00  0.00    -0.454 OA
ATOM      6  C   UNL     1       5.644  -5.525  10.263  0.00  0.00    +0.075 C 
ATOM      7  C   UNL     1       5.264  -6.612  11.272  0.00  0.00    +0.014 C 
ATOM      8  C   UNL     1       5.828  -7.970  10.842  0.00  0.00    +0.058 C 
ATOM      9  C   UNL     1       5.162  -8.370   9.533  0.00  0.00    +0.070 C 
ATOM     10  N   UNL     1       4.756  -9.579   9.300  0.00  0.00    -0.185 NA
ATOM     11  C   UNL     1       4.306  -8.534   6.381  0.00  0.00    +0.048 C 
ENDROOT
BRANCH   1  13
ATOM     12  N   UNL     1       4.423  -4.253   5.093  0.00  0.00    -0.279 N 
ATOM     13  C   UNL     1       4.359  -5.564   5.398  0.00  0.00    +0.284 C 
ATOM     14  O   UNL     1       4.043  -6.373   4.546  0.00  0.00    -0.266 OA
ATOM     15  H   UNL     1       4.751  -3.618   5.748  0.00  0.00    +0.155 HD
BRANCH  12  19
ATOM     16  C   UNL     1       3.208  -2.929   1.337  0.00  0.00    +0.059 A 
ATOM     17  C   UNL     1       2.553  -4.003   1.946  0.00  0.00    +0.017 A 
ATOM     18  C   UNL     1       2.958  -4.439   3.188  0.00  0.00    +0.024 A 
ATOM     19  C   UNL     1       4.016  -3.810   3.836  0.00  0.00    +0.034 A 
ATOM     20  C   UNL     1       4.670  -2.740   3.233  0.00  0.00    +0.024 A 
ATOM     21  C   UNL     1       4.275  -2.303   1.989  0.00  0.00    +0.017 A 
BRANCH  16  22
ATOM     22  C   UNL     1       2.778  -2.460   0.006  0.00  0.00    +0.339 C 
ATOM     23  O   UNL     1       3.350  -1.529  -0.524  0.00  0.00    -0.245 OA
BRANCH  22  24
ATOM     24  O   UNL     1       1.749  -3.064  -0.621  0.00  0.00    -0.461 OA
BRANCH  24  26
ATOM     25  C   UNL     1       0.208  -3.363  -2.458  0.00  0.00    +0.048 C 
ATOM     26  C   UNL     1       1.386  -2.558  -1.907  0.00  0.00    +0.229 C 
ENDBRANCH  24  26
ENDBRANCH  22  24
ENDBRANCH  16  22
ENDBRANCH  12  19
ENDBRANCH   1  13
BRANCH  10  27
ATOM     27  N   UNL     1       4.924 -10.574  10.272  0.00  0.00    -0.218 N 
ATOM     28  H   UNL     1       5.344 -10.358  11.119  0.00  0.00    +0.176 HD
BRANCH  27  29
ATOM     29  C   UNL     1       4.501 -11.831  10.030  0.00  0.00    +0.154 C 
ATOM     30  S   UNL     1       4.707 -13.047  11.218  0.00  0.00    -0.017 S 
BRANCH  29  31
ATOM     31  N   UNL     1       3.917 -12.131   8.853  0.00  0.00    -0.296 N 
ATOM     32  H   UNL     1       3.873 -11.464   8.149  0.00  0.00    +0.154 HD
BRANCH  31  33
ATOM     33  C   UNL     1       3.375 -13.403   8.645  0.00  0.00    +0.033 A 
ATOM     34  C   UNL     1       2.648 -14.023   9.653  0.00  0.00    +0.023 A 
ATOM     35  C   UNL     1       2.114 -15.279   9.445  0.00  0.00    +0.002 A 
ATOM     36  C   UNL     1       2.303 -15.920   8.234  0.00  0.00    +0.000 A 
ATOM     37  C   UNL     1       3.026 -15.306   7.228  0.00  0.00    +0.002 A 
ATOM     38  C   UNL     1       3.558 -14.047   7.428  0.00  0.00    +0.023 A 
ENDBRANCH  31  33
ENDBRANCH  29  31
ENDBRANCH  27  29
ENDBRANCH  10  27
TORSDOF 9
