REMARK  Name = ZINC15735934
REMARK  12 active torsions:
REMARK  status: ('A' for Active; 'I' for Inactive)
REMARK    1  A    between atoms: C_1  and  C_2
REMARK    2  A    between atoms: C_5  and  N_19
REMARK    3  A    between atoms: C_7  and  S_8
REMARK    4  A    between atoms: S_8  and  N_11
REMARK    5  A    between atoms: N_11  and  C_12
REMARK    6  A    between atoms: C_20  and  C_22
REMARK    7  A    between atoms: C_25  and  O_32
REMARK    8  A    between atoms: C_26  and  O_30
REMARK    9  A    between atoms: C_27  and  O_28
REMARK   10  A    between atoms: O_28  and  C_29
REMARK   11  A    between atoms: O_30  and  C_31
REMARK   12  A    between atoms: O_32  and  C_33
REMARK                            x       y       z     vdW  Elec       q    Type
REMARK                         _______ _______ _______ _____ _____    ______ ____
ROOT
ATOM      1  C   UNL     1      -1.583   0.682  -0.466  0.00  0.00    +0.046 C 
ATOM      2  C   UNL     1      -0.269   1.418  -0.431  0.00  0.00    -0.024 A 
ATOM      3  C   UNL     1      -0.243   2.792  -0.588  0.00  0.00    +0.007 A 
ATOM      4  C   UNL     1       0.960   3.470  -0.556  0.00  0.00    +0.024 A 
ATOM      5  C   UNL     1       2.145   2.770  -0.366  0.00  0.00    +0.036 A 
ATOM      6  C   UNL     1       2.116   1.391  -0.209  0.00  0.00    +0.052 A 
ATOM      7  C   UNL     1       0.909   0.719  -0.242  0.00  0.00    +0.113 A 
ENDROOT
BRANCH   5   8
ATOM      8  N   UNL     1       3.365   3.453  -0.333  0.00  0.00    -0.281 N 
ATOM      9  C   UNL     1       4.471   2.882  -0.848  0.00  0.00    +0.252 C 
ATOM     10  O   UNL     1       4.431   1.737  -1.256  0.00  0.00    -0.270 OA
ATOM     11  H   UNL     1       3.414   4.338   0.061  0.00  0.00    +0.155 HD
BRANCH   9  12
ATOM     12  C   UNL     1       5.730   3.645  -0.918  0.00  0.00    +0.082 A 
ATOM     13  C   UNL     1       5.777   4.964  -0.455  0.00  0.00    +0.020 A 
ATOM     14  C   UNL     1       6.955   5.673  -0.516  0.00  0.00    +0.050 A 
ATOM     15  C   UNL     1       8.099   5.088  -1.047  0.00  0.00    +0.165 A 
ATOM     16  C   UNL     1       8.064   3.779  -1.515  0.00  0.00    +0.204 A 
ATOM     17  C   UNL     1       6.883   3.053  -1.453  0.00  0.00    +0.177 A 
BRANCH  17  18
ATOM     18  O   UNL     1       6.843   1.775  -1.910  0.00  0.00    -0.491 OA
ATOM     19  C   UNL     1       7.094   0.738  -0.958  0.00  0.00    +0.277 C 
ENDBRANCH  17  18
BRANCH  16  20
ATOM     20  O   UNL     1       9.186   3.211  -2.034  0.00  0.00    -0.488 OA
ATOM     21  C   UNL     1       9.456   3.452  -3.417  0.00  0.00    +0.277 C 
ENDBRANCH  16  20
BRANCH  15  22
ATOM     22  O   UNL     1       9.256   5.797  -1.108  0.00  0.00    -0.491 OA
ATOM     23  C   UNL     1       9.223   7.136  -0.610  0.00  0.00    +0.277 C 
ENDBRANCH  15  22
ENDBRANCH   9  12
ENDBRANCH   5   8
BRANCH   7  24
ATOM     24  S   UNL     1       0.871  -1.031  -0.042  0.00  0.00    +0.073 S 
ATOM     25  O   UNL     1       0.067  -1.543  -1.097  0.00  0.00    -0.150 OA
ATOM     26  O   UNL     1       2.214  -1.446   0.161  0.00  0.00    -0.150 OA
BRANCH  24  27
ATOM     27  N   UNL     1       0.060  -1.346   1.367  0.00  0.00    -0.216 N 
ATOM     28  H   UNL     1      -0.768  -1.851   1.348  0.00  0.00    +0.174 HD
BRANCH  27  29
ATOM     29  C   UNL     1       0.568  -0.883   2.583  0.00  0.00    +0.049 A 
ATOM     30  C   UNL     1      -0.273  -0.260   3.497  0.00  0.00    +0.024 A 
ATOM     31  C   UNL     1       0.231   0.195   4.699  0.00  0.00    +0.003 A 
ATOM     32  C   UNL     1       1.572   0.032   4.994  0.00  0.00    +0.020 A 
ATOM     33  C   UNL     1       2.413  -0.588   4.087  0.00  0.00    +0.043 A 
ATOM     34  C   UNL     1       1.913  -1.051   2.884  0.00  0.00    +0.044 A 
ATOM     35 CL   UNL     1       4.096  -0.791   4.462  0.00  0.00    -0.083 Cl
ENDBRANCH  27  29
ENDBRANCH  24  27
ENDBRANCH   7  24
TORSDOF 8
