REMARK  Name = ZINC03097728
REMARK  4 active torsions:
REMARK  status: ('A' for Active; 'I' for Inactive)
REMARK    1  A    between atoms: C_4  and  N_7
REMARK    2  A    between atoms: C_12  and  N_13
REMARK    3  A    between atoms: C_12  and  N_54
REMARK    4  A    between atoms: N_21  and  C_22
REMARK                            x       y       z     vdW  Elec       q    Type
REMARK                         _______ _______ _______ _____ _____    ______ ____
ROOT
ATOM      1  N   UNL     1       6.083  -1.647   1.712  0.00  0.00    -0.282 N 
ATOM      2  C   UNL     1       5.708  -2.843   1.109  0.00  0.00    +0.044 A 
ATOM      3  C   UNL     1       5.390  -3.151  -0.209  0.00  0.00    +0.024 A 
ATOM      4  C   UNL     1       5.043  -4.442  -0.555  0.00  0.00    +0.002 A 
ATOM      5  C   UNL     1       5.008  -5.444   0.400  0.00  0.00    +0.001 A 
ATOM      6  C   UNL     1       5.321  -5.158   1.714  0.00  0.00    +0.012 A 
ATOM      7  C   UNL     1       5.671  -3.860   2.073  0.00  0.00    +0.027 A 
ATOM      8  C   UNL     1       6.052  -3.234   3.358  0.00  0.00    +0.135 C 
ATOM      9  N   UNL     1       6.151  -3.812   4.531  0.00  0.00    -0.242 NA
ATOM     10  C   UNL     1       6.304  -1.808   3.028  0.00  0.00    +0.268 C 
ATOM     11  O   UNL     1       6.646  -0.941   3.809  0.00  0.00    -0.268 OA
ENDROOT
BRANCH   9  12
ATOM     12  C   UNL     1       6.516  -3.084   5.619  0.00  0.00    +0.066 A 
ATOM     13  C   UNL     1       5.824  -3.230   6.829  0.00  0.00    +0.028 A 
ATOM     14  C   UNL     1       6.201  -2.488   7.927  0.00  0.00    +0.003 A 
ATOM     15  C   UNL     1       7.260  -1.601   7.839  0.00  0.00    +0.015 A 
ATOM     16  C   UNL     1       7.950  -1.450   6.647  0.00  0.00    +0.020 A 
ATOM     17  C   UNL     1       7.590  -2.188   5.539  0.00  0.00    +0.043 A 
ATOM     18 BR   UNL     1       9.394  -0.233   6.541  0.00  0.00    -0.050 Br
ENDBRANCH   9  12
BRANCH   1  19
ATOM     19  C   UNL     1       6.224  -0.373   1.002  0.00  0.00    +0.039 C 
BRANCH  19  25
ATOM     20  N   UNL     1       2.401   1.108  -0.015  0.00  0.00    -0.333 N 
ATOM     21  C   UNL     1       2.500   0.179   1.120  0.00  0.00    +0.086 C 
ATOM     22  C   UNL     1       3.813  -0.601   1.023  0.00  0.00    -0.057 C 
ATOM     23  C   UNL     1       4.841   1.270  -0.117  0.00  0.00    -0.057 C 
ATOM     24  C   UNL     1       3.528   2.050  -0.020  0.00  0.00    +0.086 C 
ATOM     25  N   UNL     1       4.939   0.357   1.041  0.00  0.00    +0.392 N 
ATOM     26  H   UNL     1       4.895   0.908   1.906  0.00  0.00    -0.079 HD
BRANCH  20  30
ATOM     27  C   UNL     1      -1.237   3.134   0.031  0.00  0.00    +0.000 A 
ATOM     28  C   UNL     1      -1.217   1.751   0.017  0.00  0.00    +0.002 A 
ATOM     29  C   UNL     1      -0.013   1.076   0.008  0.00  0.00    +0.023 A 
ATOM     30  C   UNL     1       1.180   1.788   0.000  0.00  0.00    +0.030 A 
ATOM     31  C   UNL     1       1.157   3.176   0.008  0.00  0.00    +0.023 A 
ATOM     32  C   UNL     1      -0.051   3.845   0.023  0.00  0.00    +0.002 A 
ENDBRANCH  20  30
ENDBRANCH  19  25
ENDBRANCH   1  19
TORSDOF 4
