REMARK  Name = ZINC38545632
REMARK  13 active torsions:
REMARK  status: ('A' for Active; 'I' for Inactive)
REMARK    1  A    between atoms: C_1  and  C_2
REMARK    2  A    between atoms: C_5  and  O_40
REMARK    3  A    between atoms: C_7  and  C_38
REMARK    4  A    between atoms: C_7  and  C_39
REMARK    5  A    between atoms: C_12  and  C_37
REMARK    6  A    between atoms: C_20  and  C_30
REMARK    7  A    between atoms: C_20  and  C_31
REMARK    8  A    between atoms: C_24  and  C_29
REMARK    9  A    between atoms: C_27  and  C_28
REMARK   10  A    between atoms: C_31  and  O_33
REMARK   11  A    between atoms: O_33  and  C_34
REMARK   12  A    between atoms: C_34  and  C_35
REMARK   13  A    between atoms: C_35  and  N_36
REMARK                            x       y       z     vdW  Elec       q    Type
REMARK                         _______ _______ _______ _____ _____    ______ ____
ROOT
ATOM      1  C   UNL     1      -0.067   1.527  -0.266  0.00  0.00    +0.012 C 
ATOM      2  C   UNL     1      -0.048   0.003  -0.227  0.00  0.00    -0.022 C 
ATOM      3  C   UNL     1      -1.519  -0.455  -0.185  0.00  0.00    +0.010 C 
ATOM      4  C   UNL     1      -2.172   0.084   1.086  0.00  0.00    +0.032 C 
ATOM      5  C   UNL     1      -1.488  -0.482   2.322  0.00  0.00    +0.120 C 
ATOM      6  C   UNL     1       0.022  -0.249   2.326  0.00  0.00    -0.006 C 
ATOM      7  C   UNL     1       0.659  -0.566   0.992  0.00  0.00    +0.004 C 
ATOM      8  C   UNL     1       2.146  -0.227   0.943  0.00  0.00    +0.005 C 
ATOM      9  C   UNL     1       2.758  -0.931  -0.284  0.00  0.00    +0.008 C 
ATOM     10  C   UNL     1       2.118  -0.392  -1.568  0.00  0.00    -0.016 C 
ATOM     11  C   UNL     1       0.605  -0.565  -1.491  0.00  0.00    +0.025 C 
ATOM     12  C   UNL     1       0.256  -2.041  -1.542  0.00  0.00    -0.022 C 
ATOM     13  C   UNL     1       0.781  -2.762  -2.548  0.00  0.00    +0.000 C 
ATOM     14  C   UNL     1       1.638  -1.959  -3.462  0.00  0.00    -0.041 C 
ATOM     15  C   UNL     1       1.440  -2.059  -4.767  0.00  0.00    -0.052 C 
ATOM     16  C   UNL     1       0.350  -2.979  -5.267  0.00  0.00    +0.050 C 
ATOM     17  C   UNL     1       0.885  -3.889  -6.371  0.00  0.00    +0.075 C 
ATOM     18  C   UNL     1       1.456  -3.043  -7.512  0.00  0.00    +0.093 C 
ATOM     19  C   UNL     1       2.546  -2.154  -6.967  0.00  0.00    +0.144 C 
ATOM     20  O   UNL     1       3.631  -2.125  -7.494  0.00  0.00    -0.296 OA
ATOM     21  C   UNL     1       2.270  -1.295  -5.759  0.00  0.00    +0.048 C 
ATOM     22  C   UNL     1       3.587  -0.856  -5.129  0.00  0.00    +0.019 C 
ATOM     23  C   UNL     1       3.304  -0.140  -3.802  0.00  0.00    +0.013 C 
ATOM     24  C   UNL     1       2.679  -1.102  -2.804  0.00  0.00    -0.001 C 
ATOM     25  C   UNL     1       3.797  -2.054  -2.365  0.00  0.00    +0.016 C 
ATOM     26  C   UNL     1       1.488  -0.065  -6.221  0.00  0.00    +0.024 C 
ATOM     27  C   UNL     1      -0.257  -4.756  -6.908  0.00  0.00    +0.023 C 
ATOM     28  C   UNL     1       2.508   1.090  -1.679  0.00  0.00    +0.012 C 
ATOM     29  C   UNL     1       0.608  -1.224   3.379  0.00  0.00    +0.014 C 
ATOM     30  C   UNL     1       0.332   1.166   2.813  0.00  0.00    +0.014 C 
ENDROOT
BRANCH  17  31
ATOM     31  C   UNL     1       1.965  -4.779  -5.812  0.00  0.00    +0.314 C 
ATOM     32  O   UNL     1       2.276  -4.694  -4.648  0.00  0.00    -0.250 OA
BRANCH  31  33
ATOM     33  O   UNL     1       2.582  -5.667  -6.608  0.00  0.00    -0.466 OA
BRANCH  33  34
ATOM     34  C   UNL     1       3.595  -6.478  -6.012  0.00  0.00    +0.213 C 
BRANCH  34  35
ATOM     35  C   UNL     1       4.180  -7.421  -7.066  0.00  0.00    -0.045 C 
BRANCH  35  36
ATOM     36  N   UNL     1       4.868  -6.634  -8.098  0.00  0.00    +0.380 N 
ATOM     37  H   UNL     1       4.212  -6.006  -8.536  0.00  0.00    -0.090 HD
ATOM     38  H   UNL     1       5.613  -6.101  -7.674  0.00  0.00    -0.090 HD
ATOM     39  H   UNL     1       5.254  -7.256  -8.794  0.00  0.00    -0.090 HD
ENDBRANCH  35  36
ENDBRANCH  34  35
ENDBRANCH  33  34
ENDBRANCH  31  33
ENDBRANCH  17  31
BRANCH   5  40
ATOM     40  O   UNL     1      -2.054   0.123   3.492  0.00  0.00    -0.391 OA
ATOM     41  H   UNL     1      -3.003  -0.030   3.594  0.00  0.00    +0.210 HD
ENDBRANCH   5  40
TORSDOF 6
