REMARK  Name = ZINC30514260
REMARK  9 active torsions:
REMARK  status: ('A' for Active; 'I' for Inactive)
REMARK    1  A    between atoms: C_1  and  C_2
REMARK    2  A    between atoms: C_5  and  C_27
REMARK    3  A    between atoms: C_6  and  N_8
REMARK    4  A    between atoms: C_9  and  C_11
REMARK    5  A    between atoms: C_11  and  C_13
REMARK    6  A    between atoms: C_11  and  N_14
REMARK    7  A    between atoms: N_14  and  C_15
REMARK    8  A    between atoms: C_15  and  C_16
REMARK    9  A    between atoms: C_16  and  N_21
REMARK                            x       y       z     vdW  Elec       q    Type
REMARK                         _______ _______ _______ _____ _____    ______ ____
ROOT
ATOM      1  N   UNL     1      -2.321   5.584   0.356  0.00  0.00    +0.388 N 
ATOM      2  H   UNL     1      -1.393   5.757   0.921  0.00  0.00    -0.085 HD
ATOM      3  H   UNL     1      -2.221   6.013  -0.652  0.00  0.00    -0.085 HD
ENDROOT
BRANCH   1   4
ATOM      4  C   UNL     1      -2.569   4.140   0.252  0.00  0.00    +0.013 C 
ATOM      5  C   UNL     1      -3.427   3.858  -0.983  0.00  0.00    -0.004 C 
BRANCH   4   7
ATOM      6  N   UNL     1      -1.237   2.069   0.019  0.00  0.00    -0.287 N 
ATOM      7  C   UNL     1      -1.255   3.412   0.128  0.00  0.00    +0.203 C 
ATOM      8  O   UNL     1      -0.215   4.035   0.127  0.00  0.00    -0.277 OA
ATOM      9  H   UNL     1      -2.182   1.510  -0.054  0.00  0.00    +0.155 HD
BRANCH   6  15
ATOM     10  C   UNL     1       3.498   1.900  -1.293  0.00  0.00    +0.044 C 
ATOM     11  C   UNL     1       2.294   1.279  -0.633  0.00  0.00    -0.049 A 
ATOM     12  C   UNL     1       2.394   0.028  -0.051  0.00  0.00    +0.004 A 
ATOM     13  C   UNL     1       1.292  -0.546   0.555  0.00  0.00    +0.005 A 
ATOM     14  C   UNL     1       0.087   0.129   0.582  0.00  0.00    -0.029 A 
ATOM     15  C   UNL     1      -0.016   1.385  -0.001  0.00  0.00    +0.036 A 
ATOM     16  C   UNL     1       1.093   1.959  -0.609  0.00  0.00    +0.027 A 
ATOM     17  C   UNL     1      -1.114  -0.497   1.242  0.00  0.00    +0.045 C 
ENDBRANCH   6  15
ENDBRANCH   4   7
ENDBRANCH   1   4
BRANCH   1  18
ATOM     18  C   UNL     1      -3.426   6.260   1.047  0.00  0.00    -0.059 C 
BRANCH  18  19
ATOM     19  C   UNL     1      -3.132   7.759   1.136  0.00  0.00    +0.007 C 
ATOM     20  C   UNL     1      -1.853   7.998   1.965  0.00  0.00    +0.020 C 
ATOM     21  C   UNL     1      -2.154   9.291   2.763  0.00  0.00    +0.002 C 
ATOM     22  C   UNL     1      -3.651   9.129   3.126  0.00  0.00    +0.002 C 
ATOM     23  C   UNL     1      -4.275   8.478   1.874  0.00  0.00    +0.020 C 
BRANCH  19  24
ATOM     24  N   UNL     1      -2.972   8.321  -0.212  0.00  0.00    -0.297 NA
ATOM     25  C   UNL     1      -4.236   8.279  -0.951  0.00  0.00    +0.095 C 
ATOM     26  C   UNL     1      -4.178   9.254  -2.133  0.00  0.00    +0.084 C 
ATOM     27  S   UNL     1      -2.835   8.730  -3.243  0.00  0.00    -0.158 S 
ATOM     28  C   UNL     1      -1.428   8.534  -2.106  0.00  0.00    +0.084 C 
ATOM     29  C   UNL     1      -1.877   7.662  -0.928  0.00  0.00    +0.095 C 
ENDBRANCH  19  24
ENDBRANCH  18  19
ENDBRANCH   1  18
TORSDOF 6
