REMARK  Name = ZINC64623113
REMARK  7 active torsions:
REMARK  status: ('A' for Active; 'I' for Inactive)
REMARK    1  A    between atoms: C_1  and  O_2
REMARK    2  A    between atoms: O_2  and  C_3
REMARK    3  A    between atoms: C_6  and  C_9
REMARK    4  A    between atoms: N_27  and  C_28
REMARK    5  A    between atoms: C_33  and  C_34
REMARK    6  A    between atoms: C_34  and  O_36
REMARK    7  A    between atoms: O_36  and  C_37
REMARK                            x       y       z     vdW  Elec       q    Type
REMARK                         _______ _______ _______ _____ _____    ______ ____
ROOT
ATOM      1  C   UNL     1       2.528  -2.539  -4.373  0.00  0.00    +0.134 C 
ATOM      2  C   UNL     1       3.983  -2.882  -4.040  0.00  0.00    +0.131 C 
ATOM      3  C   UNL     1       3.941  -4.041  -3.052  0.00  0.00    -0.035 C 
ATOM      4  C   UNL     1       4.621  -3.646  -1.982  0.00  0.00    +0.001 A 
ATOM      5  C   UNL     1       4.982  -4.346  -0.739  0.00  0.00    +0.030 A 
ATOM      6  C   UNL     1       5.690  -3.624   0.172  0.00  0.00    +0.042 A 
ATOM      7  C   UNL     1       6.069  -2.292  -0.030  0.00  0.00    +0.022 A 
ATOM      8  C   UNL     1       5.784  -1.574  -1.145  0.00  0.00    +0.027 A 
ATOM      9  C   UNL     1       5.047  -2.227  -2.175  0.00  0.00    +0.043 A 
ATOM     10  N   UNL     1       4.661  -1.779  -3.357  0.00  0.00    -0.375 N 
ATOM     11 CL   UNL     1       6.145  -4.395   1.659  0.00  0.00    -0.084 Cl
ATOM     12  C   UNL     1       3.171  -5.310  -3.324  0.00  0.00    +0.052 C 
ATOM     13  C   UNL     1       1.750  -4.885  -3.738  0.00  0.00    +0.114 C 
ATOM     14  N   UNL     1       1.833  -3.791  -4.712  0.00  0.00    -0.276 N 
ATOM     15  C   UNL     1       1.270  -3.933  -5.928  0.00  0.00    +0.307 C 
ATOM     16  O   UNL     1       1.421  -3.072  -6.773  0.00  0.00    -0.252 OA
ATOM     17  N   UNL     1       0.539  -5.031  -6.208  0.00  0.00    -0.269 N 
ATOM     18  H   UNL     1       0.351  -5.679  -5.511  0.00  0.00    +0.156 HD
ATOM     19  H   UNL     1       4.792  -0.886  -3.713  0.00  0.00    +0.160 HD
ENDROOT
BRANCH   1  23
ATOM     20  C   UNL     1       0.659  -0.720  -0.987  0.00  0.00    +0.120 A 
ATOM     21  C   UNL     1       0.771  -0.019  -2.179  0.00  0.00    +0.046 A 
ATOM     22  C   UNL     1       1.376  -0.609  -3.272  0.00  0.00    +0.009 A 
ATOM     23  C   UNL     1       1.869  -1.897  -3.179  0.00  0.00    -0.024 A 
ATOM     24  C   UNL     1       1.758  -2.599  -1.993  0.00  0.00    +0.009 A 
ATOM     25  C   UNL     1       1.159  -2.011  -0.895  0.00  0.00    +0.046 A 
BRANCH  20  27
ATOM     26  C   UNL     1      -0.427   1.190  -0.078  0.00  0.00    +0.277 C 
ATOM     27  O   UNL     1       0.065  -0.142   0.089  0.00  0.00    -0.495 OA
ENDBRANCH  20  27
ENDBRANCH   1  23
BRANCH  17  28
ATOM     28  C   UNL     1       0.055  -5.235  -7.497  0.00  0.00    +0.049 A 
ATOM     29  C   UNL     1       0.706  -4.668  -8.585  0.00  0.00    +0.024 A 
ATOM     30  C   UNL     1       0.224  -4.871  -9.862  0.00  0.00    +0.002 A 
ATOM     31  C   UNL     1      -0.910  -5.640 -10.070  0.00  0.00    +0.001 A 
ATOM     32  C   UNL     1      -1.570  -6.211  -9.003  0.00  0.00    +0.017 A 
ATOM     33  C   UNL     1      -1.090  -6.019  -7.704  0.00  0.00    +0.080 A 
BRANCH  33  34
ATOM     34  C   UNL     1      -1.787  -6.631  -6.559  0.00  0.00    +0.341 C 
ATOM     35  O   UNL     1      -1.432  -6.376  -5.425  0.00  0.00    -0.245 OA
BRANCH  34  36
ATOM     36  O   UNL     1      -2.817  -7.474  -6.769  0.00  0.00    -0.464 OA
ATOM     37  C   UNL     1      -3.446  -8.031  -5.613  0.00  0.00    +0.280 C 
ENDBRANCH  34  36
ENDBRANCH  33  34
ENDBRANCH  17  28
TORSDOF 5
