REMARK  Name = ZINC04937018
REMARK  10 active torsions:
REMARK  status: ('A' for Active; 'I' for Inactive)
REMARK    1  A    between atoms: C_1  and  C_2
REMARK    2  A    between atoms: C_2  and  O_3
REMARK    3  A    between atoms: O_3  and  C_4
REMARK    4  A    between atoms: C_11  and  C_28
REMARK    5  A    between atoms: N_13  and  C_14
REMARK    6  A    between atoms: C_14  and  C_15
REMARK    7  A    between atoms: C_15  and  N_16
REMARK    8  A    between atoms: N_19  and  C_20
REMARK    9  A    between atoms: C_21  and  C_27
REMARK   10  A    between atoms: C_25  and  C_26
REMARK                            x       y       z     vdW  Elec       q    Type
REMARK                         _______ _______ _______ _____ _____    ______ ____
ROOT
ATOM      1  C   UNL     1      -0.839 -11.242  -0.186  0.00  0.00    +0.121 A 
ATOM      2  C   UNL     1       0.214 -10.364  -0.461  0.00  0.00    +0.047 A 
ATOM      3  C   UNL     1       0.038  -9.016  -0.396  0.00  0.00    +0.030 A 
ATOM      4  C   UNL     1      -1.217  -8.489  -0.047  0.00  0.00    +0.048 A 
ATOM      5  C   UNL     1      -2.285  -9.379   0.233  0.00  0.00    +0.003 A 
ATOM      6  C   UNL     1      -2.073 -10.766   0.157  0.00  0.00    +0.055 A 
ATOM      7  C   UNL     1      -3.543  -8.856   0.582  0.00  0.00    +0.032 A 
ATOM      8  C   UNL     1      -3.684  -7.476   0.643  0.00  0.00    +0.090 A 
ATOM      9  C   UNL     1      -2.573  -6.651   0.345  0.00  0.00    +0.114 A 
ATOM     10  N   UNL     1      -2.716  -5.276   0.401  0.00  0.00    -0.328 N 
ATOM     11  H   UNL     1      -3.571  -4.886   0.639  0.00  0.00    +0.147 HD
ATOM     12  N   UNL     1      -1.346  -7.117   0.005  0.00  0.00    -0.342 N 
ATOM     13  H   UNL     1      -0.562  -6.487  -0.200  0.00  0.00    +0.167 HD
ENDROOT
BRANCH   8  14
ATOM     14  C   UNL     1      -4.942  -6.893   0.999  0.00  0.00    +0.103 C 
ATOM     15  N   UNL     1      -5.940  -6.430   1.282  0.00  0.00    -0.191 NA
ENDBRANCH   8  14
BRANCH   1  16
ATOM     16  O   UNL     1      -0.633 -12.583  -0.260  0.00  0.00    -0.492 OA
BRANCH  16  18
ATOM     17  C   UNL     1       0.718 -14.548  -0.655  0.00  0.00    +0.048 C 
ATOM     18  C   UNL     1       0.679 -13.019  -0.624  0.00  0.00    +0.225 C 
ENDBRANCH  16  18
ENDBRANCH   1  16
BRANCH  10  19
ATOM     19  C   UNL     1      -1.574  -4.409   0.101  0.00  0.00    +0.121 C 
BRANCH  19  20
ATOM     20  C   UNL     1      -1.997  -2.944   0.235  0.00  0.00    +0.124 C 
BRANCH  20  21
ATOM     21  N   UNL     1      -0.855  -2.077  -0.065  0.00  0.00    -0.298 N 
ATOM     22  C   UNL     1      -0.994  -0.737  -0.011  0.00  0.00    +0.304 C 
ATOM     23  O   UNL     1      -2.066  -0.249   0.287  0.00  0.00    -0.253 OA
ATOM     24  N   UNL     1       0.057   0.061  -0.287  0.00  0.00    -0.269 N 
ATOM     25  H   UNL     1       0.001  -2.467  -0.303  0.00  0.00    +0.150 HD
ATOM     26  H   UNL     1       0.895  -0.326  -0.586  0.00  0.00    +0.156 HD
BRANCH  24  27
ATOM     27  C   UNL     1      -0.061   1.448  -0.142  0.00  0.00    +0.041 A 
ATOM     28  C   UNL     1      -1.010   2.146  -0.877  0.00  0.00    -0.029 A 
ATOM     29  C   UNL     1      -1.127   3.514  -0.728  0.00  0.00    +0.005 A 
ATOM     30  C   UNL     1      -0.294   4.190   0.145  0.00  0.00    +0.001 A 
ATOM     31  C   UNL     1       0.656   3.498   0.874  0.00  0.00    +0.005 A 
ATOM     32  C   UNL     1       0.775   2.129   0.733  0.00  0.00    -0.029 A 
ATOM     33  C   UNL     1       1.810   1.376   1.529  0.00  0.00    +0.045 C 
ATOM     34  C   UNL     1      -1.914   1.411  -1.832  0.00  0.00    +0.045 C 
ENDBRANCH  24  27
ENDBRANCH  20  21
ENDBRANCH  19  20
ENDBRANCH  10  19
TORSDOF 7
