REMARK  Name = ZINC31164183
REMARK  10 active torsions:
REMARK  status: ('A' for Active; 'I' for Inactive)
REMARK    1  A    between atoms: C_1  and  C_2
REMARK    2  A    between atoms: C_2  and  C_4
REMARK    3  A    between atoms: C_2  and  N_15
REMARK    4  A    between atoms: N_9  and  C_10
REMARK    5  A    between atoms: C_10  and  C_11
REMARK    6  A    between atoms: N_15  and  C_16
REMARK    7  A    between atoms: N_15  and  C_17
REMARK    8  A    between atoms: C_17  and  C_18
REMARK    9  A    between atoms: N_20  and  C_21
REMARK   10  A    between atoms: C_25  and  C_27
REMARK                            x       y       z     vdW  Elec       q    Type
REMARK                         _______ _______ _______ _____ _____    ______ ____
ROOT
ATOM      1  N   UNL     1      -0.749   1.676   1.225  0.00  0.00    +0.391 N 
ATOM      2  C   UNL     1      -0.169   1.062   0.022  0.00  0.00    -0.094 C 
ATOM      3  H   UNL     1      -1.772   1.288   1.342  0.00  0.00    -0.080 HD
ENDROOT
BRANCH   1   5
ATOM      4  C   UNL     1       0.569   3.740   1.177  0.00  0.00    -0.004 C 
ATOM      5  C   UNL     1      -0.834   3.136   1.082  0.00  0.00    +0.017 C 
BRANCH   5   6
ATOM      6  C   UNL     1      -1.698   3.698   2.181  0.00  0.00    +0.207 C 
ATOM      7  O   UNL     1      -2.157   2.962   3.028  0.00  0.00    -0.277 OA
ATOM      8  N   UNL     1      -1.962   5.019   2.221  0.00  0.00    -0.242 N 
ATOM      9  C   UNL     1      -2.735   5.522   3.204  0.00  0.00    +0.306 C 
ATOM     10  O   UNL     1      -3.195   4.785   4.053  0.00  0.00    -0.252 OA
ATOM     11  N   UNL     1      -2.998   6.844   3.244  0.00  0.00    -0.291 N 
ATOM     12  H   UNL     1      -1.546   5.687   1.452  0.00  0.00    +0.159 HD
ATOM     13  H   UNL     1      -2.583   7.511   2.475  0.00  0.00    +0.151 HD
BRANCH  11  14
ATOM     14  C   UNL     1      -3.839   7.391   4.312  0.00  0.00    +0.219 C 
BRANCH  14  15
ATOM     15  C   UNL     1      -3.979   8.903   4.127  0.00  0.00    +0.405 C 
ATOM     16  F   UNL     1      -4.570   9.168   2.887  0.00  0.00    -0.169 F 
ATOM     17  F   UNL     1      -4.782   9.425   5.147  0.00  0.00    -0.169 F 
ATOM     18  F   UNL     1      -2.714   9.498   4.178  0.00  0.00    -0.169 F 
ENDBRANCH  14  15
ENDBRANCH  11  14
ENDBRANCH   5   6
ENDBRANCH   1   5
BRANCH   1  19
ATOM     19  C   UNL     1       0.014   1.308   2.424  0.00  0.00    +0.020 C 
BRANCH  19  20
ATOM     20  C   UNL     1      -0.125  -0.172   2.674  0.00  0.00    +0.201 C 
ATOM     21  O   UNL     1      -0.795  -0.853   1.926  0.00  0.00    -0.278 OA
ATOM     22  N   UNL     1       0.494  -0.739   3.728  0.00  0.00    -0.287 N 
ATOM     23  H   UNL     1       1.032  -0.110   4.454  0.00  0.00    +0.155 HD
BRANCH  22  24
ATOM     24  C   UNL     1       0.452  -2.127   3.901  0.00  0.00    +0.034 A 
ATOM     25  C   UNL     1      -0.687  -2.838   3.548  0.00  0.00    +0.025 A 
ATOM     26  C   UNL     1      -0.724  -4.209   3.715  0.00  0.00    +0.022 A 
ATOM     27  C   UNL     1       0.370  -4.872   4.243  0.00  0.00    +0.053 A 
ATOM     28  C   UNL     1       1.505  -4.165   4.600  0.00  0.00    +0.075 A 
ATOM     29  C   UNL     1       1.548  -2.795   4.430  0.00  0.00    +0.037 A 
ATOM     30 CL   UNL     1       0.319  -6.594   4.457  0.00  0.00    -0.083 Cl
BRANCH  28  31
ATOM     31  C   UNL     1       2.695  -4.891   5.173  0.00  0.00    +0.419 C 
ATOM     32  F   UNL     1       3.711  -3.972   5.454  0.00  0.00    -0.166 F 
ATOM     33  F   UNL     1       2.318  -5.544   6.352  0.00  0.00    -0.166 F 
ATOM     34  F   UNL     1       3.158  -5.831   4.247  0.00  0.00    -0.166 F 
ENDBRANCH  28  31
ENDBRANCH  22  24
ENDBRANCH  19  20
ENDBRANCH   1  19
TORSDOF 8
