REMARK  Name = ZINC49969226
REMARK  8 active torsions:
REMARK  status: ('A' for Active; 'I' for Inactive)
REMARK    1  A    between atoms: C_1  and  C_2
REMARK    2  A    between atoms: C_2  and  C_3
REMARK    3  A    between atoms: C_2  and  C_4
REMARK    4  A    between atoms: C_4  and  N_5
REMARK    5  A    between atoms: N_8  and  C_11
REMARK    6  A    between atoms: C_11  and  C_12
REMARK    7  A    between atoms: N_14  and  C_15
REMARK    8  A    between atoms: C_16  and  C_24
REMARK                            x       y       z     vdW  Elec       q    Type
REMARK                         _______ _______ _______ _____ _____    ______ ____
ROOT
ATOM      1  C   UNL     1      -2.124  -6.616   1.156  0.00  0.00    +0.232 C 
ATOM      2  O   UNL     1      -3.186  -6.031   1.189  0.00  0.00    -0.274 OA
ATOM      3  N   UNL     1      -2.095  -7.963   1.184  0.00  0.00    -0.278 N 
ATOM      4  H   UNL     1      -1.246  -8.431   1.158  0.00  0.00    +0.155 HD
ENDROOT
BRANCH   3   5
ATOM      5  C   UNL     1      -3.280  -8.681   1.251  0.00  0.00    +0.084 A 
ATOM      6  C   UNL     1      -3.442 -10.056   1.294  0.00  0.00    +0.068 A 
ATOM      7  C   UNL     1      -4.801 -10.563   1.363  0.00  0.00    -0.023 A 
ATOM      8  C   UNL     1      -5.749  -9.602   1.375  0.00  0.00    -0.004 A 
ATOM      9  S   UNL     1      -4.848  -8.082   1.306  0.00  0.00    -0.077 S 
ATOM     10  C   UNL     1      -7.232  -9.801   1.438  0.00  0.00    +0.043 C 
ATOM     11  C   UNL     1      -7.536 -11.270   1.107  0.00  0.00    +0.005 C 
ATOM     12  C   UNL     1      -6.606 -12.166   1.931  0.00  0.00    +0.005 C 
ATOM     13  C   UNL     1      -5.170 -12.039   1.418  0.00  0.00    +0.037 C 
BRANCH   6  14
ATOM     14  C   UNL     1      -2.289 -10.962   1.271  0.00  0.00    +0.244 C 
ATOM     15  O   UNL     1      -1.768 -11.311   2.314  0.00  0.00    -0.270 OA
ATOM     16  N   UNL     1      -1.806 -11.409   0.095  0.00  0.00    -0.325 N 
ATOM     17  H   UNL     1      -2.222 -11.131  -0.737  0.00  0.00    +0.145 HD
ATOM     18  H   UNL     1      -1.044 -12.008   0.079  0.00  0.00    +0.145 HD
ENDBRANCH   6  14
ENDBRANCH   3   5
BRANCH   1  19
ATOM     19  C   UNL     1      -0.836  -5.837   1.083  0.00  0.00    +0.180 C 
BRANCH  19  23
ATOM     20  N   UNL     1      -0.947  -1.748   0.016  0.00  0.00    +0.381 N 
ATOM     21  C   UNL     1      -0.271  -2.117   1.267  0.00  0.00    -0.063 C 
ATOM     22  C   UNL     1       0.090  -3.604   1.232  0.00  0.00    +0.066 C 
ATOM     23  N   UNL     1      -1.135  -4.398   1.064  0.00  0.00    -0.298 NA
ATOM     24  C   UNL     1      -1.836  -4.022  -0.172  0.00  0.00    +0.066 C 
ATOM     25  C   UNL     1      -2.180  -2.532  -0.125  0.00  0.00    -0.063 C 
ATOM     26  H   UNL     1      -0.336  -1.938  -0.764  0.00  0.00    -0.082 HD
BRANCH  20  27
ATOM     27  C   UNL     1      -1.277  -0.317   0.043  0.00  0.00    -0.076 C 
BRANCH  27  29
ATOM     28  C   UNL     1      -2.303   1.558  -1.251  0.00  0.00    +0.005 C 
ATOM     29  C   UNL     1      -1.839   0.102  -1.317  0.00  0.00    -0.034 C 
ATOM     30  C   UNL     1      -0.752  -0.038  -2.384  0.00  0.00    +0.005 C 
ENDBRANCH  27  29
ENDBRANCH  20  27
ENDBRANCH  19  23
ENDBRANCH   1  19
TORSDOF 6
