REMARK  Name = ZINC06760158
REMARK  10 active torsions:
REMARK  status: ('A' for Active; 'I' for Inactive)
REMARK    1  A    between atoms: C_1  and  C_2
REMARK    2  A    between atoms: C_2  and  N_3
REMARK    3  A    between atoms: C_11  and  C_13
REMARK    4  A    between atoms: C_11  and  C_14
REMARK    5  A    between atoms: N_17  and  C_20
REMARK    6  A    between atoms: C_20  and  C_21
REMARK    7  A    between atoms: N_23  and  C_24
REMARK    8  A    between atoms: C_24  and  C_25
REMARK    9  A    between atoms: C_25  and  C_26
REMARK   10  A    between atoms: C_26  and  N_53
REMARK                            x       y       z     vdW  Elec       q    Type
REMARK                         _______ _______ _______ _____ _____    ______ ____
ROOT
ATOM      1  N   UNL     1      -0.020   1.094   2.454  0.00  0.00    -0.287 N 
ATOM      2  C   UNL     1       0.981   1.849   3.002  0.00  0.00    +0.097 A 
ATOM      3  C   UNL     1       1.678   1.420   4.132  0.00  0.00    +0.074 A 
ATOM      4  C   UNL     1       2.721   2.322   4.613  0.00  0.00    -0.018 A 
ATOM      5  C   UNL     1       2.888   3.462   3.909  0.00  0.00    +0.021 A 
ATOM      6  S   UNL     1       1.688   3.373   2.613  0.00  0.00    -0.073 S 
ATOM      7  C   UNL     1       3.884   4.541   4.200  0.00  0.00    +0.203 C 
ATOM      8  O   UNL     1       4.405   4.316   5.519  0.00  0.00    -0.368 OA
ATOM      9  C   UNL     1       4.821   2.966   5.748  0.00  0.00    +0.068 C 
ATOM     10  C   UNL     1       3.600   2.044   5.827  0.00  0.00    +0.071 C 
ATOM     11  C   UNL     1       5.599   2.892   7.063  0.00  0.00    +0.041 C 
ATOM     12  C   UNL     1       5.723   2.515   4.598  0.00  0.00    +0.041 C 
ATOM     13  C   UNL     1       1.262   0.111   4.683  0.00  0.00    +0.266 A 
ATOM     14  O   UNL     1       1.813  -0.346   5.668  0.00  0.00    -0.267 OA
ATOM     15  N   UNL     1       0.268  -0.568   4.083  0.00  0.00    -0.251 N 
ATOM     16  C   UNL     1      -0.363  -0.089   2.999  0.00  0.00    +0.333 A 
ATOM     17  O   UNL     1      -1.260  -0.739   2.496  0.00  0.00    -0.246 OA
ENDROOT
BRANCH   1  19
ATOM     18  C   UNL     1      -0.013   1.086   0.008  0.00  0.00    +0.027 C 
ATOM     19  C   UNL     1      -0.729   1.579   1.267  0.00  0.00    +0.124 C 
ENDBRANCH   1  19
BRANCH  15  20
ATOM     20  C   UNL     1      -0.141  -1.863   4.631  0.00  0.00    +0.225 C 
BRANCH  20  21
ATOM     21  C   UNL     1      -1.230  -1.656   5.653  0.00  0.00    +0.233 C 
ATOM     22  O   UNL     1      -1.625  -0.536   5.898  0.00  0.00    -0.274 OA
ATOM     23  N   UNL     1      -1.764  -2.715   6.293  0.00  0.00    -0.314 N 
ATOM     24  H   UNL     1      -1.448  -3.610   6.096  0.00  0.00    +0.149 HD
BRANCH  23  25
ATOM     25  C   UNL     1      -2.822  -2.513   7.285  0.00  0.00    +0.102 C 
BRANCH  25  26
ATOM     26  C   UNL     1      -3.249  -3.866   7.858  0.00  0.00    -0.001 C 
BRANCH  26  27
ATOM     27  C   UNL     1      -4.355  -3.655   8.895  0.00  0.00    -0.085 C 
BRANCH  27  30
ATOM     28  H   UNL     1      -3.975  -5.448   9.832  0.00  0.00    -0.090 HD
ATOM     29  H   UNL     1      -5.495  -4.842  10.132  0.00  0.00    -0.090 HD
ATOM     30  N   UNL     1      -4.774  -4.965   9.423  0.00  0.00    +0.378 N 
ATOM     31  H   UNL     1      -5.152  -5.533   8.656  0.00  0.00    -0.090 HD
ENDBRANCH  27  30
ENDBRANCH  26  27
ENDBRANCH  25  26
ENDBRANCH  23  25
ENDBRANCH  20  21
ENDBRANCH  15  20
TORSDOF 7
