REMARK  Name = ZINC57945342
REMARK  14 active torsions:
REMARK  status: ('A' for Active; 'I' for Inactive)
REMARK    1  A    between atoms: C_1  and  C_2
REMARK    2  A    between atoms: C_2  and  C_3
REMARK    3  A    between atoms: C_6  and  O_9
REMARK    4  A    between atoms: O_9  and  C_10
REMARK    5  A    between atoms: C_10  and  C_11
REMARK    6  A    between atoms: C_11  and  C_13
REMARK    7  A    between atoms: C_11  and  O_29
REMARK    8  A    between atoms: C_13  and  N_14
REMARK    9  A    between atoms: N_14  and  C_15
REMARK   10  A    between atoms: N_14  and  C_16
REMARK   11  A    between atoms: C_16  and  C_18
REMARK   12  A    between atoms: C_16  and  C_19
REMARK   13  A    between atoms: C_22  and  S_25
REMARK   14  A    between atoms: S_25  and  N_28
REMARK                            x       y       z     vdW  Elec       q    Type
REMARK                         _______ _______ _______ _____ _____    ______ ____
ROOT
ATOM      1  N   UNL     1       6.585  -3.324  -7.043  0.00  0.00    +0.384 N 
ATOM      2  C   UNL     1       5.931  -4.590  -7.397  0.00  0.00    -0.095 C 
ATOM      3  H   UNL     1       6.392  -2.635  -7.753  0.00  0.00    -0.081 HD
ENDROOT
BRANCH   1   4
ATOM      4  C   UNL     1       8.036  -3.533  -6.946  0.00  0.00    -0.041 C 
ATOM      5  C   UNL     1       8.572  -4.024  -8.292  0.00  0.00    -0.008 C 
BRANCH   4   6
ATOM      6  C   UNL     1       8.708  -2.234  -6.582  0.00  0.00    -0.061 A 
ATOM      7  C   UNL     1       8.270  -1.049  -7.143  0.00  0.00    +0.004 A 
ATOM      8  C   UNL     1       8.886   0.143  -6.809  0.00  0.00    +0.029 A 
ATOM      9  C   UNL     1       9.939   0.149  -5.914  0.00  0.00    +0.105 A 
ATOM     10  C   UNL     1      10.376  -1.036  -5.352  0.00  0.00    +0.029 A 
ATOM     11  C   UNL     1       9.758  -2.227  -5.683  0.00  0.00    +0.004 A 
BRANCH   9  12
ATOM     12  S   UNL     1      10.725   1.668  -5.489  0.00  0.00    +0.056 S 
ATOM     13  O   UNL     1      12.036   1.338  -5.050  0.00  0.00    -0.153 OA
ATOM     14  O   UNL     1      10.486   2.564  -6.566  0.00  0.00    -0.153 OA
BRANCH  12  15
ATOM     15  N   UNL     1       9.926   2.282  -4.175  0.00  0.00    -0.204 NA
ATOM     16  H   UNL     1       9.174   1.801  -3.796  0.00  0.00    +0.144 HD
ATOM     17  H   UNL     1      10.210   3.124  -3.785  0.00  0.00    +0.144 HD
ENDBRANCH  12  15
ENDBRANCH   9  12
ENDBRANCH   4   6
ENDBRANCH   1   4
BRANCH   1  18
ATOM     18  C   UNL     1       6.071  -2.853  -5.750  0.00  0.00    -0.043 C 
BRANCH  18  19
ATOM     19  C   UNL     1       4.585  -2.516  -5.884  0.00  0.00    +0.135 C 
BRANCH  19  20
ATOM     20  O   UNL     1       4.415  -1.492  -6.866  0.00  0.00    -0.390 OA
ATOM     21  H   UNL     1       4.877  -0.668  -6.659  0.00  0.00    +0.210 HD
ENDBRANCH  19  20
BRANCH  19  22
ATOM     22  C   UNL     1       4.050  -2.025  -4.538  0.00  0.00    +0.258 C 
BRANCH  22  23
ATOM     23  O   UNL     1       2.638  -1.822  -4.632  0.00  0.00    -0.489 OA
BRANCH  23  27
ATOM     24  C   UNL     1       0.707  -0.490  -1.238  0.00  0.00    -0.047 A 
ATOM     25  C   UNL     1      -0.012  -0.718  -2.397  0.00  0.00    +0.007 A 
ATOM     26  C   UNL     1       0.632  -1.164  -3.534  0.00  0.00    +0.046 A 
ATOM     27  C   UNL     1       2.002  -1.383  -3.514  0.00  0.00    +0.121 A 
ATOM     28  C   UNL     1       2.722  -1.153  -2.350  0.00  0.00    +0.046 A 
ATOM     29  C   UNL     1       2.074  -0.702  -1.216  0.00  0.00    +0.007 A 
BRANCH  24  31
ATOM     30  C   UNL     1      -0.019   1.526   0.010  0.00  0.00    +0.009 C 
ATOM     31  C   UNL     1       0.002  -0.004   0.002  0.00  0.00    +0.032 C 
ENDBRANCH  24  31
ENDBRANCH  23  27
ENDBRANCH  22  23
ENDBRANCH  19  22
ENDBRANCH  18  19
ENDBRANCH   1  18
TORSDOF 11
