REMARK  Name = ZINC02684921
REMARK  10 active torsions:
REMARK  status: ('A' for Active; 'I' for Inactive)
REMARK    1  A    between atoms: C_1  and  C_2
REMARK    2  A    between atoms: C_5  and  N_21
REMARK    3  A    between atoms: C_6  and  C_8
REMARK    4  A    between atoms: C_8  and  C_10
REMARK    5  A    between atoms: C_8  and  N_52
REMARK    6  A    between atoms: C_16  and  C_17
REMARK    7  A    between atoms: C_16  and  N_52
REMARK    8  A    between atoms: C_17  and  O_19
REMARK    9  A    between atoms: O_19  and  C_20
REMARK   10  A    between atoms: C_22  and  C_24
REMARK                            x       y       z     vdW  Elec       q    Type
REMARK                         _______ _______ _______ _____ _____    ______ ____
ROOT
ATOM      1  C   UNL     1      -6.352   6.062  -0.310  0.00  0.00    +0.044 C 
ATOM      2  C   UNL     1      -5.015   5.372  -0.221  0.00  0.00    -0.050 A 
ATOM      3  C   UNL     1      -4.955   3.993  -0.130  0.00  0.00    +0.005 A 
ATOM      4  C   UNL     1      -3.731   3.357  -0.053  0.00  0.00    +0.024 A 
ATOM      5  C   UNL     1      -2.561   4.105  -0.056  0.00  0.00    +0.036 A 
ATOM      6  C   UNL     1      -2.624   5.489  -0.148  0.00  0.00    -0.036 A 
ATOM      7  C   UNL     1      -3.851   6.118  -0.231  0.00  0.00    +0.007 A 
ENDROOT
BRANCH   5   8
ATOM      8  N   UNL     1      -1.320   3.464   0.027  0.00  0.00    -0.281 N 
ATOM      9  C   UNL     1      -1.228   2.246   0.597  0.00  0.00    +0.248 C 
ATOM     10  O   UNL     1      -2.201   1.748   1.127  0.00  0.00    -0.270 OA
ATOM     11  H   UNL     1      -0.526   3.897  -0.325  0.00  0.00    +0.155 HD
BRANCH   9  12
ATOM     12  C   UNL     1       0.058   1.517   0.576  0.00  0.00    +0.038 A 
ATOM     13  C   UNL     1       0.157   0.255   1.165  0.00  0.00    +0.013 A 
ATOM     14  C   UNL     1       1.358  -0.424   1.138  0.00  0.00    +0.002 A 
ATOM     15  C   UNL     1       2.463   0.143   0.529  0.00  0.00    +0.020 A 
ATOM     16  C   UNL     1       2.372   1.394  -0.057  0.00  0.00    +0.042 A 
ATOM     17  C   UNL     1       1.176   2.084  -0.037  0.00  0.00    +0.033 A 
ATOM     18 CL   UNL     1       3.765   2.098  -0.819  0.00  0.00    -0.084 Cl
ENDBRANCH   9  12
ENDBRANCH   5   8
BRANCH   6  19
ATOM     19  C   UNL     1      -1.357   6.303  -0.159  0.00  0.00    -0.007 C 
BRANCH  19  20
ATOM     20  C   UNL     1      -0.847   6.458   1.251  0.00  0.00    -0.057 A 
ATOM     21  C   UNL     1      -1.404   7.409   2.086  0.00  0.00    +0.002 A 
ATOM     22  C   UNL     1      -0.940   7.549   3.381  0.00  0.00    +0.000 A 
ATOM     23  C   UNL     1       0.087   6.744   3.837  0.00  0.00    +0.000 A 
ATOM     24  C   UNL     1       0.647   5.796   3.000  0.00  0.00    +0.000 A 
ATOM     25  C   UNL     1       0.180   5.654   1.707  0.00  0.00    +0.002 A 
ENDBRANCH  19  20
BRANCH  19  26
ATOM     26  N   UNL     1      -1.641   7.634  -0.729  0.00  0.00    +0.393 N 
ATOM     27  H   UNL     1      -1.996   8.250   0.011  0.00  0.00    -0.084 HD
ATOM     28  H   UNL     1      -2.348   7.542  -1.468  0.00  0.00    -0.084 HD
BRANCH  26  29
ATOM     29  C   UNL     1      -0.413   8.219  -1.301  0.00  0.00    +0.041 C 
BRANCH  29  30
ATOM     30  C   UNL     1      -0.733   9.575  -1.875  0.00  0.00    +0.290 C 
ATOM     31  O   UNL     1      -1.860  10.006  -1.814  0.00  0.00    -0.253 OA
BRANCH  30  32
ATOM     32  O   UNL     1       0.234  10.303  -2.454  0.00  0.00    -0.469 OA
ATOM     33  C   UNL     1      -0.146  11.600  -2.986  0.00  0.00    +0.280 C 
ENDBRANCH  30  32
ENDBRANCH  29  30
ENDBRANCH  26  29
ENDBRANCH  19  26
ENDBRANCH   6  19
TORSDOF 8
