REMARK  Name = ZINC54763838
REMARK  12 active torsions:
REMARK  status: ('A' for Active; 'I' for Inactive)
REMARK    1  A    between atoms: C_1  and  C_2
REMARK    2  A    between atoms: C_2  and  C_3
REMARK    3  A    between atoms: N_5  and  C_6
REMARK    4  A    between atoms: C_9  and  C_12
REMARK    5  A    between atoms: C_12  and  C_13
REMARK    6  A    between atoms: C_12  and  N_14
REMARK    7  A    between atoms: N_17  and  C_18
REMARK    8  A    between atoms: C_18  and  C_19
REMARK    9  A    between atoms: C_19  and  N_20
REMARK   10  A    between atoms: N_20  and  C_21
REMARK   11  A    between atoms: N_20  and  C_22
REMARK   12  A    between atoms: C_22  and  C_23
REMARK                            x       y       z     vdW  Elec       q    Type
REMARK                         _______ _______ _______ _____ _____    ______ ____
ROOT
ATOM      1  N   UNL     1       4.236  -4.615   5.988  0.00  0.00    -0.293 N 
ATOM      2  C   UNL     1       5.276  -4.856   6.811  0.00  0.00    +0.300 C 
ATOM      3  O   UNL     1       5.462  -4.146   7.780  0.00  0.00    -0.253 OA
ATOM      4  N   UNL     1       6.110  -5.885   6.559  0.00  0.00    -0.301 N 
ATOM      5  H   UNL     1       4.088  -5.182   5.215  0.00  0.00    +0.151 HD
ATOM      6  H   UNL     1       5.961  -6.452   5.786  0.00  0.00    +0.150 HD
ENDROOT
BRANCH   1   7
ATOM      7  C   UNL     1       3.330  -3.497   6.262  0.00  0.00    +0.102 C 
ATOM      8  C   UNL     1       2.253  -3.944   7.253  0.00  0.00    +0.033 C 
BRANCH   7  12
ATOM      9  C   UNL     1       1.480  -2.240   2.620  0.00  0.00    +0.033 A 
ATOM     10  C   UNL     1       1.895  -1.297   3.551  0.00  0.00    +0.023 A 
ATOM     11  C   UNL     1       2.493  -1.706   4.727  0.00  0.00    +0.007 A 
ATOM     12  C   UNL     1       2.677  -3.054   4.978  0.00  0.00    -0.027 A 
ATOM     13  C   UNL     1       2.265  -3.995   4.052  0.00  0.00    +0.007 A 
ATOM     14  C   UNL     1       1.661  -3.592   2.877  0.00  0.00    +0.023 A 
BRANCH   9  17
ATOM     15  C   UNL     1      -0.114  -2.566   0.884  0.00  0.00    +0.217 C 
ATOM     16  O   UNL     1      -0.421  -3.628   1.381  0.00  0.00    -0.275 OA
ATOM     17  N   UNL     1       0.874  -1.828   1.428  0.00  0.00    -0.286 N 
ATOM     18  H   UNL     1       1.165  -1.011   0.993  0.00  0.00    +0.155 HD
BRANCH  15  20
ATOM     19  C   UNL     1      -1.903  -3.088  -0.752  0.00  0.00    +0.013 C 
ATOM     20  C   UNL     1      -0.837  -2.070  -0.342  0.00  0.00    +0.093 C 
ENDBRANCH  15  20
ENDBRANCH   9  17
ENDBRANCH   7  12
ENDBRANCH   1   7
BRANCH   4  21
ATOM     21  C   UNL     1       7.241  -6.147   7.453  0.00  0.00    +0.087 C 
BRANCH  21  22
ATOM     22  C   UNL     1       8.022  -7.360   6.945  0.00  0.00    -0.060 C 
BRANCH  22  23
ATOM     23  N   UNL     1       9.156  -7.623   7.842  0.00  0.00    +0.382 N 
ATOM     24  C   UNL     1       8.653  -8.011   9.166  0.00  0.00    -0.096 C 
ATOM     25  H   UNL     1       9.718  -6.789   7.926  0.00  0.00    -0.082 HD
BRANCH  23  26
ATOM     26  C   UNL     1       9.974  -8.711   7.290  0.00  0.00    -0.043 C 
BRANCH  26  27
ATOM     27  C   UNL     1      11.202  -8.898   8.144  0.00  0.00    -0.064 A 
ATOM     28  C   UNL     1      12.355  -8.191   7.860  0.00  0.00    +0.002 A 
ATOM     29  C   UNL     1      13.482  -8.363   8.643  0.00  0.00    +0.000 A 
ATOM     30  C   UNL     1      13.454  -9.241   9.710  0.00  0.00    +0.000 A 
ATOM     31  C   UNL     1      12.301  -9.948   9.994  0.00  0.00    +0.000 A 
ATOM     32  C   UNL     1      11.173  -9.773   9.214  0.00  0.00    +0.002 A 
ENDBRANCH  26  27
ENDBRANCH  23  26
ENDBRANCH  22  23
ENDBRANCH  21  22
ENDBRANCH   4  21
TORSDOF 9
