REMARK  Name = ZINC63362165
REMARK  11 active torsions:
REMARK  status: ('A' for Active; 'I' for Inactive)
REMARK    1  A    between atoms: C_1  and  C_2
REMARK    2  A    between atoms: C_2  and  C_4
REMARK    3  A    between atoms: C_2  and  N_10
REMARK    4  A    between atoms: C_4  and  C_5
REMARK    5  A    between atoms: C_5  and  C_6
REMARK    6  A    between atoms: C_6  and  C_7
REMARK    7  A    between atoms: C_7  and  C_8
REMARK    8  A    between atoms: C_7  and  C_9
REMARK    9  A    between atoms: C_11  and  C_13
REMARK   10  A    between atoms: C_17  and  N_19
REMARK   11  A    between atoms: C_22  and  C_38
REMARK                            x       y       z     vdW  Elec       q    Type
REMARK                         _______ _______ _______ _____ _____    ______ ____
ROOT
ATOM      1  N   UNL     1      -6.150  -1.923  -3.513  0.00  0.00    -0.192 N 
ATOM      2  C   UNL     1      -5.686  -1.538  -4.720  0.00  0.00    +0.253 C 
ATOM      3  O   UNL     1      -4.628  -0.994  -4.957  0.00  0.00    -0.272 OA
ATOM      4  C   UNL     1      -6.758  -1.924  -5.715  0.00  0.00    +0.137 C 
ATOM      5  C   UNL     1      -7.301  -0.673  -6.416  0.00  0.00    +0.139 C 
ATOM      6  C   UNL     1      -8.680  -1.043  -6.951  0.00  0.00    -0.034 C 
ATOM      7  C   UNL     1      -8.643  -0.821  -8.262  0.00  0.00    -0.001 A 
ATOM      8  C   UNL     1      -9.680  -0.934  -9.300  0.00  0.00    +0.010 A 
ATOM      9  C   UNL     1      -9.292  -0.634 -10.568  0.00  0.00    +0.001 A 
ATOM     10  C   UNL     1      -7.993  -0.237 -10.902  0.00  0.00    +0.002 A 
ATOM     11  C   UNL     1      -6.979  -0.102 -10.010  0.00  0.00    +0.026 A 
ATOM     12  C   UNL     1      -7.266  -0.386  -8.643  0.00  0.00    +0.043 A 
ATOM     13  N   UNL     1      -6.492  -0.322  -7.585  0.00  0.00    -0.375 N 
ATOM     14  C   UNL     1      -9.779  -1.610  -6.086  0.00  0.00    +0.052 C 
ATOM     15  C   UNL     1      -9.185  -2.812  -5.325  0.00  0.00    +0.115 C 
ATOM     16  N   UNL     1      -7.846  -2.442  -4.856  0.00  0.00    -0.268 N 
ATOM     17  C   UNL     1      -7.371  -2.468  -3.604  0.00  0.00    +0.316 C 
ATOM     18  O   UNL     1      -7.978  -2.930  -2.658  0.00  0.00    -0.252 OA
ATOM     19  C   UNL     1      -6.262  -2.976  -6.709  0.00  0.00    +0.044 C 
ATOM     20  H   UNL     1      -5.551  -0.087  -7.573  0.00  0.00    +0.160 HD
ENDROOT
BRANCH   1  25
ATOM     21  C   UNL     1      -3.430  -1.177  -1.136  0.00  0.00    +0.038 A 
ATOM     22  C   UNL     1      -4.049  -1.496   0.074  0.00  0.00    +0.013 A 
ATOM     23  C   UNL     1      -5.352  -1.952   0.082  0.00  0.00    +0.003 A 
ATOM     24  C   UNL     1      -6.048  -2.093  -1.104  0.00  0.00    +0.024 A 
ATOM     25  C   UNL     1      -5.440  -1.778  -2.313  0.00  0.00    +0.046 A 
ATOM     26  C   UNL     1      -4.134  -1.314  -2.332  0.00  0.00    +0.037 A 
BRANCH  21  28
ATOM     27  N   UNL     1      -1.356  -0.557   0.008  0.00  0.00    -0.309 N 
ATOM     28  C   UNL     1      -2.034  -0.689  -1.149  0.00  0.00    +0.244 C 
ATOM     29  O   UNL     1      -1.499  -0.407  -2.203  0.00  0.00    -0.270 OA
ATOM     30  H   UNL     1      -1.783  -0.783   0.849  0.00  0.00    +0.149 HD
BRANCH  27  32
ATOM     31  C   UNL     1       0.033   1.456  -0.011  0.00  0.00    +0.028 C 
ATOM     32  C   UNL     1       0.027  -0.074  -0.004  0.00  0.00    +0.070 C 
BRANCH  32  33
ATOM     33  C   UNL     1       0.756  -0.581   1.242  0.00  0.00    +0.022 C 
BRANCH  33  34
ATOM     34  C   UNL     1       0.860  -2.106   1.187  0.00  0.00    +0.002 C 
BRANCH  34  35
ATOM     35  C   UNL     1       1.588  -2.613   2.433  0.00  0.00    +0.003 C 
BRANCH  35  36
ATOM     36  C   UNL     1       1.692  -4.139   2.378  0.00  0.00    -0.017 C 
ATOM     37  C   UNL     1       2.528  -4.636   3.559  0.00  0.00    +0.007 C 
ATOM     38  C   UNL     1       0.291  -4.748   2.453  0.00  0.00    +0.007 C 
ENDBRANCH  35  36
ENDBRANCH  34  35
ENDBRANCH  33  34
ENDBRANCH  32  33
ENDBRANCH  27  32
ENDBRANCH  21  28
ENDBRANCH   1  25
TORSDOF 7
