REMARK  Name = ZINC58157822
REMARK  12 active torsions:
REMARK  status: ('A' for Active; 'I' for Inactive)
REMARK    1  A    between atoms: C_1  and  C_2
REMARK    2  A    between atoms: C_2  and  C_3
REMARK    3  A    between atoms: C_3  and  N_4
REMARK    4  A    between atoms: C_5  and  C_7
REMARK    5  A    between atoms: N_12  and  C_14
REMARK    6  A    between atoms: C_14  and  C_15
REMARK    7  A    between atoms: N_17  and  C_18
REMARK    8  A    between atoms: C_21  and  C_24
REMARK    9  A    between atoms: N_26  and  C_27
REMARK   10  A    between atoms: C_30  and  O_33
REMARK   11  A    between atoms: O_33  and  C_34
REMARK   12  A    between atoms: C_34  and  C_35
REMARK                            x       y       z     vdW  Elec       q    Type
REMARK                         _______ _______ _______ _____ _____    ______ ____
ROOT
ATOM      1  C   UNL     1       2.739  -8.140   4.588  0.00  0.00    +0.201 C 
ATOM      2  O   UNL     1       2.092  -8.761   3.771  0.00  0.00    -0.278 OA
ATOM      3  N   UNL     1       3.559  -8.793   5.436  0.00  0.00    -0.287 N 
ATOM      4  H   UNL     1       4.126  -8.292   6.043  0.00  0.00    +0.155 HD
ENDROOT
BRANCH   3   5
ATOM      5  C   UNL     1       3.592 -10.187   5.439  0.00  0.00    +0.033 A 
ATOM      6  C   UNL     1       3.449 -10.888   4.246  0.00  0.00    +0.024 A 
ATOM      7  C   UNL     1       3.481 -12.264   4.246  0.00  0.00    +0.015 A 
ATOM      8  C   UNL     1       3.658 -12.957   5.447  0.00  0.00    +0.037 A 
ATOM      9  C   UNL     1       3.801 -12.250   6.644  0.00  0.00    +0.015 A 
ATOM     10  C   UNL     1       3.774 -10.873   6.636  0.00  0.00    +0.024 A 
BRANCH   8  11
ATOM     11  C   UNL     1       3.692 -14.432   5.451  0.00  0.00    +0.248 C 
ATOM     12  O   UNL     1       3.567 -15.046   4.409  0.00  0.00    -0.270 OA
ATOM     13  N   UNL     1       3.863 -15.099   6.609  0.00  0.00    -0.281 N 
ATOM     14  H   UNL     1       3.889 -14.614   7.449  0.00  0.00    +0.155 HD
BRANCH  13  15
ATOM     15  C   UNL     1       4.003 -16.493   6.601  0.00  0.00    +0.034 A 
ATOM     16  C   UNL     1       3.499 -17.247   7.652  0.00  0.00    +0.027 A 
ATOM     17  C   UNL     1       3.637 -18.621   7.644  0.00  0.00    +0.047 A 
ATOM     18  C   UNL     1       4.279 -19.248   6.585  0.00  0.00    +0.121 A 
ATOM     19  C   UNL     1       4.783 -18.494   5.535  0.00  0.00    +0.047 A 
ATOM     20  C   UNL     1       4.640 -17.121   5.539  0.00  0.00    +0.027 A 
BRANCH  18  21
ATOM     21  O   UNL     1       4.415 -20.600   6.577  0.00  0.00    -0.492 OA
BRANCH  21  22
ATOM     22  C   UNL     1       5.087 -21.178   5.457  0.00  0.00    +0.225 C 
ATOM     23  C   UNL     1       5.143 -22.698   5.624  0.00  0.00    +0.048 C 
ENDBRANCH  21  22
ENDBRANCH  18  21
ENDBRANCH  13  15
ENDBRANCH   8  11
ENDBRANCH   3   5
BRANCH   1  24
ATOM     24  C   UNL     1       2.626  -6.639   4.654  0.00  0.00    +0.019 C 
BRANCH  24  29
ATOM     25  C   UNL     1       0.738  -4.216   2.498  0.00  0.00    +0.058 C 
ATOM     26  C   UNL     1      -0.680  -4.737   2.754  0.00  0.00    +0.009 C 
ATOM     27  C   UNL     1      -0.642  -6.265   2.848  0.00  0.00    -0.018 C 
ATOM     28  C   UNL     1       0.336  -6.679   3.950  0.00  0.00    -0.078 C 
ATOM     29  N   UNL     1       1.677  -6.174   3.635  0.00  0.00    +0.386 N 
ATOM     30  C   UNL     1       1.665  -4.706   3.613  0.00  0.00    -0.065 C 
ATOM     31  H   UNL     1       1.961  -6.520   2.730  0.00  0.00    -0.081 HD
BRANCH  25  33
ATOM     32  N   UNL     1      -0.030  -2.053   1.577  0.00  0.00    -0.315 N 
ATOM     33  C   UNL     1       0.724  -2.709   2.481  0.00  0.00    +0.214 C 
ATOM     34  O   UNL     1       1.392  -2.088   3.280  0.00  0.00    -0.276 OA
ATOM     35  H   UNL     1      -0.564  -2.550   0.938  0.00  0.00    +0.149 HD
BRANCH  32  36
ATOM     36  C   UNL     1      -0.043  -0.588   1.560  0.00  0.00    +0.104 C 
BRANCH  36  38
ATOM     37  C   UNL     1      -0.985   1.431   0.429  0.00  0.00    +0.005 C 
ATOM     38  C   UNL     1      -0.972  -0.099   0.447  0.00  0.00    +0.015 C 
ENDBRANCH  36  38
ENDBRANCH  32  36
ENDBRANCH  25  33
ENDBRANCH  24  29
ENDBRANCH   1  24
TORSDOF 10
