REMARK  Name = ZINC36945339
REMARK  8 active torsions:
REMARK  status: ('A' for Active; 'I' for Inactive)
REMARK    1  A    between atoms: C_1  and  C_2
REMARK    2  A    between atoms: C_2  and  C_4
REMARK    3  A    between atoms: C_2  and  N_11
REMARK    4  A    between atoms: N_11  and  C_12
REMARK    5  A    between atoms: C_12  and  C_13
REMARK    6  A    between atoms: C_15  and  O_20
REMARK    7  A    between atoms: C_18  and  O_19
REMARK    8  A    between atoms: O_20  and  C_21
REMARK                            x       y       z     vdW  Elec       q    Type
REMARK                         _______ _______ _______ _____ _____    ______ ____
ROOT
ATOM      1  N   UNL     1      -1.376  -0.512   0.012  0.00  0.00    +0.386 N 
ATOM      2  H   UNL     1      -1.363  -1.518   0.090  0.00  0.00    -0.085 HD
ATOM      3  H   UNL     1      -1.873  -0.121   0.799  0.00  0.00    -0.085 HD
ENDROOT
BRANCH   1   5
ATOM      4  C   UNL     1      -0.019   1.526   0.010  0.00  0.00    -0.009 C 
ATOM      5  C   UNL     1       0.002  -0.004   0.002  0.00  0.00    -0.043 C 
BRANCH   5   6
ATOM      6  C   UNL     1       0.731  -0.503   1.223  0.00  0.00    -0.048 A 
ATOM      7  C   UNL     1       0.018  -0.951   2.319  0.00  0.00    +0.003 A 
ATOM      8  C   UNL     1       0.686  -1.409   3.439  0.00  0.00    +0.000 A 
ATOM      9  C   UNL     1       2.068  -1.420   3.463  0.00  0.00    +0.001 A 
ATOM     10  C   UNL     1       2.782  -0.973   2.368  0.00  0.00    +0.015 A 
ATOM     11  C   UNL     1       2.114  -0.519   1.245  0.00  0.00    +0.019 A 
ATOM     12 BR   UNL     1       3.090   0.086  -0.257  0.00  0.00    -0.050 Br
ENDBRANCH   5   6
ENDBRANCH   1   5
BRANCH   1  13
ATOM     13  C   UNL     1      -2.050  -0.126  -1.234  0.00  0.00    -0.042 C 
BRANCH  13  14
ATOM     14  C   UNL     1      -3.464  -0.648  -1.224  0.00  0.00    -0.019 A 
ATOM     15  C   UNL     1      -4.518   0.218  -1.007  0.00  0.00    +0.051 A 
ATOM     16  C   UNL     1      -5.819  -0.262  -0.998  0.00  0.00    +0.121 A 
ATOM     17  C   UNL     1      -6.062  -1.611  -1.206  0.00  0.00    +0.049 A 
ATOM     18  C   UNL     1      -5.008  -2.477  -1.423  0.00  0.00    +0.049 A 
ATOM     19  C   UNL     1      -3.707  -1.996  -1.437  0.00  0.00    +0.118 A 
BRANCH  19  20
ATOM     20  O   UNL     1      -2.670  -2.848  -1.656  0.00  0.00    -0.507 OA
ATOM     21  H   UNL     1      -2.308  -3.243  -0.851  0.00  0.00    +0.292 HD
ENDBRANCH  19  20
BRANCH  16  22
ATOM     22  O   UNL     1      -6.857   0.591  -0.784  0.00  0.00    -0.495 OA
ATOM     23  C   UNL     1      -8.170   0.028  -0.787  0.00  0.00    +0.277 C 
ENDBRANCH  16  22
ENDBRANCH  13  14
ENDBRANCH   1  13
TORSDOF 6
