REMARK  Name = ZINC51643641
REMARK  6 active torsions:
REMARK  status: ('A' for Active; 'I' for Inactive)
REMARK    1  A    between atoms: C_1  and  C_2
REMARK    2  A    between atoms: C_4  and  O_21
REMARK    3  A    between atoms: C_7  and  N_8
REMARK    4  A    between atoms: C_15  and  C_18
REMARK    5  A    between atoms: O_21  and  C_22
REMARK    6  A    between atoms: C_25  and  C_28
REMARK                            x       y       z     vdW  Elec       q    Type
REMARK                         _______ _______ _______ _____ _____    ______ ____
ROOT
ATOM      1  C   UNL     1       0.209   1.411   0.402  0.00  0.00    +0.046 C 
ATOM      2  C   UNL     1       0.039  -0.082   0.289  0.00  0.00    -0.026 A 
ATOM      3  C   UNL     1       0.122  -0.695  -0.945  0.00  0.00    +0.051 A 
ATOM      4  C   UNL     1      -0.035  -2.070  -1.049  0.00  0.00    +0.129 A 
ATOM      5  C   UNL     1      -0.277  -2.829   0.087  0.00  0.00    +0.048 A 
ATOM      6  C   UNL     1      -0.361  -2.217   1.322  0.00  0.00    +0.027 A 
ATOM      7  C   UNL     1      -0.197  -0.842   1.427  0.00  0.00    +0.038 A 
ENDROOT
BRANCH   7   8
ATOM      8  N   UNL     1      -0.276  -0.221   2.681  0.00  0.00    -0.269 N 
ATOM      9  C   UNL     1      -0.140  -0.952   3.805  0.00  0.00    +0.307 C 
ATOM     10  O   UNL     1       0.133  -2.134   3.732  0.00  0.00    -0.252 OA
ATOM     11  N   UNL     1      -0.308  -0.372   5.010  0.00  0.00    -0.280 N 
ATOM     12  C   UNL     1      -0.532   1.077   5.129  0.00  0.00    +0.137 C 
ATOM     13  C   UNL     1      -1.764   1.305   6.012  0.00  0.00    +0.180 C 
ATOM     14  O   UNL     1      -1.605   0.585   7.237  0.00  0.00    -0.364 OA
ATOM     15  C   UNL     1      -1.518  -0.833   7.074  0.00  0.00    +0.221 C 
ATOM     16  C   UNL     1      -0.279  -1.171   6.245  0.00  0.00    +0.150 C 
ATOM     17  H   UNL     1      -0.427   0.736   2.740  0.00  0.00    +0.156 HD
BRANCH  15  18
ATOM     18  C   UNL     1      -1.416  -1.489   8.427  0.00  0.00    +0.241 C 
ATOM     19  O   UNL     1      -1.327  -0.808   9.427  0.00  0.00    -0.273 OA
ATOM     20  N   UNL     1      -1.425  -2.833   8.527  0.00  0.00    -0.327 N 
ATOM     21  H   UNL     1      -1.496  -3.378   7.728  0.00  0.00    +0.145 HD
ATOM     22  H   UNL     1      -1.359  -3.256   9.398  0.00  0.00    +0.145 HD
ENDBRANCH  15  18
ENDBRANCH   7   8
BRANCH   4  23
ATOM     23  O   UNL     1       0.046  -2.673  -2.265  0.00  0.00    -0.456 OA
BRANCH  23  24
ATOM     24  C   UNL     1       0.199  -1.884  -3.359  0.00  0.00    +0.129 A 
ATOM     25  C   UNL     1       1.443  -1.338  -3.652  0.00  0.00    +0.047 A 
ATOM     26  C   UNL     1       1.601  -0.537  -4.761  0.00  0.00    +0.022 A 
ATOM     27  C   UNL     1       0.509  -0.274  -5.592  0.00  0.00    +0.052 A 
ATOM     28  C   UNL     1      -0.740  -0.825  -5.294  0.00  0.00    +0.022 A 
ATOM     29  C   UNL     1      -0.889  -1.629  -4.186  0.00  0.00    +0.047 A 
BRANCH  27  30
ATOM     30  C   UNL     1       0.669   0.559  -6.746  0.00  0.00    +0.099 C 
ATOM     31  N   UNL     1       0.797   1.220  -7.662  0.00  0.00    -0.191 NA
ENDBRANCH  27  30
ENDBRANCH  23  24
ENDBRANCH   4  23
TORSDOF 5
