REMARK  Name = ZINC42572085
REMARK  8 active torsions:
REMARK  status: ('A' for Active; 'I' for Inactive)
REMARK    1  A    between atoms: C_1  and  C_2
REMARK    2  A    between atoms: C_2  and  C_4
REMARK    3  A    between atoms: C_2  and  N_8
REMARK    4  A    between atoms: N_6  and  C_7
REMARK    5  A    between atoms: N_8  and  S_9
REMARK    6  A    between atoms: S_9  and  C_12
REMARK    7  A    between atoms: C_15  and  C_18
REMARK    8  A    between atoms: C_18  and  N_19
REMARK                            x       y       z     vdW  Elec       q    Type
REMARK                         _______ _______ _______ _____ _____    ______ ____
ROOT
ATOM      1  S   UNL     1      -2.119  -0.907  -1.411  0.00  0.00    +0.059 S 
ATOM      2  O   UNL     1      -3.414  -1.386  -1.071  0.00  0.00    -0.153 OA
ATOM      3  O   UNL     1      -1.920   0.189  -2.293  0.00  0.00    -0.153 OA
ENDROOT
BRANCH   1   4
ATOM      4  C   UNL     1      -1.242  -2.272  -2.098  0.00  0.00    +0.105 A 
ATOM      5  C   UNL     1      -0.176  -2.051  -2.950  0.00  0.00    +0.029 A 
ATOM      6  C   UNL     1       0.512  -3.122  -3.489  0.00  0.00    +0.003 A 
ATOM      7  C   UNL     1       0.135  -4.414  -3.175  0.00  0.00    -0.065 A 
ATOM      8  C   UNL     1      -0.930  -4.636  -2.322  0.00  0.00    +0.003 A 
ATOM      9  C   UNL     1      -1.616  -3.565  -1.780  0.00  0.00    +0.029 A 
BRANCH   7  10
ATOM     10  C   UNL     1       0.885  -5.582  -3.763  0.00  0.00    -0.051 C 
BRANCH  10  11
ATOM     11  N   UNL     1       1.993  -5.950  -2.872  0.00  0.00    +0.381 N 
ATOM     12  H   UNL     1       2.619  -5.165  -2.771  0.00  0.00    -0.090 HD
ATOM     13  H   UNL     1       1.627  -6.207  -1.968  0.00  0.00    -0.090 HD
ATOM     14  H   UNL     1       2.495  -6.732  -3.266  0.00  0.00    -0.090 HD
ENDBRANCH  10  11
ENDBRANCH   7  10
ENDBRANCH   1   4
BRANCH   1  15
ATOM     15  N   UNL     1      -1.372  -0.511   0.012  0.00  0.00    -0.178 NA
ATOM     16  H   UNL     1      -1.845  -0.615   0.853  0.00  0.00    +0.149 HD
BRANCH  15  18
ATOM     17  C   UNL     1      -0.019   1.526   0.010  0.00  0.00    +0.035 C 
ATOM     18  C   UNL     1       0.002  -0.004   0.002  0.00  0.00    +0.159 C 
BRANCH  18  19
ATOM     19  C   UNL     1       0.731  -0.503   1.223  0.00  0.00    +0.231 C 
ATOM     20  O   UNL     1       0.159  -1.213   2.023  0.00  0.00    -0.274 OA
ATOM     21  N   UNL     1       2.019  -0.161   1.426  0.00  0.00    -0.317 N 
ATOM     22  C   UNL     1       2.727  -0.647   2.613  0.00  0.00    +0.128 C 
ATOM     23  H   UNL     1       2.476   0.406   0.786  0.00  0.00    +0.148 HD
ENDBRANCH  18  19
ENDBRANCH  15  18
ENDBRANCH   1  15
TORSDOF 6
