REMARK  Name = ZINC38091998
REMARK  5 active torsions:
REMARK  status: ('A' for Active; 'I' for Inactive)
REMARK    1  A    between atoms: C_3  and  N_8
REMARK    2  A    between atoms: C_9  and  C_11
REMARK    3  A    between atoms: C_11  and  N_12
REMARK    4  A    between atoms: N_12  and  C_13
REMARK    5  A    between atoms: C_16  and  C_19
REMARK                            x       y       z     vdW  Elec       q    Type
REMARK                         _______ _______ _______ _____ _____    ______ ____
ROOT
ATOM      1  N   UNL     1       7.176   1.307   0.252  0.00  0.00    +0.387 N 
ATOM      2  H   UNL     1       7.068   0.721   1.067  0.00  0.00    -0.085 HD
ATOM      3  H   UNL     1       7.196   0.731  -0.576  0.00  0.00    -0.085 HD
ENDROOT
BRANCH   1   4
ATOM      4  C   UNL     1       8.432   2.061   0.354  0.00  0.00    -0.071 C 
ATOM      5  C   UNL     1       8.657   2.854  -0.934  0.00  0.00    -0.015 C 
ATOM      6  C   UNL     1       9.965   3.640  -0.828  0.00  0.00    +0.011 C 
ATOM      7  C   UNL     1      11.128   2.668  -0.618  0.00  0.00    +0.075 C 
ATOM      8  C   UNL     1      10.903   1.875   0.671  0.00  0.00    +0.011 C 
ATOM      9  C   UNL     1       9.595   1.089   0.565  0.00  0.00    -0.015 C 
BRANCH   7  10
ATOM     10  C   UNL     1      12.417   3.442  -0.513  0.00  0.00    +0.214 C 
ATOM     11  O   UNL     1      12.406   4.652  -0.598  0.00  0.00    -0.276 OA
ATOM     12  N   UNL     1      13.581   2.790  -0.325  0.00  0.00    -0.329 N 
ATOM     13  H   UNL     1      13.590   1.823  -0.257  0.00  0.00    +0.145 HD
ATOM     14  H   UNL     1      14.411   3.288  -0.257  0.00  0.00    +0.145 HD
ENDBRANCH   7  10
ENDBRANCH   1   4
BRANCH   1  15
ATOM     15  C   UNL     1       6.047   2.244   0.171  0.00  0.00    +0.015 C 
BRANCH  15  17
ATOM     16  N   UNL     1       3.584   2.125  -0.021  0.00  0.00    -0.287 N 
ATOM     17  C   UNL     1       4.758   1.470   0.066  0.00  0.00    +0.200 C 
ATOM     18  O   UNL     1       4.778   0.257   0.060  0.00  0.00    -0.278 OA
ATOM     19  H   UNL     1       3.572   3.092  -0.093  0.00  0.00    +0.155 HD
BRANCH  16  22
ATOM     20  C   UNL     1       1.085  -0.461   0.750  0.00  0.00    +0.003 A 
ATOM     21  C   UNL     1       2.274   0.243   0.738  0.00  0.00    +0.023 A 
ATOM     22  C   UNL     1       2.381   1.410  -0.007  0.00  0.00    +0.034 A 
ATOM     23  C   UNL     1       1.292   1.866  -0.738  0.00  0.00    +0.038 A 
ATOM     24  C   UNL     1       0.106   1.158  -0.722  0.00  0.00    +0.020 A 
ATOM     25  C   UNL     1       0.002  -0.004   0.022  0.00  0.00    +0.015 A 
ATOM     26 BR   UNL     1      -1.378   1.778  -1.717  0.00  0.00    -0.050 Br
ENDBRANCH  16  22
ENDBRANCH  15  17
ENDBRANCH   1  15
TORSDOF 5
