REMARK  Name = ZINC02927068
REMARK  9 active torsions:
REMARK  status: ('A' for Active; 'I' for Inactive)
REMARK    1  A    between atoms: C_1  and  C_2
REMARK    2  A    between atoms: C_3  and  N_9
REMARK    3  A    between atoms: C_10  and  C_12
REMARK    4  A    between atoms: C_12  and  S_13
REMARK    5  A    between atoms: S_13  and  C_14
REMARK    6  A    between atoms: C_18  and  C_22
REMARK    7  A    between atoms: N_25  and  C_26
REMARK    8  A    between atoms: C_30  and  O_32
REMARK    9  A    between atoms: O_32  and  C_33
REMARK                            x       y       z     vdW  Elec       q    Type
REMARK                         _______ _______ _______ _____ _____    ______ ____
ROOT
ATOM      1  C   UNL     1      -4.596   2.534   2.231  0.00  0.00    +0.177 A 
ATOM      2  N   UNL     1      -3.570   2.632   3.040  0.00  0.00    -0.201 NA
ATOM      3  C   UNL     1      -2.321   2.325   2.658  0.00  0.00    +0.187 A 
ATOM      4  C   UNL     1      -2.087   1.877   1.350  0.00  0.00    +0.082 A 
ATOM      5  C   UNL     1      -0.709   1.623   1.234  0.00  0.00    +0.046 A 
ATOM      6  N   UNL     1      -0.141   1.909   2.374  0.00  0.00    -0.279 N 
ATOM      7  N   UNL     1      -1.113   2.342   3.284  0.00  0.00    -0.153 NA
ATOM      8  H   UNL     1       0.947   1.790   2.491  0.00  0.00    +0.189 HD
ATOM      9  C   UNL     1      -0.003   1.139  -0.006  0.00  0.00    +0.066 C 
ATOM     10  C   UNL     1      -3.231   1.769   0.436  0.00  0.00    +0.124 A 
ATOM     11  N   UNL     1      -3.078   1.370  -0.803  0.00  0.00    -0.384 N 
ATOM     12  N   UNL     1      -4.480   2.101   0.938  0.00  0.00    -0.275 N 
ATOM     13  H   UNL     1      -3.951   1.298  -1.469  0.00  0.00    +0.157 HD
ATOM     14  H   UNL     1      -2.077   1.109  -1.178  0.00  0.00    +0.157 HD
ENDROOT
BRANCH  12  15
ATOM     15  C   UNL     1      -5.614   2.011   0.121  0.00  0.00    +0.054 A 
ATOM     16  C   UNL     1      -6.040   0.773  -0.343  0.00  0.00    +0.026 A 
ATOM     17  C   UNL     1      -7.161   0.684  -1.145  0.00  0.00    +0.006 A 
ATOM     18  C   UNL     1      -7.856   1.827  -1.496  0.00  0.00    +0.046 A 
ATOM     19  C   UNL     1      -7.432   3.066  -1.039  0.00  0.00    +0.122 A 
ATOM     20  C   UNL     1      -6.310   3.159  -0.230  0.00  0.00    +0.072 A 
BRANCH  19  21
ATOM     21  O   UNL     1      -8.115   4.189  -1.385  0.00  0.00    -0.495 OA
ATOM     22  C   UNL     1      -9.261   4.018  -2.222  0.00  0.00    +0.277 C 
ENDBRANCH  19  21
ENDBRANCH  12  15
BRANCH   1  23
ATOM     23  S   UNL     1      -6.192   2.970   2.835  0.00  0.00    -0.078 S 
BRANCH  23  24
ATOM     24  C   UNL     1      -5.768   3.449   4.528  0.00  0.00    +0.173 C 
BRANCH  24  26
ATOM     25  N   UNL     1      -6.941   4.274   6.543  0.00  0.00    -0.285 N 
ATOM     26  C   UNL     1      -7.016   3.873   5.259  0.00  0.00    +0.227 C 
ATOM     27  O   UNL     1      -8.087   3.854   4.690  0.00  0.00    -0.275 OA
ATOM     28  H   UNL     1      -5.987   4.206   7.087  0.00  0.00    +0.155 HD
BRANCH  25  31
ATOM     29  C   UNL     1      -7.077   4.082   9.379  0.00  0.00    +0.047 C 
ATOM     30  C   UNL     1      -8.185   4.704   8.569  0.00  0.00    -0.011 A 
ATOM     31  C   UNL     1      -8.078   4.777   7.186  0.00  0.00    +0.038 A 
ATOM     32  C   UNL     1      -9.104   5.345   6.442  0.00  0.00    +0.023 A 
ATOM     33  C   UNL     1     -10.225   5.840   7.079  0.00  0.00    +0.003 A 
ATOM     34  C   UNL     1     -10.327   5.771   8.456  0.00  0.00    +0.020 A 
ATOM     35  C   UNL     1      -9.306   5.207   9.201  0.00  0.00    +0.046 A 
ATOM     36 CL   UNL     1      -9.438   5.122  10.930  0.00  0.00    -0.083 Cl
ENDBRANCH  25  31
ENDBRANCH  24  26
ENDBRANCH  23  24
ENDBRANCH   1  23
TORSDOF 6
