REMARK  Name = ZINC09706011
REMARK  11 active torsions:
REMARK  status: ('A' for Active; 'I' for Inactive)
REMARK    1  A    between atoms: C_1  and  C_2
REMARK    2  A    between atoms: C_5  and  N_8
REMARK    3  A    between atoms: C_9  and  C_11
REMARK    4  A    between atoms: C_12  and  N_20
REMARK    5  A    between atoms: C_21  and  C_23
REMARK    6  A    between atoms: N_25  and  C_26
REMARK    7  A    between atoms: C_26  and  C_27
REMARK    8  A    between atoms: C_27  and  C_28
REMARK    9  A    between atoms: C_28  and  N_57
REMARK   10  A    between atoms: C_29  and  N_57
REMARK   11  A    between atoms: C_30  and  N_57
REMARK                            x       y       z     vdW  Elec       q    Type
REMARK                         _______ _______ _______ _____ _____    ______ ____
ROOT
ATOM      1  C   UNL     1       0.278  -2.880  -0.647  0.00  0.00    +0.212 A 
ATOM      2  C   UNL     1       1.302  -2.013  -0.380  0.00  0.00    +0.093 A 
ATOM      3  C   UNL     1       2.461  -2.852  -0.048  0.00  0.00    +0.042 A 
ATOM      4  C   UNL     1       3.780  -2.584   0.320  0.00  0.00    +0.013 A 
ATOM      5  C   UNL     1       4.635  -3.618   0.579  0.00  0.00    +0.001 A 
ATOM      6  C   UNL     1       4.198  -4.932   0.483  0.00  0.00    +0.004 A 
ATOM      7  C   UNL     1       2.898  -5.217   0.127  0.00  0.00    +0.047 A 
ATOM      8  C   UNL     1       2.010  -4.180  -0.141  0.00  0.00    +0.138 A 
ATOM      9  O   UNL     1       0.712  -4.151  -0.502  0.00  0.00    -0.448 OA
ENDROOT
BRANCH   1  11
ATOM     10  N   UNL     1      -2.046  -3.423  -1.127  0.00  0.00    -0.279 N 
ATOM     11  C   UNL     1      -1.078  -2.490  -1.032  0.00  0.00    +0.285 C 
ATOM     12  O   UNL     1      -1.332  -1.323  -1.267  0.00  0.00    -0.266 OA
ATOM     13  H   UNL     1      -1.828  -4.362  -1.017  0.00  0.00    +0.155 HD
BRANCH  10  18
ATOM     14  C   UNL     1      -7.399  -1.861  -2.168  0.00  0.00    +0.044 C 
ATOM     15  C   UNL     1      -5.976  -2.276  -1.892  0.00  0.00    -0.050 A 
ATOM     16  C   UNL     1      -5.500  -3.476  -2.386  0.00  0.00    +0.005 A 
ATOM     17  C   UNL     1      -4.197  -3.860  -2.134  0.00  0.00    +0.023 A 
ATOM     18  C   UNL     1      -3.365  -3.038  -1.384  0.00  0.00    +0.034 A 
ATOM     19  C   UNL     1      -3.849  -1.835  -0.885  0.00  0.00    +0.023 A 
ATOM     20  C   UNL     1      -5.151  -1.455  -1.145  0.00  0.00    +0.005 A 
ENDBRANCH  10  18
ENDBRANCH   1  11
BRANCH   2  21
ATOM     21  N   UNL     1       1.258  -0.626  -0.419  0.00  0.00    -0.274 N 
ATOM     22  C   UNL     1       2.091   0.097   0.354  0.00  0.00    +0.303 C 
ATOM     23  O   UNL     1       2.830  -0.462   1.138  0.00  0.00    -0.265 OA
ATOM     24  H   UNL     1       0.627  -0.178  -1.004  0.00  0.00    +0.155 HD
BRANCH  22  25
ATOM     25  C   UNL     1       2.104   1.587   0.248  0.00  0.00    +0.299 C 
ATOM     26  O   UNL     1       1.365   2.146  -0.536  0.00  0.00    -0.265 OA
ATOM     27  N   UNL     1       2.933   2.311   1.026  0.00  0.00    -0.308 N 
ATOM     28  H   UNL     1       3.521   1.864   1.655  0.00  0.00    +0.149 HD
BRANCH  27  29
ATOM     29  C   UNL     1       2.946   3.772   0.921  0.00  0.00    +0.103 C 
BRANCH  29  30
ATOM     30  C   UNL     1       3.968   4.344   1.906  0.00  0.00    +0.000 C 
BRANCH  30  31
ATOM     31  C   UNL     1       3.981   5.870   1.796  0.00  0.00    -0.078 C 
BRANCH  31  34
ATOM     32  C   UNL     1       6.329   6.031   2.368  0.00  0.00    -0.097 C 
ATOM     33  C   UNL     1       4.839   7.881   2.838  0.00  0.00    -0.097 C 
ATOM     34  N   UNL     1       4.957   6.409   2.767  0.00  0.00    +0.376 N 
ATOM     35  H   UNL     1       4.758   6.014   3.694  0.00  0.00    -0.083 HD
ENDBRANCH  31  34
ENDBRANCH  30  31
ENDBRANCH  29  30
ENDBRANCH  27  29
ENDBRANCH  22  25
ENDBRANCH   2  21
TORSDOF 8
