REMARK  Name = ZINC61951961
REMARK  4 active torsions:
REMARK  status: ('A' for Active; 'I' for Inactive)
REMARK    1  A    between atoms: C_1  and  C_2
REMARK    2  A    between atoms: N_7  and  C_8
REMARK    3  A    between atoms: N_7  and  C_9
REMARK    4  A    between atoms: C_12  and  C_15
REMARK                            x       y       z     vdW  Elec       q    Type
REMARK                         _______ _______ _______ _____ _____    ______ ____
ROOT
ATOM      1  C   UNL     1       0.122  -4.246   1.873  0.00  0.00    +0.035 A 
ATOM      2  C   UNL     1       0.203  -4.650   0.543  0.00  0.00    +0.024 A 
ATOM      3  C   UNL     1       0.270  -5.989   0.232  0.00  0.00    +0.013 A 
ATOM      4  C   UNL     1       0.257  -6.943   1.253  0.00  0.00    +0.012 A 
ATOM      5  C   UNL     1       0.176  -6.535   2.586  0.00  0.00    +0.013 A 
ATOM      6  C   UNL     1       0.114  -5.194   2.892  0.00  0.00    +0.024 A 
ENDROOT
BRANCH   1  13
ATOM      7  C   UNL     1       2.516   0.889   4.104  0.00  0.00    +0.066 C 
ATOM      8  C   UNL     1       2.338  -0.568   3.759  0.00  0.00    +0.047 A 
ATOM      9  C   UNL     1       3.277  -1.490   4.080  0.00  0.00    +0.071 A 
ATOM     10  S   UNL     1       2.521  -2.973   3.434  0.00  0.00    -0.060 S 
ATOM     11  C   UNL     1       1.113  -2.274   2.834  0.00  0.00    +0.165 A 
ATOM     12  N   UNL     1       1.258  -1.002   3.136  0.00  0.00    -0.230 NA
ATOM     13  N   UNL     1       0.053  -2.891   2.184  0.00  0.00    -0.283 N 
ATOM     14  C   UNL     1      -1.137  -2.116   1.826  0.00  0.00    +0.137 C 
ENDBRANCH   1  13
BRANCH   4  15
ATOM     15  C   UNL     1       0.329  -8.381   0.922  0.00  0.00    +0.094 C 
ATOM     16  N   UNL     1       0.316  -9.290   1.896  0.00  0.00    -0.387 N 
ATOM     17  N   UNL     1       0.406  -8.769  -0.351  0.00  0.00    -0.345 N 
ATOM     18  H   UNL     1       0.260  -9.008   2.823  0.00  0.00    +0.157 HD
ATOM     19  H   UNL     1       0.415  -8.107  -1.060  0.00  0.00    +0.144 HD
ATOM     20  H   UNL     1       0.453  -9.713  -0.568  0.00  0.00    +0.144 HD
ATOM     21  H   UNL     1       0.363 -10.234   1.679  0.00  0.00    +0.157 HD
ENDBRANCH   4  15
TORSDOF 2
