REMARK  Name = ZINC12992579
REMARK  14 active torsions:
REMARK  status: ('A' for Active; 'I' for Inactive)
REMARK    1  A    between atoms: C_1  and  C_2
REMARK    2  A    between atoms: C_4  and  S_25
REMARK    3  A    between atoms: C_6  and  N_9
REMARK    4  A    between atoms: C_7  and  C_8
REMARK    5  A    between atoms: C_10  and  C_12
REMARK    6  A    between atoms: C_12  and  N_56
REMARK    7  A    between atoms: C_13  and  N_56
REMARK    8  A    between atoms: C_14  and  C_15
REMARK    9  A    between atoms: C_14  and  N_56
REMARK   10  A    between atoms: C_15  and  O_16
REMARK   11  A    between atoms: O_16  and  C_17
REMARK   12  A    between atoms: C_20  and  O_23
REMARK   13  A    between atoms: O_23  and  C_24
REMARK   14  A    between atoms: S_25  and  N_28
REMARK                            x       y       z     vdW  Elec       q    Type
REMARK                         _______ _______ _______ _____ _____    ______ ____
ROOT
ATOM      1  N   UNL     1      -3.491   0.538   3.695  0.00  0.00    -0.287 N 
ATOM      2  C   UNL     1      -3.767  -0.636   3.094  0.00  0.00    +0.201 C 
ATOM      3  O   UNL     1      -3.144  -0.974   2.109  0.00  0.00    -0.278 OA
ATOM      4  H   UNL     1      -3.943   0.779   4.519  0.00  0.00    +0.155 HD
ENDROOT
BRANCH   1  10
ATOM      5  C   UNL     1      -1.998   5.132   2.778  0.00  0.00    +0.044 C 
ATOM      6  C   UNL     1      -1.804   3.641   2.672  0.00  0.00    -0.044 A 
ATOM      7  C   UNL     1      -0.695   3.133   2.022  0.00  0.00    +0.032 A 
ATOM      8  C   UNL     1      -0.516   1.766   1.918  0.00  0.00    +0.107 A 
ATOM      9  C   UNL     1      -1.441   0.903   2.473  0.00  0.00    +0.052 A 
ATOM     10  C   UNL     1      -2.553   1.410   3.131  0.00  0.00    +0.038 A 
ATOM     11  C   UNL     1      -2.732   2.784   3.229  0.00  0.00    -0.026 A 
ATOM     12  C   UNL     1      -3.939   3.338   3.943  0.00  0.00    +0.046 C 
BRANCH   8  13
ATOM     13  S   UNL     1       0.896   1.125   1.082  0.00  0.00    +0.056 S 
ATOM     14  O   UNL     1       1.117  -0.180   1.601  0.00  0.00    -0.153 OA
ATOM     15  O   UNL     1       1.890   2.139   1.126  0.00  0.00    -0.153 OA
BRANCH  13  16
ATOM     16  N   UNL     1       0.481   0.937  -0.510  0.00  0.00    -0.204 NA
ATOM     17  H   UNL     1       0.518   0.059  -0.921  0.00  0.00    +0.144 HD
ATOM     18  H   UNL     1       0.200   1.706  -1.031  0.00  0.00    +0.144 HD
ENDBRANCH  13  16
ENDBRANCH   8  13
ENDBRANCH   1  10
BRANCH   2  19
ATOM     19  C   UNL     1      -4.849  -1.528   3.644  0.00  0.00    +0.019 C 
BRANCH  19  21
ATOM     20  C   UNL     1      -5.425  -2.412   1.464  0.00  0.00    -0.095 C 
ATOM     21  N   UNL     1      -4.928  -2.749   2.814  0.00  0.00    +0.386 N 
ATOM     22  H   UNL     1      -3.989  -3.158   2.732  0.00  0.00    -0.081 HD
BRANCH  21  23
ATOM     23  C   UNL     1      -5.826  -3.736   3.451  0.00  0.00    -0.037 C 
BRANCH  23  24
ATOM     24  C   UNL     1      -5.716  -5.062   2.697  0.00  0.00    +0.210 C 
BRANCH  24  25
ATOM     25  O   UNL     1      -4.390  -5.578   2.833  0.00  0.00    -0.494 OA
BRANCH  25  26
ATOM     26  C   UNL     1      -4.122  -6.761   2.218  0.00  0.00    +0.121 A 
ATOM     27  C   UNL     1      -5.117  -7.413   1.504  0.00  0.00    +0.049 A 
ATOM     28  C   UNL     1      -4.843  -8.612   0.875  0.00  0.00    +0.049 A 
ATOM     29  C   UNL     1      -3.576  -9.169   0.966  0.00  0.00    +0.120 A 
ATOM     30  C   UNL     1      -2.583  -8.520   1.684  0.00  0.00    +0.049 A 
ATOM     31  C   UNL     1      -2.855  -7.319   2.309  0.00  0.00    +0.049 A 
BRANCH  29  32
ATOM     32  O   UNL     1      -3.308 -10.352   0.350  0.00  0.00    -0.495 OA
ATOM     33  C   UNL     1      -4.378 -10.965  -0.371  0.00  0.00    +0.277 C 
ENDBRANCH  29  32
ENDBRANCH  25  26
ENDBRANCH  24  25
ENDBRANCH  23  24
ENDBRANCH  21  23
ENDBRANCH  19  21
ENDBRANCH   2  19
TORSDOF 10
