REMARK  Name = ZINC00907081
REMARK  14 active torsions:
REMARK  status: ('A' for Active; 'I' for Inactive)
REMARK    1  A    between atoms: C_1  and  C_2
REMARK    2  A    between atoms: C_6  and  C_36
REMARK    3  A    between atoms: C_7  and  N_8
REMARK    4  A    between atoms: C_9  and  C_11
REMARK    5  A    between atoms: C_11  and  S_12
REMARK    6  A    between atoms: S_12  and  C_13
REMARK    7  A    between atoms: C_16  and  C_26
REMARK    8  A    between atoms: N_17  and  C_18
REMARK    9  A    between atoms: C_21  and  O_24
REMARK   10  A    between atoms: O_24  and  C_25
REMARK   11  A    between atoms: C_26  and  S_27
REMARK   12  A    between atoms: S_27  and  C_28
REMARK   13  A    between atoms: C_30  and  C_35
REMARK   14  A    between atoms: C_32  and  C_34
REMARK                            x       y       z     vdW  Elec       q    Type
REMARK                         _______ _______ _______ _____ _____    ______ ____
ROOT
ATOM      1  C   UNL     1      -3.756   2.363  -1.566  0.00  0.00    +0.197 A 
ATOM      2  N   UNL     1      -3.877   3.388  -0.754  0.00  0.00    -0.122 NA
ATOM      3  N   UNL     1      -5.060   3.883  -0.847  0.00  0.00    -0.132 NA
ATOM      4  C   UNL     1      -5.764   3.203  -1.708  0.00  0.00    +0.149 A 
ATOM      5  N   UNL     1      -4.959   2.210  -2.198  0.00  0.00    -0.274 N 
ENDROOT
BRANCH   5   6
ATOM      6  C   UNL     1      -5.298   1.237  -3.152  0.00  0.00    +0.050 A 
ATOM      7  C   UNL     1      -5.604   1.615  -4.452  0.00  0.00    +0.030 A 
ATOM      8  C   UNL     1      -5.933   0.657  -5.391  0.00  0.00    +0.047 A 
ATOM      9  C   UNL     1      -5.967  -0.682  -5.032  0.00  0.00    +0.120 A 
ATOM     10  C   UNL     1      -5.667  -1.061  -3.732  0.00  0.00    +0.047 A 
ATOM     11  C   UNL     1      -5.333  -0.104  -2.794  0.00  0.00    +0.030 A 
BRANCH   9  12
ATOM     12  O   UNL     1      -6.295  -1.625  -5.955  0.00  0.00    -0.495 OA
ATOM     13  C   UNL     1      -6.593  -1.164  -7.275  0.00  0.00    +0.277 C 
ENDBRANCH   9  12
ENDBRANCH   5   6
BRANCH   1  14
ATOM     14  S   UNL     1      -2.320   1.369  -1.791  0.00  0.00    -0.076 S 
BRANCH  14  15
ATOM     15  C   UNL     1      -1.189   2.184  -0.637  0.00  0.00    +0.173 C 
BRANCH  15  17
ATOM     16  N   UNL     1       1.152   1.923   0.120  0.00  0.00    -0.284 N 
ATOM     17  C   UNL     1       0.145   1.483  -0.661  0.00  0.00    +0.228 C 
ATOM     18  O   UNL     1       0.315   0.526  -1.387  0.00  0.00    -0.275 OA
ATOM     19  H   UNL     1       1.033   2.719   0.661  0.00  0.00    +0.155 HD
BRANCH  16  26
ATOM     20  C   UNL     1       1.093  -0.874   0.642  0.00  0.00    +0.045 C 
ATOM     21  C   UNL     1       2.384  -0.135   0.402  0.00  0.00    -0.029 A 
ATOM     22  C   UNL     1       3.586  -0.816   0.425  0.00  0.00    +0.005 A 
ATOM     23  C   UNL     1       4.771  -0.138   0.211  0.00  0.00    +0.001 A 
ATOM     24  C   UNL     1       4.758   1.224  -0.033  0.00  0.00    +0.005 A 
ATOM     25  C   UNL     1       3.560   1.909  -0.064  0.00  0.00    -0.029 A 
ATOM     26  C   UNL     1       2.367   1.231   0.151  0.00  0.00    +0.039 A 
ATOM     27  C   UNL     1       3.546   3.393  -0.331  0.00  0.00    +0.045 C 
ENDBRANCH  16  26
ENDBRANCH  15  17
ENDBRANCH  14  15
ENDBRANCH   1  14
BRANCH   4  28
ATOM     28  C   UNL     1      -7.198   3.463  -2.093  0.00  0.00    +0.154 C 
BRANCH  28  29
ATOM     29  S   UNL     1      -8.295   2.528  -0.999  0.00  0.00    -0.078 S 
BRANCH  29  30
ATOM     30  C   UNL     1      -9.860   3.004  -1.655  0.00  0.00    +0.189 A 
ATOM     31  N   UNL     1      -9.903   3.845  -2.678  0.00  0.00    -0.227 NA
ATOM     32  C   UNL     1     -11.061   4.219  -3.198  0.00  0.00    +0.043 A 
ATOM     33  C   UNL     1     -12.237   3.728  -2.651  0.00  0.00    +0.046 A 
ATOM     34  C   UNL     1     -12.155   2.854  -1.578  0.00  0.00    +0.043 A 
ATOM     35  N   UNL     1     -10.965   2.517  -1.110  0.00  0.00    -0.227 NA
ATOM     36  C   UNL     1     -13.407   2.296  -0.953  0.00  0.00    +0.066 C 
ATOM     37  C   UNL     1     -11.102   5.171  -4.365  0.00  0.00    +0.066 C 
ENDBRANCH  29  30
ENDBRANCH  28  29
ENDBRANCH   4  28
TORSDOF 9
