REMARK  Name = ZINC09848401
REMARK  11 active torsions:
REMARK  status: ('A' for Active; 'I' for Inactive)
REMARK    1  A    between atoms: C_1  and  C_2
REMARK    2  A    between atoms: C_2  and  C_3
REMARK    3  A    between atoms: C_3  and  C_5
REMARK    4  A    between atoms: C_3  and  N_75
REMARK    5  A    between atoms: C_6  and  C_7
REMARK    6  A    between atoms: C_6  and  N_75
REMARK    7  A    between atoms: C_7  and  N_8
REMARK    8  A    between atoms: C_9  and  C_11
REMARK    9  A    between atoms: C_21  and  C_28
REMARK   10  A    between atoms: C_23  and  C_27
REMARK   11  A    between atoms: C_29  and  N_75
REMARK                            x       y       z     vdW  Elec       q    Type
REMARK                         _______ _______ _______ _____ _____    ______ ____
ROOT
ATOM      1  N   UNL     1       1.377   5.347   9.246  0.00  0.00    -0.317 N 
ATOM      2  C   UNL     1       0.358   4.466   9.270  0.00  0.00    +0.218 C 
ATOM      3  O   UNL     1       0.311   3.617  10.135  0.00  0.00    -0.275 OA
ATOM      4  H   UNL     1       1.415   6.026   8.555  0.00  0.00    +0.149 HD
ENDROOT
BRANCH   2   5
ATOM      5  C   UNL     1      -0.723   4.535   8.222  0.00  0.00    +0.092 C 
ATOM      6  C   UNL     1      -1.749   3.427   8.473  0.00  0.00    +0.016 C 
ATOM      7  C   UNL     1      -2.811   3.467   7.370  0.00  0.00    +0.020 C 
ATOM      8  C   UNL     1      -2.131   3.308   6.008  0.00  0.00    +0.107 C 
ATOM      9  N   UNL     1      -1.159   4.392   5.816  0.00  0.00    -0.309 N 
ATOM     10  C   UNL     1      -0.103   4.346   6.836  0.00  0.00    +0.119 C 
ATOM     11  C   UNL     1      -0.621   4.355   4.546  0.00  0.00    +0.162 A 
ATOM     12  N   UNL     1      -1.241   4.378   3.388  0.00  0.00    -0.224 NA
ATOM     13  C   UNL     1      -0.580   4.335   2.210  0.00  0.00    +0.083 A 
ATOM     14  C   UNL     1      -1.121   4.353   0.904  0.00  0.00    -0.024 A 
ATOM     15  C   UNL     1      -0.302   4.308  -0.194  0.00  0.00    +0.009 A 
ATOM     16  C   UNL     1       1.077   4.233  -0.067  0.00  0.00    -0.049 A 
ATOM     17  C   UNL     1       1.641   4.214   1.196  0.00  0.00    +0.020 A 
ATOM     18  C   UNL     1       0.829   4.264   2.301  0.00  0.00    +0.041 A 
ATOM     19  S   UNL     1       1.096   4.263   4.057  0.00  0.00    -0.052 S 
ATOM     20  C   UNL     1       1.953   4.180  -1.292  0.00  0.00    +0.044 C 
ATOM     21  C   UNL     1      -2.615   4.427   0.718  0.00  0.00    +0.046 C 
ENDBRANCH   2   5
BRANCH   1  22
ATOM     22  C   UNL     1       2.428   5.280  10.265  0.00  0.00    +0.085 C 
BRANCH  22  23
ATOM     23  C   UNL     1       3.456   6.384  10.011  0.00  0.00    -0.059 C 
BRANCH  23  24
ATOM     24  N   UNL     1       4.454   6.366  11.101  0.00  0.00    +0.384 N 
ATOM     25  H   UNL     1       4.815   5.411  11.207  0.00  0.00    -0.081 HD
BRANCH  24  26
ATOM     26  C   UNL     1       5.577   7.270  10.773  0.00  0.00    -0.068 C 
ATOM     27  C   UNL     1       5.073   8.699  10.566  0.00  0.00    -0.015 C 
ATOM     28  C   UNL     1       6.253   9.612  10.227  0.00  0.00    -0.002 C 
ATOM     29  C   UNL     1       6.928   9.119   8.946  0.00  0.00    -0.000 C 
ATOM     30  C   UNL     1       7.433   7.689   9.153  0.00  0.00    -0.002 C 
ATOM     31  C   UNL     1       6.253   6.776   9.492  0.00  0.00    -0.015 C 
ENDBRANCH  24  26
BRANCH  24  32
ATOM     32  C   UNL     1       3.824   6.785  12.370  0.00  0.00    -0.072 C 
ATOM     33  C   UNL     1       2.743   7.836  12.108  0.00  0.00    -0.013 C 
BRANCH  32  35
ATOM     34  C   UNL     1       5.903   6.282  13.661  0.00  0.00    +0.002 C 
ATOM     35  C   UNL     1       4.889   7.370  13.299  0.00  0.00    -0.019 C 
ENDBRANCH  32  35
ENDBRANCH  24  32
ENDBRANCH  23  24
ENDBRANCH  22  23
ENDBRANCH   1  22
TORSDOF 7
