REMARK  Name = ZINC33764336
REMARK  9 active torsions:
REMARK  status: ('A' for Active; 'I' for Inactive)
REMARK    1  A    between atoms: C_1  and  C_2
REMARK    2  A    between atoms: C_5  and  S_8
REMARK    3  A    between atoms: S_8  and  N_11
REMARK    4  A    between atoms: N_13  and  C_31
REMARK    5  A    between atoms: C_16  and  C_19
REMARK    6  A    between atoms: C_19  and  C_20
REMARK    7  A    between atoms: N_22  and  C_23
REMARK    8  A    between atoms: C_26  and  O_29
REMARK    9  A    between atoms: O_29  and  C_30
REMARK                            x       y       z     vdW  Elec       q    Type
REMARK                         _______ _______ _______ _____ _____    ______ ____
ROOT
ATOM      1  N   UNL     1     -10.240  -1.006   4.169  0.00  0.00    -0.106 NA
ATOM      2  C   UNL     1      -9.822  -1.190   2.949  0.00  0.00    +0.185 C 
ATOM      3  N   UNL     1     -10.390  -1.970   1.961  0.00  0.00    -0.245 N 
ATOM      4  C   UNL     1      -9.865  -2.072   0.752  0.00  0.00    +0.235 C 
ATOM      5  O   UNL     1     -10.367  -2.758  -0.113  0.00  0.00    -0.274 OA
ATOM      6  C   UNL     1      -8.591  -1.277   0.514  0.00  0.00    +0.149 C 
ATOM      7  S   UNL     1      -8.380  -0.491   2.160  0.00  0.00    -0.075 S 
ENDROOT
BRANCH   3   8
ATOM      8  C   UNL     1     -11.619  -2.709   2.263  0.00  0.00    +0.083 C 
ATOM      9  C   UNL     1     -11.288  -4.190   2.458  0.00  0.00    +0.023 C 
ATOM     10  C   UNL     1     -12.570  -4.962   2.773  0.00  0.00    +0.002 C 
ATOM     11  C   UNL     1     -13.556  -4.809   1.613  0.00  0.00    +0.000 C 
ATOM     12  C   UNL     1     -13.887  -3.328   1.418  0.00  0.00    +0.002 C 
ATOM     13  C   UNL     1     -12.604  -2.556   1.103  0.00  0.00    +0.023 C 
ENDBRANCH   3   8
BRANCH   1  14
ATOM     14  S   UNL     1     -11.620  -1.756   4.693  0.00  0.00    +0.101 S 
ATOM     15  O   UNL     1     -12.707  -1.096   4.059  0.00  0.00    -0.146 OA
ATOM     16  O   UNL     1     -11.397  -3.154   4.564  0.00  0.00    -0.146 OA
BRANCH  14  21
ATOM     17  C   UNL     1     -12.131  -0.631  10.599  0.00  0.00    +0.044 C 
ATOM     18  C   UNL     1     -12.003  -0.912   9.124  0.00  0.00    -0.050 A 
ATOM     19  C   UNL     1     -12.573  -0.052   8.205  0.00  0.00    +0.005 A 
ATOM     20  C   UNL     1     -12.456  -0.310   6.852  0.00  0.00    +0.029 A 
ATOM     21  C   UNL     1     -11.769  -1.428   6.418  0.00  0.00    +0.113 A 
ATOM     22  C   UNL     1     -11.203  -2.291   7.337  0.00  0.00    +0.029 A 
ATOM     23  C   UNL     1     -11.315  -2.030   8.690  0.00  0.00    +0.005 A 
ENDBRANCH  14  21
ENDBRANCH   1  14
BRANCH   6  24
ATOM     24  C   UNL     1      -7.415  -2.199   0.185  0.00  0.00    +0.120 C 
BRANCH  24  25
ATOM     25  C   UNL     1      -6.164  -1.377   0.018  0.00  0.00    +0.219 C 
ATOM     26  O   UNL     1      -6.208  -0.172   0.150  0.00  0.00    -0.275 OA
ATOM     27  N   UNL     1      -4.995  -1.980  -0.276  0.00  0.00    -0.285 N 
ATOM     28  H   UNL     1      -4.967  -3.065  -0.458  0.00  0.00    +0.155 HD
BRANCH  27  29
ATOM     29  C   UNL     1      -3.817  -1.226  -0.352  0.00  0.00    +0.034 A 
ATOM     30  C   UNL     1      -3.650  -0.114   0.462  0.00  0.00    +0.027 A 
ATOM     31  C   UNL     1      -2.488   0.628   0.387  0.00  0.00    +0.047 A 
ATOM     32  C   UNL     1      -1.488   0.263  -0.501  0.00  0.00    +0.120 A 
ATOM     33  C   UNL     1      -1.655  -0.845  -1.319  0.00  0.00    +0.047 A 
ATOM     34  C   UNL     1      -2.815  -1.591  -1.242  0.00  0.00    +0.027 A 
BRANCH  32  35
ATOM     35  O   UNL     1      -0.344   0.994  -0.574  0.00  0.00    -0.495 OA
ATOM     36  C   UNL     1       0.645   0.561  -1.511  0.00  0.00    +0.277 C 
ENDBRANCH  32  35
ENDBRANCH  27  29
ENDBRANCH  24  25
ENDBRANCH   6  24
TORSDOF 7
