REMARK  Name = ZINC02135408
REMARK  7 active torsions:
REMARK  status: ('A' for Active; 'I' for Inactive)
REMARK    1  A    between atoms: C_1  and  C_2
REMARK    2  A    between atoms: C_17  and  C_19
REMARK    3  A    between atoms: C_19  and  C_20
REMARK    4  A    between atoms: N_25  and  C_28
REMARK    5  A    between atoms: C_28  and  C_29
REMARK    6  A    between atoms: C_32  and  O_35
REMARK    7  A    between atoms: O_35  and  C_36
REMARK                            x       y       z     vdW  Elec       q    Type
REMARK                         _______ _______ _______ _____ _____    ______ ____
ROOT
ATOM      1  C   UNL     1       4.162   4.798  -0.009  0.00  0.00    +0.044 C 
ATOM      2  C   UNL     1       3.099   3.731  -0.006  0.00  0.00    -0.049 A 
ATOM      3  C   UNL     1       1.761   4.085   0.007  0.00  0.00    +0.008 A 
ATOM      4  C   UNL     1       0.789   3.109   0.011  0.00  0.00    -0.026 A 
ATOM      5  C   UNL     1       1.137   1.761   0.001  0.00  0.00    +0.054 A 
ATOM      6  C   UNL     1       2.487   1.413  -0.014  0.00  0.00    +0.063 A 
ATOM      7  C   UNL     1       3.457   2.396  -0.017  0.00  0.00    +0.025 A 
ATOM      8 CL   UNL     1       2.949  -0.260  -0.028  0.00  0.00    -0.082 Cl
ATOM      9  N   UNL     1      -0.011   0.966   0.007  0.00  0.00    -0.285 N 
ATOM     10  C   UNL     1      -1.139   1.702   0.016  0.00  0.00    +0.211 C 
ATOM     11  O   UNL     1      -2.277   1.284   0.019  0.00  0.00    -0.277 OA
ATOM     12  C   UNL     1      -0.713   3.145   0.025  0.00  0.00    +0.050 C 
ATOM     13  C   UNL     1      -1.246   3.885   1.257  0.00  0.00    +0.088 C 
ATOM     14  C   UNL     1      -2.510   4.633   0.749  0.00  0.00    +0.073 C 
ATOM     15  C   UNL     1      -2.626   4.246  -0.741  0.00  0.00    -0.049 C 
ATOM     16  C   UNL     1      -3.645   3.992   1.516  0.00  0.00    +0.224 C 
ATOM     17  O   UNL     1      -4.815   4.296   1.421  0.00  0.00    -0.275 OA
ATOM     18  N   UNL     1      -3.157   3.038   2.317  0.00  0.00    -0.237 N 
ATOM     19  C   UNL     1      -1.830   2.884   2.253  0.00  0.00    +0.225 C 
ATOM     20  O   UNL     1      -1.186   2.078   2.891  0.00  0.00    -0.275 OA
ATOM     21  H   UNL     1       0.002  -0.004   0.002  0.00  0.00    +0.155 HD
ATOM     22  N   UNL     1      -1.263   3.860  -1.113  0.00  0.00    +0.394 N 
ATOM     23  H   UNL     1      -1.280   3.252  -1.940  0.00  0.00    -0.083 HD
ATOM     24  H   UNL     1      -0.700   4.695  -1.314  0.00  0.00    -0.083 HD
ENDROOT
BRANCH  15  25
ATOM     25  C   UNL     1      -3.113   5.440  -1.565  0.00  0.00    +0.080 C 
BRANCH  25  26
ATOM     26  C   UNL     1      -3.263   5.028  -3.007  0.00  0.00    +0.209 C 
ATOM     27  O   UNL     1      -3.006   3.891  -3.342  0.00  0.00    -0.276 OA
ATOM     28  N   UNL     1      -3.683   5.923  -3.923  0.00  0.00    -0.329 N 
ATOM     29  H   UNL     1      -3.888   6.832  -3.655  0.00  0.00    +0.145 HD
ATOM     30  H   UNL     1      -3.779   5.657  -4.851  0.00  0.00    +0.145 HD
ENDBRANCH  25  26
ENDBRANCH  15  25
BRANCH  18  31
ATOM     31  C   UNL     1      -4.007   2.228   3.193  0.00  0.00    +0.151 C 
BRANCH  31  32
ATOM     32  C   UNL     1      -4.460   0.996   2.454  0.00  0.00    -0.029 A 
ATOM     33  C   UNL     1      -5.637   1.020   1.728  0.00  0.00    +0.009 A 
ATOM     34  C   UNL     1      -6.052  -0.107   1.045  0.00  0.00    +0.046 A 
ATOM     35  C   UNL     1      -5.292  -1.267   1.097  0.00  0.00    +0.120 A 
ATOM     36  C   UNL     1      -4.115  -1.290   1.830  0.00  0.00    +0.046 A 
ATOM     37  C   UNL     1      -3.702  -0.159   2.507  0.00  0.00    +0.009 A 
BRANCH  35  38
ATOM     38  O   UNL     1      -5.701  -2.378   0.430  0.00  0.00    -0.495 OA
ATOM     39  C   UNL     1      -6.923  -2.281  -0.305  0.00  0.00    +0.277 C 
ENDBRANCH  35  38
ENDBRANCH  31  32
ENDBRANCH  18  31
TORSDOF 5
