REMARK  Name = ZINC67517226
REMARK  3 active torsions:
REMARK  status: ('A' for Active; 'I' for Inactive)
REMARK    1  A    between atoms: C_1  and  C_2
REMARK    2  A    between atoms: C_15  and  C_17
REMARK    3  A    between atoms: C_17  and  N_18
REMARK                            x       y       z     vdW  Elec       q    Type
REMARK                         _______ _______ _______ _____ _____    ______ ____
ROOT
ATOM      1  C   UNL     1       2.444  -6.261  -0.151  0.00  0.00    +0.213 C 
ENDROOT
BRANCH   1  13
ATOM      2  C   UNL     1      -0.019   1.526   0.010  0.00  0.00    +0.007 C 
ATOM      3  C   UNL     1       0.002  -0.004   0.002  0.00  0.00    -0.014 C 
ATOM      4  C   UNL     1       0.720  -0.498  -1.256  0.00  0.00    +0.005 C 
ATOM      5  C   UNL     1       0.729  -2.028  -1.266  0.00  0.00    +0.023 C 
ATOM      6  C   UNL     1       1.468  -2.548  -0.031  0.00  0.00    +0.079 C 
ATOM      7  C   UNL     1       0.783  -2.026   1.234  0.00  0.00    +0.010 C 
ATOM      8  C   UNL     1       0.744  -0.512   1.240  0.00  0.00    +0.008 C 
ATOM      9  C   UNL     1      -0.646  -2.567   1.298  0.00  0.00    +0.007 C 
ATOM     10  C   UNL     1      -0.608  -4.095   1.374  0.00  0.00    +0.019 C 
ATOM     11  C   UNL     1       0.076  -4.651   0.122  0.00  0.00    +0.108 C 
ATOM     12  N   UNL     1       1.407  -4.019  -0.031  0.00  0.00    -0.297 N 
ATOM     13  C   UNL     1       2.528  -4.756  -0.153  0.00  0.00    +0.234 C 
ATOM     14  O   UNL     1       3.604  -4.209  -0.265  0.00  0.00    -0.274 OA
ENDBRANCH   1  13
BRANCH   1  15
ATOM     15  N   UNL     1       3.788  -6.825  -0.296  0.00  0.00    -0.215 N 
ATOM     16  C   UNL     1       4.368  -7.107  -1.481  0.00  0.00    +0.247 C 
ATOM     17  O   UNL     1       3.895  -6.949  -2.586  0.00  0.00    -0.273 OA
ATOM     18  C   UNL     1       5.732  -7.663  -1.141  0.00  0.00    +0.113 C 
ATOM     19  C   UNL     1       6.827  -6.779  -1.728  0.00  0.00    +0.035 C 
ATOM     20  C   UNL     1       8.199  -7.342  -1.347  0.00  0.00    +0.003 C 
ATOM     21  C   UNL     1       8.330  -8.769  -1.882  0.00  0.00    +0.000 C 
ATOM     22  C   UNL     1       7.240  -9.648  -1.266  0.00  0.00    +0.003 C 
ATOM     23  C   UNL     1       5.864  -9.095  -1.647  0.00  0.00    +0.035 C 
ATOM     24  N   UNL     1       5.775  -7.630   0.327  0.00  0.00    -0.285 N 
ATOM     25  C   UNL     1       4.595  -7.120   0.730  0.00  0.00    +0.310 C 
ATOM     26  O   UNL     1       4.296  -6.949   1.896  0.00  0.00    -0.252 OA
ATOM     27  H   UNL     1       6.508  -7.915   0.893  0.00  0.00    +0.151 HD
ENDBRANCH   1  15
TORSDOF 2
