REMARK  Name = ZINC66434455
REMARK  5 active torsions:
REMARK  status: ('A' for Active; 'I' for Inactive)
REMARK    1  A    between atoms: C_1  and  C_2
REMARK    2  A    between atoms: C_3  and  C_13
REMARK    3  A    between atoms: N_15  and  C_16
REMARK    4  A    between atoms: C_16  and  C_17
REMARK    5  A    between atoms: C_17  and  C_18
REMARK                            x       y       z     vdW  Elec       q    Type
REMARK                         _______ _______ _______ _____ _____    ______ ____
ROOT
ATOM      1  C   UNL     1      -2.509  -0.379   0.012  0.00  0.00    +0.248 C 
ATOM      2  O   UNL     1      -3.096  -0.197  -1.037  0.00  0.00    -0.270 OA
ATOM      3  N   UNL     1      -3.148  -0.190   1.184  0.00  0.00    -0.311 N 
ATOM      4  H   UNL     1      -2.680  -0.335   2.021  0.00  0.00    +0.149 HD
ENDROOT
BRANCH   1   7
ATOM      5  C   UNL     1      -0.018   1.503   0.010  0.00  0.00    +0.087 C 
ATOM      6  C   UNL     1       0.002  -0.004   0.002  0.00  0.00    +0.117 A 
ATOM      7  C   UNL     1      -1.100  -0.804   0.003  0.00  0.00    +0.092 A 
ATOM      8  C   UNL     1      -0.586  -2.183  -0.007  0.00  0.00    +0.116 A 
ATOM      9  C   UNL     1      -1.173  -3.467  -0.011  0.00  0.00    +0.263 A 
ATOM     10  O   UNL     1      -2.384  -3.603  -0.007  0.00  0.00    -0.267 OA
ATOM     11  N   UNL     1      -0.351  -4.542  -0.021  0.00  0.00    -0.313 N 
ATOM     12  H   UNL     1      -0.724  -5.437  -0.024  0.00  0.00    +0.170 HD
ATOM     13  C   UNL     1       0.994  -4.369  -0.026  0.00  0.00    +0.203 A 
ATOM     14  N   UNL     1       1.546  -3.188  -0.022  0.00  0.00    -0.202 NA
ATOM     15  C   UNL     1       0.804  -2.070  -0.013  0.00  0.00    +0.235 A 
ATOM     16  O   UNL     1       1.107  -0.761  -0.013  0.00  0.00    -0.441 OA
ENDBRANCH   1   7
BRANCH   3  17
ATOM     17  C   UNL     1      -4.551   0.234   1.193  0.00  0.00    +0.110 C 
BRANCH  17  18
ATOM     18  C   UNL     1      -5.032   0.373   2.639  0.00  0.00    +0.073 C 
BRANCH  18  19
ATOM     19  C   UNL     1      -6.474   0.809   2.648  0.00  0.00    +0.035 A 
ATOM     20  C   UNL     1      -6.932   2.072   2.557  0.00  0.00    +0.105 A 
ATOM     21  N   UNL     1      -8.272   2.032   2.603  0.00  0.00    -0.352 N 
ATOM     22  C   UNL     1      -8.662   0.792   2.719  0.00  0.00    +0.171 A 
ATOM     23  N   UNL     1      -7.572  -0.004   2.745  0.00  0.00    -0.350 N 
ATOM     24  H   UNL     1      -7.566  -0.971   2.820  0.00  0.00    +0.166 HD
ATOM     25  H   UNL     1      -8.859   2.803   2.558  0.00  0.00    +0.166 HD
ENDBRANCH  18  19
ENDBRANCH  17  18
ENDBRANCH   3  17
TORSDOF 4
