REMARK  Name = ZINC49150374
REMARK  9 active torsions:
REMARK  status: ('A' for Active; 'I' for Inactive)
REMARK    1  A    between atoms: C_1  and  C_2
REMARK    2  A    between atoms: C_4  and  S_10
REMARK    3  A    between atoms: C_6  and  N_9
REMARK    4  A    between atoms: C_7  and  C_8
REMARK    5  A    between atoms: S_10  and  N_13
REMARK    6  A    between atoms: N_13  and  C_14
REMARK    7  A    between atoms: C_14  and  C_16
REMARK    8  A    between atoms: C_14  and  C_17
REMARK    9  A    between atoms: C_17  and  N_18
REMARK                            x       y       z     vdW  Elec       q    Type
REMARK                         _______ _______ _______ _____ _____    ______ ____
ROOT
ATOM      1  S   UNL     1       0.027  -2.937  -2.746  0.00  0.00    +0.059 S 
ATOM      2  O   UNL     1      -0.505  -4.229  -2.485  0.00  0.00    -0.153 OA
ATOM      3  O   UNL     1      -0.540  -2.060  -3.709  0.00  0.00    -0.153 OA
ENDROOT
BRANCH   1   7
ATOM      4  C   UNL     1      -0.018   1.503   0.010  0.00  0.00    +0.044 C 
ATOM      5  C   UNL     1       0.002  -0.004   0.002  0.00  0.00    -0.044 A 
ATOM      6  C   UNL     1       0.006  -0.688  -1.200  0.00  0.00    +0.032 A 
ATOM      7  C   UNL     1       0.024  -2.071  -1.212  0.00  0.00    +0.107 A 
ATOM      8  C   UNL     1       0.039  -2.773  -0.023  0.00  0.00    +0.051 A 
ATOM      9  C   UNL     1       0.036  -2.089   1.186  0.00  0.00    +0.030 A 
ATOM     10  C   UNL     1       0.023  -0.700   1.194  0.00  0.00    -0.027 A 
ATOM     11  C   UNL     1       0.025   0.046   2.504  0.00  0.00    +0.046 C 
BRANCH   9  12
ATOM     12  N   UNL     1       0.051  -2.796   2.390  0.00  0.00    -0.358 N 
ATOM     13  H   UNL     1       0.064  -3.766   2.383  0.00  0.00    +0.142 HD
ATOM     14  H   UNL     1       0.049  -2.318   3.234  0.00  0.00    +0.142 HD
ENDBRANCH   9  12
ENDBRANCH   1   7
BRANCH   1  15
ATOM     15  N   UNL     1       1.610  -3.157  -3.181  0.00  0.00    -0.189 NA
ATOM     16  H   UNL     1       1.959  -2.727  -3.977  0.00  0.00    +0.148 HD
BRANCH  15  17
ATOM     17  C   UNL     1       2.484  -4.001  -2.363  0.00  0.00    +0.057 C 
ATOM     18  C   UNL     1       2.510  -5.418  -2.939  0.00  0.00    +0.024 C 
BRANCH  17  19
ATOM     19  C   UNL     1       3.901  -3.424  -2.366  0.00  0.00    -0.059 C 
BRANCH  19  20
ATOM     20  N   UNL     1       3.859  -2.023  -1.926  0.00  0.00    +0.381 N 
ATOM     21  C   UNL     1       3.500  -1.949  -0.486  0.00  0.00    -0.079 C 
ATOM     22  C   UNL     1       4.037  -0.561  -0.058  0.00  0.00    -0.020 C 
ATOM     23  C   UNL     1       5.356  -0.439  -0.855  0.00  0.00    -0.020 C 
ATOM     24  C   UNL     1       5.202  -1.413  -2.038  0.00  0.00    -0.079 C 
ATOM     25  H   UNL     1       3.194  -1.503  -2.479  0.00  0.00    -0.082 HD
ENDBRANCH  19  20
ENDBRANCH  17  19
ENDBRANCH  15  17
ENDBRANCH   1  15
TORSDOF 6
