REMARK  Name = ZINC35367821
REMARK  3 active torsions:
REMARK  status: ('A' for Active; 'I' for Inactive)
REMARK    1  A    between atoms: C_1  and  C_2
REMARK    2  A    between atoms: C_5  and  C_7
REMARK    3  A    between atoms: C_18  and  N_21
REMARK                            x       y       z     vdW  Elec       q    Type
REMARK                         _______ _______ _______ _____ _____    ______ ____
ROOT
ATOM      1  C   UNL     1       0.136  -1.992   1.647  0.00  0.00    +0.219 C 
ATOM      2  O   UNL     1      -0.840  -2.456   1.098  0.00  0.00    -0.275 OA
ATOM      3  N   UNL     1       0.713  -2.654   2.669  0.00  0.00    -0.298 N 
ATOM      4  C   UNL     1       1.894  -2.101   3.348  0.00  0.00    +0.126 C 
ATOM      5  C   UNL     1       1.595  -2.003   4.849  0.00  0.00    +0.125 C 
ATOM      6  N   UNL     1       1.055  -3.292   5.305  0.00  0.00    -0.314 N 
ATOM      7  C   UNL     1      -0.125  -3.845   4.627  0.00  0.00    +0.125 C 
ATOM      8  C   UNL     1       0.170  -3.940   3.129  0.00  0.00    +0.126 C 
ATOM      9  C   UNL     1       1.652  -3.976   6.362  0.00  0.00    +0.099 A 
ATOM     10  C   UNL     1       2.839  -3.499   6.907  0.00  0.00    +0.043 A 
ATOM     11  C   UNL     1       3.423  -4.186   7.956  0.00  0.00    +0.027 A 
ATOM     12  C   UNL     1       2.794  -5.337   8.428  0.00  0.00    +0.041 A 
ATOM     13  C   UNL     1       1.612  -5.753   7.835  0.00  0.00    +0.106 A 
ATOM     14  N   UNL     1       1.080  -5.070   6.839  0.00  0.00    -0.348 N 
ATOM     15  H   UNL     1       0.250  -5.380   6.443  0.00  0.00    +0.167 HD
ENDROOT
BRANCH   1  19
ATOM     16  C   UNL     1      -0.042   1.557   0.044  0.00  0.00    +0.008 C 
ATOM     17  C   UNL     1       0.004   0.028   0.022  0.00  0.00    -0.002 C 
ATOM     18  C   UNL     1       1.367  -0.634  -0.193  0.00  0.00    +0.017 C 
ATOM     19  C   UNL     1       0.704  -0.674   1.187  0.00  0.00    +0.078 C 
ENDBRANCH   1  19
BRANCH  12  20
ATOM     20  N   UNL     1       3.349  -6.064   9.488  0.00  0.00    -0.357 N 
ATOM     21  H   UNL     1       4.177  -5.768   9.898  0.00  0.00    +0.142 HD
ATOM     22  H   UNL     1       2.907  -6.864   9.812  0.00  0.00    +0.142 HD
ENDBRANCH  12  20
TORSDOF 2
