REMARK  Name = ZINC39711815
REMARK  10 active torsions:
REMARK  status: ('A' for Active; 'I' for Inactive)
REMARK    1  A    between atoms: C_1  and  C_2
REMARK    2  A    between atoms: C_2  and  C_3
REMARK    3  A    between atoms: C_8  and  C_12
REMARK    4  A    between atoms: C_12  and  C_14
REMARK    5  A    between atoms: C_14  and  S_15
REMARK    6  A    between atoms: S_15  and  C_16
REMARK    7  A    between atoms: C_20  and  C_27
REMARK    8  A    between atoms: N_22  and  C_23
REMARK    9  A    between atoms: C_23  and  C_24
REMARK   10  A    between atoms: C_31  and  C_33
REMARK                            x       y       z     vdW  Elec       q    Type
REMARK                         _______ _______ _______ _____ _____    ______ ____
ROOT
ATOM      1  C   UNL     1      -1.505  -2.302   9.923  0.00  0.00    +0.078 C 
ATOM      2  N   UNL     1      -2.663  -3.076   9.403  0.00  0.00    -0.262 NA
ATOM      3  N   UNL     1      -3.833  -2.441  10.015  0.00  0.00    -0.267 NA
ATOM      4  C   UNL     1      -3.439  -1.060  10.363  0.00  0.00    +0.050 C 
ATOM      5  N   UNL     1      -2.022  -0.908   9.953  0.00  0.00    +0.417 N 
ATOM      6  H   UNL     1      -2.598  -4.047   9.670  0.00  0.00    +0.140 HD
ATOM      7  H   UNL     1      -4.133  -2.948  10.834  0.00  0.00    +0.139 HD
ATOM      8  H   UNL     1      -1.963  -0.489   9.037  0.00  0.00    -0.074 HD
ENDROOT
BRANCH   4   9
ATOM      9  C   UNL     1      -4.304  -0.074   9.621  0.00  0.00    -0.046 A 
ATOM     10  C   UNL     1      -3.786   1.151   9.242  0.00  0.00    +0.003 A 
ATOM     11  C   UNL     1      -4.579   2.055   8.561  0.00  0.00    +0.001 A 
ATOM     12  C   UNL     1      -5.890   1.735   8.259  0.00  0.00    +0.003 A 
ATOM     13  C   UNL     1      -6.407   0.510   8.637  0.00  0.00    -0.050 A 
ATOM     14  C   UNL     1      -5.612  -0.396   9.314  0.00  0.00    +0.006 A 
ATOM     15  C   UNL     1      -7.836   0.162   8.308  0.00  0.00    +0.044 C 
ENDBRANCH   4   9
BRANCH   1  16
ATOM     16  S   UNL     1      -0.086  -2.437   8.802  0.00  0.00    -0.152 S 
BRANCH  16  17
ATOM     17  C   UNL     1      -0.732  -1.865   7.206  0.00  0.00    +0.148 C 
BRANCH  17  18
ATOM     18  C   UNL     1       0.361  -1.927   6.170  0.00  0.00    +0.171 C 
ATOM     19  O   UNL     1       1.468  -2.320   6.479  0.00  0.00    -0.291 OA
BRANCH  18  25
ATOM     20  C   UNL     1       1.035  -0.945   1.319  0.00  0.00    -0.024 A 
ATOM     21  C   UNL     1       2.333  -1.317   1.313  0.00  0.00    +0.005 A 
ATOM     22  C   UNL     1       2.978  -1.782   2.470  0.00  0.00    +0.001 A 
ATOM     23  C   UNL     1       2.346  -1.888   3.661  0.00  0.00    +0.010 A 
ATOM     24  C   UNL     1       0.984  -1.526   3.780  0.00  0.00    +0.006 A 
ATOM     25  C   UNL     1       0.099  -1.529   4.842  0.00  0.00    +0.024 C 
ATOM     26  C   UNL     1      -1.211  -1.018   4.282  0.00  0.00    +0.152 C 
ATOM     27  N   UNL     1      -0.966  -0.745   2.863  0.00  0.00    -0.380 N 
ATOM     28  C   UNL     1       0.274  -1.024   2.577  0.00  0.00    +0.046 A 
ATOM     29  H   UNL     1      -1.623  -0.405   2.236  0.00  0.00    +0.160 HD
BRANCH  20  31
ATOM     30  C   UNL     1       0.437   1.077   0.015  0.00  0.00    +0.009 C 
ATOM     31  C   UNL     1       0.376  -0.451   0.057  0.00  0.00    +0.034 C 
ENDBRANCH  20  31
ENDBRANCH  18  25
ENDBRANCH  17  18
ENDBRANCH  16  17
ENDBRANCH   1  16
BRANCH   5  32
ATOM     32  C   UNL     1      -1.282  -0.105  10.936  0.00  0.00    +0.055 C 
BRANCH  32  33
ATOM     33  C   UNL     1      -1.462  -0.701  12.309  0.00  0.00    +0.340 C 
ATOM     34  O   UNL     1      -2.060  -1.755  12.442  0.00  0.00    -0.249 OA
ATOM     35  O   UNL     1      -1.009  -0.129  13.286  0.00  0.00    -0.249 OA
ENDBRANCH  32  33
ENDBRANCH   5  32
TORSDOF 8
