REMARK  Name = ZINC37873826
REMARK  5 active torsions:
REMARK  status: ('A' for Active; 'I' for Inactive)
REMARK    1  A    between atoms: C_4  and  C_8
REMARK    2  A    between atoms: C_8  and  C_10
REMARK    3  A    between atoms: C_8  and  O_20
REMARK    4  A    between atoms: C_10  and  N_11
REMARK    5  A    between atoms: N_11  and  C_12
REMARK                            x       y       z     vdW  Elec       q    Type
REMARK                         _______ _______ _______ _____ _____    ______ ____
ROOT
ATOM      1  C   UNL     1       3.712  -0.708  -0.037  0.00  0.00    +0.129 C 
ENDROOT
BRANCH   1   5
ATOM      2  C   UNL     1      -0.017   1.379   0.010  0.00  0.00    +0.021 A 
ATOM      3  C   UNL     1       1.171   2.086   0.002  0.00  0.00    +0.022 A 
ATOM      4  C   UNL     1       2.378   1.411  -0.013  0.00  0.00    +0.047 A 
ATOM      5  C   UNL     1       2.397   0.028  -0.021  0.00  0.00    -0.001 A 
ATOM      6  C   UNL     1       1.210  -0.680  -0.013  0.00  0.00    +0.027 A 
ATOM      7  C   UNL     1       0.002  -0.004   0.002  0.00  0.00    +0.041 A 
ATOM      8 CL   UNL     1      -1.489  -0.892   0.012  0.00  0.00    -0.084 Cl
ATOM      9 CL   UNL     1       3.869   2.300  -0.023  0.00  0.00    -0.083 Cl
ENDBRANCH   1   5
BRANCH   1  10
ATOM     10  O   UNL     1       3.537  -2.009   0.527  0.00  0.00    -0.389 OA
ATOM     11  H   UNL     1       2.896  -2.559   0.056  0.00  0.00    +0.210 HD
ENDBRANCH   1  10
BRANCH   1  12
ATOM     12  C   UNL     1       4.204  -0.840  -1.480  0.00  0.00    -0.046 C 
BRANCH  12  13
ATOM     13  N   UNL     1       5.486  -1.557  -1.497  0.00  0.00    +0.384 N 
ATOM     14  H   UNL     1       6.165  -1.044  -0.955  0.00  0.00    -0.085 HD
ATOM     15  H   UNL     1       5.363  -2.476  -1.098  0.00  0.00    -0.085 HD
BRANCH  13  16
ATOM     16  C   UNL     1       5.959  -1.683  -2.882  0.00  0.00    -0.049 C 
ATOM     17  C   UNL     1       5.009  -2.597  -3.674  0.00  0.00    +0.008 C 
ATOM     18  C   UNL     1       5.658  -2.993  -5.021  0.00  0.00    +0.164 C 
ATOM     19  S   UNL     1       7.456  -2.921  -4.640  0.00  0.00    -0.033 S 
ATOM     20  O   UNL     1       8.059  -1.915  -5.443  0.00  0.00    -0.174 OA
ATOM     21  O   UNL     1       7.986  -4.239  -4.655  0.00  0.00    -0.174 OA
ATOM     22  C   UNL     1       7.374  -2.327  -2.897  0.00  0.00    +0.150 C 
ENDBRANCH  13  16
ENDBRANCH  12  13
ENDBRANCH   1  12
TORSDOF 5
