REMARK  Name = ZINC04845073
REMARK  8 active torsions:
REMARK  status: ('A' for Active; 'I' for Inactive)
REMARK    1  A    between atoms: C_1  and  C_2
REMARK    2  A    between atoms: C_8  and  C_9
REMARK    3  A    between atoms: C_8  and  N_59
REMARK    4  A    between atoms: N_11  and  C_12
REMARK    5  A    between atoms: C_13  and  C_20
REMARK    6  A    between atoms: N_22  and  C_23
REMARK    7  A    between atoms: C_26  and  O_29
REMARK    8  A    between atoms: O_29  and  C_30
REMARK                            x       y       z     vdW  Elec       q    Type
REMARK                         _______ _______ _______ _____ _____    ______ ____
ROOT
ATOM      1  C   UNL     1      -1.536   1.203  -5.901  0.00  0.00    +0.084 A 
ATOM      2  C   UNL     1      -1.363   0.851  -7.228  0.00  0.00    +0.069 A 
ATOM      3  C   UNL     1      -2.387   1.279  -8.181  0.00  0.00    -0.023 A 
ATOM      4  C   UNL     1      -3.402   1.984  -7.651  0.00  0.00    -0.004 A 
ATOM      5  S   UNL     1      -3.030   2.078  -5.917  0.00  0.00    -0.077 S 
ATOM      6  C   UNL     1      -4.411   2.390  -8.691  0.00  0.00    +0.043 C 
ATOM      7  C   UNL     1      -3.675   2.212 -10.037  0.00  0.00    +0.010 C 
ATOM      8  C   UNL     1      -2.630   1.135  -9.684  0.00  0.00    +0.037 C 
ENDROOT
BRANCH   1  11
ATOM      9  C   UNL     1      -1.051   1.350  -3.587  0.00  0.00    +0.201 C 
ATOM     10  O   UNL     1      -2.070   1.986  -3.424  0.00  0.00    -0.278 OA
ATOM     11  N   UNL     1      -0.715   0.919  -4.819  0.00  0.00    -0.281 N 
ATOM     12  H   UNL     1       0.100   0.411  -4.950  0.00  0.00    +0.155 HD
BRANCH   9  13
ATOM     13  C   UNL     1      -0.159   1.042  -2.412  0.00  0.00    +0.019 C 
BRANCH  13  20
ATOM     14  C   UNL     1      -0.001   1.162   2.502  0.00  0.00    +0.005 C 
ATOM     15  C   UNL     1      -0.752   1.640   1.257  0.00  0.00    -0.031 C 
ATOM     16  C   UNL     1      -0.791   3.171   1.241  0.00  0.00    -0.001 C 
ATOM     17  C   UNL     1      -1.491   3.642  -0.037  0.00  0.00    -0.018 C 
ATOM     18  C   UNL     1      -0.750   3.083  -1.254  0.00  0.00    -0.078 C 
ATOM     19  C   UNL     1      -0.032   1.140   0.003  0.00  0.00    -0.075 C 
ATOM     20  N   UNL     1      -0.768   1.606  -1.191  0.00  0.00    +0.386 N 
ATOM     21  H   UNL     1      -1.742   1.288  -1.127  0.00  0.00    -0.081 HD
ENDBRANCH  13  20
ENDBRANCH   9  13
ENDBRANCH   1  11
BRANCH   2  22
ATOM     22  C   UNL     1      -0.196   0.078  -7.663  0.00  0.00    +0.251 C 
ATOM     23  O   UNL     1      -0.242  -1.139  -7.675  0.00  0.00    -0.270 OA
ATOM     24  N   UNL     1       0.928   0.713  -8.049  0.00  0.00    -0.281 N 
ATOM     25  H   UNL     1       0.943   1.682  -8.103  0.00  0.00    +0.155 HD
BRANCH  24  26
ATOM     26  C   UNL     1       2.074  -0.025  -8.372  0.00  0.00    +0.034 A 
ATOM     27  C   UNL     1       3.332   0.481  -8.072  0.00  0.00    +0.027 A 
ATOM     28  C   UNL     1       4.462  -0.250  -8.386  0.00  0.00    +0.047 A 
ATOM     29  C   UNL     1       4.340  -1.483  -9.010  0.00  0.00    +0.120 A 
ATOM     30  C   UNL     1       3.083  -1.986  -9.314  0.00  0.00    +0.047 A 
ATOM     31  C   UNL     1       1.953  -1.259  -8.996  0.00  0.00    +0.027 A 
BRANCH  29  32
ATOM     32  O   UNL     1       5.452  -2.199  -9.323  0.00  0.00    -0.495 OA
ATOM     33  C   UNL     1       6.713  -1.621  -8.982  0.00  0.00    +0.277 C 
ENDBRANCH  29  32
ENDBRANCH  24  26
ENDBRANCH   2  22
TORSDOF 6
