REMARK  Name = ZINC39467578
REMARK  6 active torsions:
REMARK  status: ('A' for Active; 'I' for Inactive)
REMARK    1  A    between atoms: C_4  and  O_7
REMARK    2  A    between atoms: O_7  and  S_8
REMARK    3  A    between atoms: S_8  and  C_11
REMARK    4  A    between atoms: P_20  and  C_30
REMARK    5  A    between atoms: C_28  and  O_29
REMARK    6  A    between atoms: C_35  and  O_36
REMARK                            x       y       z     vdW  Elec       q    Type
REMARK                         _______ _______ _______ _____ _____    ______ ____
ROOT
ATOM      1  C   UNL     1       3.192  -2.273   2.002  0.00  0.00    +0.165 C 
ATOM      2  C   UNL     1       3.740  -3.477   2.150  0.00  0.00    +0.011 C 
ATOM      3  C   UNL     1       2.912  -4.606   2.701  0.00  0.00    +0.018 C 
ATOM      4  C   UNL     1       3.490  -5.950   2.277  0.00  0.00    -0.003 C 
ATOM      5  C   UNL     1       3.405  -6.122   0.756  0.00  0.00    -0.020 C 
ATOM      6  C   UNL     1       3.980  -7.505   0.426  0.00  0.00    +0.157 C 
ATOM      7  O   UNL     1       3.970  -7.704  -0.999  0.00  0.00    -0.316 OA
ATOM      8  P   UNL     1       2.578  -7.415  -1.791  0.00  0.00    +0.291 P 
ATOM      9  O   UNL     1       1.661  -8.568  -1.655  0.00  0.00    -0.269 OA
ATOM     10  N   UNL     1       1.935  -6.082  -1.061  0.00  0.00    -0.288 NA
ATOM     11  N   UNL     1       2.013  -6.004   0.314  0.00  0.00    +0.398 N 
ATOM     12  C   UNL     1       1.472  -4.684   0.673  0.00  0.00    -0.046 C 
ATOM     13  C   UNL     1       1.478  -4.495   2.174  0.00  0.00    +0.008 C 
ATOM     14  C   UNL     1       0.957  -3.108   2.473  0.00  0.00    +0.023 C 
ATOM     15  C   UNL     1       1.786  -2.062   2.397  0.00  0.00    +0.141 C 
ATOM     16  H   UNL     1       1.515  -5.379  -1.582  0.00  0.00    +0.111 HD
ATOM     17  H   UNL     1       1.460  -6.737   0.731  0.00  0.00    -0.055 HD
ENDROOT
BRANCH   8  18
ATOM     18  C   UNL     1       2.909  -7.079  -3.543  0.00  0.00    +0.091 A 
ATOM     19  C   UNL     1       3.146  -5.785  -3.966  0.00  0.00    +0.018 A 
ATOM     20  C   UNL     1       3.398  -5.528  -5.301  0.00  0.00    +0.001 A 
ATOM     21  C   UNL     1       3.415  -6.565  -6.216  0.00  0.00    +0.004 A 
ATOM     22  C   UNL     1       3.180  -7.860  -5.798  0.00  0.00    +0.046 A 
ATOM     23  C   UNL     1       2.932  -8.121  -4.457  0.00  0.00    +0.131 A 
BRANCH  23  24
ATOM     24  O   UNL     1       2.706  -9.395  -4.043  0.00  0.00    -0.506 OA
ATOM     25  H   UNL     1       1.775  -9.657  -4.066  0.00  0.00    +0.292 HD
ENDBRANCH  23  24
ENDBRANCH   8  18
BRANCH   1  26
ATOM     26  S   UNL     1       4.140  -0.941   1.346  0.00  0.00    +0.154 S 
ATOM     27  O   UNL     1       5.458  -1.436   1.154  0.00  0.00    -0.131 OA
ATOM     28  O   UNL     1       3.863   0.192   2.158  0.00  0.00    -0.131 OA
BRANCH  26  29
ATOM     29  O   UNL     1       3.586  -0.632  -0.037  0.00  0.00    -0.342 OA
BRANCH  29  33
ATOM     30  C   UNL     1      -0.017   1.378   0.010  0.00  0.00    +0.000 A 
ATOM     31  C   UNL     1       1.170   2.088   0.002  0.00  0.00    +0.004 A 
ATOM     32  C   UNL     1       2.377   1.417  -0.013  0.00  0.00    +0.048 A 
ATOM     33  C   UNL     1       2.399   0.030  -0.021  0.00  0.00    +0.157 A 
ATOM     34  C   UNL     1       1.207  -0.680  -0.013  0.00  0.00    +0.048 A 
ATOM     35  C   UNL     1       0.002  -0.004   0.002  0.00  0.00    +0.004 A 
ENDBRANCH  29  33
ENDBRANCH  26  29
ENDBRANCH   1  26
BRANCH  15  36
ATOM     36  O   UNL     1       1.336  -0.811   2.677  0.00  0.00    -0.505 OA
ATOM     37  H   UNL     1       0.403  -0.775   2.926  0.00  0.00    +0.292 HD
ENDBRANCH  15  36
TORSDOF 6
