REMARK  Name = ZINC55211767
REMARK  11 active torsions:
REMARK  status: ('A' for Active; 'I' for Inactive)
REMARK    1  A    between atoms: C_1  and  C_2
REMARK    2  A    between atoms: C_2  and  N_3
REMARK    3  A    between atoms: N_3  and  C_4
REMARK    4  A    between atoms: N_3  and  C_5
REMARK    5  A    between atoms: C_5  and  C_11
REMARK    6  A    between atoms: C_11  and  N_12
REMARK    7  A    between atoms: N_12  and  C_13
REMARK    8  A    between atoms: C_13  and  C_14
REMARK    9  A    between atoms: N_16  and  C_23
REMARK   10  A    between atoms: C_23  and  C_24
REMARK   11  A    between atoms: C_24  and  C_25
REMARK                            x       y       z     vdW  Elec       q    Type
REMARK                         _______ _______ _______ _____ _____    ______ ____
ROOT
ATOM      1  C   UNL     1      -2.913  -2.191  -2.560  0.00  0.00    -0.045 C 
ENDROOT
BRANCH   1   2
ATOM      2  C   UNL     1      -3.568  -1.592  -3.778  0.00  0.00    -0.039 A 
ATOM      3  C   UNL     1      -4.340  -0.494  -3.811  0.00  0.00    +0.088 A 
ATOM      4  N   UNL     1      -4.756  -0.255  -5.092  0.00  0.00    -0.346 N 
ATOM      5  C   UNL     1      -4.250  -1.218  -5.936  0.00  0.00    +0.049 A 
ATOM      6  C   UNL     1      -3.478  -2.094  -5.151  0.00  0.00    +0.001 A 
ATOM      7  C   UNL     1      -2.831  -3.178  -5.748  0.00  0.00    +0.010 A 
ATOM      8  C   UNL     1      -2.948  -3.380  -7.094  0.00  0.00    +0.001 A 
ATOM      9  C   UNL     1      -3.704  -2.516  -7.874  0.00  0.00    +0.002 A 
ATOM     10  C   UNL     1      -4.359  -1.446  -7.304  0.00  0.00    +0.026 A 
BRANCH   4  11
ATOM     11  C   UNL     1      -5.613   0.859  -5.505  0.00  0.00    +0.131 C 
BRANCH  11  12
ATOM     12  C   UNL     1      -7.071   0.395  -5.539  0.00  0.00    +0.117 C 
BRANCH  12  13
ATOM     13  C   UNL     1      -7.953   1.542  -5.963  0.00  0.00    +0.212 C 
ATOM     14  O   UNL     1      -7.463   2.623  -6.213  0.00  0.00    -0.276 OA
ATOM     15  N   UNL     1      -9.285   1.365  -6.065  0.00  0.00    -0.329 N 
ATOM     16  H   UNL     1      -9.676   0.501  -5.865  0.00  0.00    +0.145 HD
ATOM     17  H   UNL     1      -9.852   2.103  -6.338  0.00  0.00    +0.145 HD
ENDBRANCH  12  13
ENDBRANCH  11  12
ENDBRANCH   4  11
ENDBRANCH   1   2
BRANCH   1  18
ATOM     18  N   UNL     1      -1.502  -1.784  -2.512  0.00  0.00    +0.381 N 
ATOM     19  H   UNL     1      -1.444  -0.777  -2.465  0.00  0.00    -0.086 HD
ATOM     20  H   UNL     1      -1.030  -2.109  -3.342  0.00  0.00    -0.086 HD
BRANCH  18  21
ATOM     21  C   UNL     1      -0.864  -2.367  -1.325  0.00  0.00    -0.094 C 
BRANCH  21  22
ATOM     22  C   UNL     1       0.605  -1.943  -1.276  0.00  0.00    -0.082 C 
ATOM     23  C   UNL     1       1.270  -2.551  -0.039  0.00  0.00    -0.014 C 
ATOM     24  C   UNL     1       1.183  -4.077  -0.111  0.00  0.00    -0.001 C 
ATOM     25  C   UNL     1       1.899  -4.570  -1.370  0.00  0.00    -0.000 C 
ATOM     26  C   UNL     1       1.234  -3.962  -2.606  0.00  0.00    -0.001 C 
ATOM     27  C   UNL     1       1.321  -2.436  -2.534  0.00  0.00    -0.014 C 
BRANCH  22  28
ATOM     28  N   UNL     1       0.690  -0.478  -1.207  0.00  0.00    +0.380 N 
ATOM     29  C   UNL     1       2.100  -0.070  -1.159  0.00  0.00    -0.095 C 
ATOM     30  H   UNL     1       0.251  -0.077  -2.022  0.00  0.00    -0.082 HD
BRANCH  28  32
ATOM     31  C   UNL     1      -0.019   1.526   0.010  0.00  0.00    -0.017 C 
ATOM     32  C   UNL     1       0.002  -0.004   0.002  0.00  0.00    -0.082 C 
ENDBRANCH  28  32
ENDBRANCH  22  28
ENDBRANCH  21  22
ENDBRANCH  18  21
ENDBRANCH   1  18
TORSDOF 9
