REMARK  Name = ZINC64055447
REMARK  13 active torsions:
REMARK  status: ('A' for Active; 'I' for Inactive)
REMARK    1  A    between atoms: C_1  and  C_2
REMARK    2  A    between atoms: C_2  and  C_3
REMARK    3  A    between atoms: C_3  and  C_4
REMARK    4  A    between atoms: C_4  and  C_5
REMARK    5  A    between atoms: C_5  and  C_6
REMARK    6  A    between atoms: C_6  and  N_7
REMARK    7  A    between atoms: C_8  and  S_22
REMARK    8  A    between atoms: C_12  and  C_13
REMARK    9  A    between atoms: S_22  and  C_23
REMARK   10  A    between atoms: C_23  and  C_25
REMARK   11  A    between atoms: C_23  and  C_26
REMARK   12  A    between atoms: N_31  and  C_32
REMARK   13  A    between atoms: C_32  and  C_33
REMARK                            x       y       z     vdW  Elec       q    Type
REMARK                         _______ _______ _______ _____ _____    ______ ____
ROOT
ATOM      1  N   UNL     1      -4.271  -4.754   0.130  0.00  0.00    -0.286 N 
ATOM      2  C   UNL     1      -4.959  -4.920   1.421  0.00  0.00    +0.237 C 
ATOM      3  N   UNL     1      -6.285  -5.448   1.060  0.00  0.00    -0.237 N 
ATOM      4  N   UNL     1      -6.304  -5.556  -0.335  0.00  0.00    -0.169 NA
ATOM      5  C   UNL     1      -5.173  -5.160  -0.857  0.00  0.00    +0.147 C 
ATOM      6  H   UNL     1      -7.004  -5.677   1.670  0.00  0.00    +0.171 HD
ENDROOT
BRANCH   5   7
ATOM      7  C   UNL     1      -4.898  -5.148  -2.233  0.00  0.00    +0.022 C 
ATOM      8  C   UNL     1      -5.752  -5.533  -3.267  0.00  0.00    +0.006 A 
ATOM      9  C   UNL     1      -7.074  -6.026  -3.278  0.00  0.00    +0.010 A 
ATOM     10  C   UNL     1      -7.671  -6.326  -4.460  0.00  0.00    +0.001 A 
ATOM     11  C   UNL     1      -7.008  -6.159  -5.678  0.00  0.00    +0.002 A 
ATOM     12  C   UNL     1      -5.738  -5.690  -5.742  0.00  0.00    +0.026 A 
ATOM     13  C   UNL     1      -5.048  -5.355  -4.548  0.00  0.00    +0.043 A 
ATOM     14  N   UNL     1      -3.832  -4.889  -4.345  0.00  0.00    -0.380 N 
ATOM     15  C   UNL     1      -3.617  -4.708  -2.906  0.00  0.00    +0.152 C 
ATOM     16  H   UNL     1      -3.183  -4.693  -5.038  0.00  0.00    +0.160 HD
ENDBRANCH   5   7
BRANCH   1  17
ATOM     17  C   UNL     1      -2.911  -4.253  -0.079  0.00  0.00    +0.109 C 
BRANCH  17  18
ATOM     18  C   UNL     1      -2.957  -2.748  -0.352  0.00  0.00    +0.019 C 
BRANCH  18  19
ATOM     19  C   UNL     1      -1.552  -2.249  -0.696  0.00  0.00    +0.002 C 
BRANCH  19  20
ATOM     20  C   UNL     1      -1.599  -0.744  -0.969  0.00  0.00    -0.000 C 
BRANCH  20  22
ATOM     21  C   UNL     1      -0.240   1.260  -1.585  0.00  0.00    +0.004 C 
ATOM     22  C   UNL     1      -0.194  -0.245  -1.313  0.00  0.00    -0.003 C 
ENDBRANCH  20  22
ENDBRANCH  19  20
ENDBRANCH  18  19
ENDBRANCH  17  18
ENDBRANCH   1  17
BRANCH   2  23
ATOM     23  S   UNL     1      -5.116  -3.324   2.267  0.00  0.00    -0.106 S 
BRANCH  23  24
ATOM     24  C   UNL     1      -5.498  -3.772   3.983  0.00  0.00    +0.133 C 
ATOM     25  C   UNL     1      -6.893  -4.397   4.049  0.00  0.00    +0.029 C 
BRANCH  24  26
ATOM     26  C   UNL     1      -5.460  -2.537   4.846  0.00  0.00    +0.233 C 
ATOM     27  O   UNL     1      -5.655  -1.446   4.352  0.00  0.00    -0.274 OA
ATOM     28  N   UNL     1      -5.208  -2.643   6.165  0.00  0.00    -0.239 N 
ATOM     29  C   UNL     1      -5.175  -1.538   6.936  0.00  0.00    +0.306 C 
ATOM     30  O   UNL     1      -5.371  -0.446   6.441  0.00  0.00    -0.252 OA
ATOM     31  N   UNL     1      -4.923  -1.645   8.256  0.00  0.00    -0.299 N 
ATOM     32  H   UNL     1      -5.052  -3.515   6.560  0.00  0.00    +0.159 HD
ATOM     33  H   UNL     1      -4.767  -2.517   8.651  0.00  0.00    +0.150 HD
BRANCH  31  34
ATOM     34  C   UNL     1      -4.886  -0.444   9.094  0.00  0.00    +0.102 C 
ATOM     35  C   UNL     1      -4.584  -0.841  10.541  0.00  0.00    +0.024 C 
ENDBRANCH  31  34
ENDBRANCH  24  26
ENDBRANCH  23  24
ENDBRANCH   2  23
TORSDOF 10
