REMARK  Name = ZINC63667446
REMARK  9 active torsions:
REMARK  status: ('A' for Active; 'I' for Inactive)
REMARK    1  A    between atoms: C_1  and  O_2
REMARK    2  A    between atoms: O_2  and  C_3
REMARK    3  A    between atoms: C_6  and  C_9
REMARK    4  A    between atoms: C_12  and  C_28
REMARK    5  A    between atoms: C_15  and  C_17
REMARK    6  A    between atoms: C_17  and  S_18
REMARK    7  A    between atoms: S_18  and  C_19
REMARK    8  A    between atoms: C_31  and  O_34
REMARK    9  A    between atoms: O_34  and  C_35
REMARK                            x       y       z     vdW  Elec       q    Type
REMARK                         _______ _______ _______ _____ _____    ______ ____
ROOT
ATOM      1  C   UNL     1       2.505  -2.503  -4.381  0.00  0.00    +0.137 C 
ATOM      2  C   UNL     1       1.454  -3.023  -5.382  0.00  0.00    +0.087 C 
ATOM      3  C   UNL     1       1.682  -4.517  -5.407  0.00  0.00    +0.069 C 
ATOM      4  N   UNL     1       2.645  -4.819  -4.607  0.00  0.00    -0.181 NA
ATOM      5  N   UNL     1       3.208  -3.722  -3.951  0.00  0.00    -0.184 N 
ATOM      6  C   UNL     1       4.225  -3.769  -3.068  0.00  0.00    +0.245 C 
ATOM      7  O   UNL     1       4.633  -2.748  -2.557  0.00  0.00    -0.273 OA
ENDROOT
BRANCH   1  11
ATOM      8  C   UNL     1       0.606  -0.607  -1.056  0.00  0.00    +0.120 A 
ATOM      9  C   UNL     1       1.173   0.161  -2.062  0.00  0.00    +0.046 A 
ATOM     10  C   UNL     1       1.786  -0.455  -3.136  0.00  0.00    +0.009 A 
ATOM     11  C   UNL     1       1.835  -1.835  -3.209  0.00  0.00    -0.024 A 
ATOM     12  C   UNL     1       1.270  -2.602  -2.207  0.00  0.00    +0.009 A 
ATOM     13  C   UNL     1       0.661  -1.992  -1.128  0.00  0.00    +0.046 A 
BRANCH   8  15
ATOM     14  C   UNL     1      -0.017   1.425   0.010  0.00  0.00    +0.277 C 
ATOM     15  O   UNL     1       0.002  -0.004   0.002  0.00  0.00    -0.495 OA
ENDBRANCH   8  15
ENDBRANCH   1  11
BRANCH   3  16
ATOM     16  C   UNL     1       0.919  -5.481  -6.221  0.00  0.00    -0.002 A 
ATOM     17  C   UNL     1      -0.106  -5.033  -7.060  0.00  0.00    +0.013 A 
ATOM     18  C   UNL     1      -0.817  -5.938  -7.819  0.00  0.00    +0.046 A 
ATOM     19  C   UNL     1      -0.516  -7.292  -7.751  0.00  0.00    +0.120 A 
ATOM     20  C   UNL     1       0.501  -7.741  -6.919  0.00  0.00    +0.046 A 
ATOM     21  C   UNL     1       1.222  -6.844  -6.161  0.00  0.00    +0.013 A 
BRANCH  19  22
ATOM     22  O   UNL     1      -1.219  -8.180  -8.502  0.00  0.00    -0.495 OA
ATOM     23  C   UNL     1      -0.858  -9.558  -8.384  0.00  0.00    +0.277 C 
ENDBRANCH  19  22
ENDBRANCH   3  16
BRANCH   6  24
ATOM     24  C   UNL     1       4.856  -5.092  -2.716  0.00  0.00    +0.170 C 
BRANCH  24  25
ATOM     25  S   UNL     1       6.187  -4.826  -1.512  0.00  0.00    -0.106 S 
BRANCH  25  26
ATOM     26  C   UNL     1       6.834  -6.491  -1.197  0.00  0.00    +0.236 C 
ATOM     27  N   UNL     1       7.269  -7.109  -2.456  0.00  0.00    -0.355 N 
ATOM     28  C   UNL     1       6.556  -8.184  -2.630  0.00  0.00    +0.061 A 
ATOM     29  C   UNL     1       6.530  -9.205  -3.686  0.00  0.00    +0.027 A 
ATOM     30  C   UNL     1       5.663 -10.234  -3.596  0.00  0.00    +0.002 A 
ATOM     31  C   UNL     1       4.769 -10.379  -2.520  0.00  0.00    +0.002 A 
ATOM     32  C   UNL     1       4.711  -9.500  -1.499  0.00  0.00    +0.027 A 
ATOM     33  C   UNL     1       5.609  -8.338  -1.492  0.00  0.00    +0.061 A 
ATOM     34  N   UNL     1       5.772  -7.351  -0.659  0.00  0.00    -0.355 N 
ATOM     35  H   UNL     1       7.959  -6.776  -3.050  0.00  0.00    +0.162 HD
ATOM     36  H   UNL     1       5.283  -7.209   0.167  0.00  0.00    +0.162 HD
ENDBRANCH  25  26
ENDBRANCH  24  25
ENDBRANCH   6  24
TORSDOF 7
