REMARK  Name = ZINC20153518
REMARK  9 active torsions:
REMARK  status: ('A' for Active; 'I' for Inactive)
REMARK    1  A    between atoms: C_1  and  C_2
REMARK    2  A    between atoms: C_2  and  N_3
REMARK    3  A    between atoms: C_11  and  C_34
REMARK    4  A    between atoms: C_14  and  N_19
REMARK    5  A    between atoms: N_19  and  C_20
REMARK    6  A    between atoms: C_20  and  N_22
REMARK    7  A    between atoms: N_22  and  C_23
REMARK    8  A    between atoms: C_28  and  C_33
REMARK    9  A    between atoms: C_30  and  C_32
REMARK                            x       y       z     vdW  Elec       q    Type
REMARK                         _______ _______ _______ _____ _____    ______ ____
ROOT
ATOM      1  N   UNL     1       7.840   3.964   0.798  0.00  0.00    +0.382 N 
ATOM      2  C   UNL     1       6.798   4.594  -0.025  0.00  0.00    -0.060 C 
ATOM      3  C   UNL     1       5.516   3.764   0.057  0.00  0.00    +0.088 C 
ATOM      4  N   UNL     1       5.790   2.395  -0.403  0.00  0.00    -0.319 N 
ATOM      5  C   UNL     1       6.832   1.765   0.420  0.00  0.00    +0.088 C 
ATOM      6  C   UNL     1       8.115   2.595   0.338  0.00  0.00    -0.060 C 
ATOM      7  C   UNL     1       4.632   1.631  -0.410  0.00  0.00    +0.122 A 
ATOM      8  C   UNL     1       4.698   0.292  -0.821  0.00  0.00    +0.047 A 
ATOM      9  C   UNL     1       3.569  -0.471  -0.832  0.00  0.00    -0.038 A 
ATOM     10  C   UNL     1       2.357   0.123  -0.424  0.00  0.00    +0.005 A 
ATOM     11  C   UNL     1       1.159  -0.606  -0.411  0.00  0.00    +0.033 A 
ATOM     12  C   UNL     1      -0.006   0.009  -0.005  0.00  0.00    +0.033 A 
ATOM     13  C   UNL     1       0.000   1.350   0.393  0.00  0.00    +0.025 A 
ATOM     14  C   UNL     1       1.150   2.076   0.389  0.00  0.00    +0.030 A 
ATOM     15  C   UNL     1       2.356   1.481  -0.020  0.00  0.00    +0.073 A 
ATOM     16  N   UNL     1       3.497   2.180  -0.030  0.00  0.00    -0.232 NA
ATOM     17  C   UNL     1       3.614  -1.912  -1.270  0.00  0.00    +0.044 C 
ATOM     18  H   UNL     1       7.469   3.907   1.831  0.00  0.00    -0.082 HD
ENDROOT
BRANCH   1  20
ATOM     19  C   UNL     1      10.032   4.226   1.858  0.00  0.00    -0.017 C 
ATOM     20  C   UNL     1       9.066   4.773   0.805  0.00  0.00    -0.082 C 
ENDBRANCH   1  20
BRANCH  12  21
ATOM     21  N   UNL     1      -1.204  -0.715   0.010  0.00  0.00    -0.297 N 
ATOM     22  H   UNL     1      -1.476  -1.346  -0.848  0.00  0.00    +0.154 HD
BRANCH  21  23
ATOM     23  C   UNL     1      -2.024  -0.637   1.077  0.00  0.00    +0.135 C 
ATOM     24  S   UNL     1      -1.655   0.428   2.365  0.00  0.00    -0.019 S 
BRANCH  23  25
ATOM     25  N   UNL     1      -3.135  -1.398   1.129  0.00  0.00    -0.323 N 
ATOM     26  H   UNL     1      -3.373  -2.083   0.301  0.00  0.00    +0.148 HD
BRANCH  25  27
ATOM     27  C   UNL     1      -4.027  -1.314   2.288  0.00  0.00    +0.075 C 
ATOM     28  C   UNL     1      -3.517  -2.243   3.392  0.00  0.00    +0.022 C 
ATOM     29  C   UNL     1      -3.487  -3.682   2.875  0.00  0.00    +0.002 C 
ATOM     30  C   UNL     1      -4.899  -4.106   2.464  0.00  0.00    +0.003 C 
ATOM     31  C   UNL     1      -5.409  -3.178   1.360  0.00  0.00    -0.009 C 
ATOM     32  C   UNL     1      -5.439  -1.738   1.877  0.00  0.00    +0.009 C 
ATOM     33  C   UNL     1      -5.949  -0.810   0.773  0.00  0.00    +0.009 C 
ATOM     34  C   UNL     1      -6.820  -3.602   0.949  0.00  0.00    +0.008 C 
ENDBRANCH  25  27
ENDBRANCH  23  25
ENDBRANCH  21  23
ENDBRANCH  12  21
TORSDOF 5
