REMARK  Name = ZINC38547674
REMARK  11 active torsions:
REMARK  status: ('A' for Active; 'I' for Inactive)
REMARK    1  A    between atoms: C_1  and  C_2
REMARK    2  A    between atoms: C_3  and  C_34
REMARK    3  A    between atoms: C_5  and  N_26
REMARK    4  A    between atoms: C_6  and  C_7
REMARK    5  A    between atoms: C_7  and  C_9
REMARK    6  A    between atoms: C_7  and  N_19
REMARK    7  A    between atoms: C_12  and  O_17
REMARK    8  A    between atoms: C_14  and  O_15
REMARK    9  A    between atoms: O_15  and  C_16
REMARK   10  A    between atoms: O_17  and  C_18
REMARK   11  A    between atoms: C_27  and  C_29
REMARK                            x       y       z     vdW  Elec       q    Type
REMARK                         _______ _______ _______ _____ _____    ______ ____
ROOT
ATOM      1  C   UNL     1       0.015   0.035   2.523  0.00  0.00    +0.138 C 
ENDROOT
BRANCH   1   2
ATOM      2  N   UNL     1      -0.804  -0.863   3.341  0.00  0.00    -0.319 N 
ATOM      3  C   UNL     1      -1.339  -0.413   4.543  0.00  0.00    +0.097 A 
ATOM      4  C   UNL     1      -1.189   0.921   4.908  0.00  0.00    +0.041 A 
ATOM      5  C   UNL     1      -1.727   1.355   6.106  0.00  0.00    +0.005 A 
ATOM      6  C   UNL     1      -2.400   0.437   6.902  0.00  0.00    +0.018 A 
ATOM      7  C   UNL     1      -2.511  -0.872   6.478  0.00  0.00    +0.084 A 
ATOM      8  N   UNL     1      -1.993  -1.256   5.327  0.00  0.00    -0.350 N 
ATOM      9  H   UNL     1      -0.973  -1.770   3.045  0.00  0.00    +0.148 HD
ATOM     10  H   UNL     1      -2.089  -2.181   5.050  0.00  0.00    +0.166 HD
ENDBRANCH   1   2
BRANCH   1  16
ATOM     11  C   UNL     1      -0.447   1.831   0.276  0.00  0.00    +0.045 C 
ATOM     12  C   UNL     1      -0.155   0.372   0.041  0.00  0.00    -0.033 A 
ATOM     13  C   UNL     1      -0.099  -0.123  -1.219  0.00  0.00    -0.008 A 
ATOM     14  S   UNL     1       0.266  -1.846  -0.927  0.00  0.00    -0.078 S 
ATOM     15  C   UNL     1       0.320  -1.795   0.856  0.00  0.00    +0.078 A 
ATOM     16  C   UNL     1       0.064  -0.480   1.108  0.00  0.00    +0.009 A 
ATOM     17  C   UNL     1      -0.294   0.596  -2.529  0.00  0.00    +0.052 C 
BRANCH  15  18
ATOM     18  N   UNL     1       0.565  -2.831   1.759  0.00  0.00    -0.273 N 
ATOM     19  C   UNL     1       0.708  -4.095   1.312  0.00  0.00    +0.284 C 
ATOM     20  O   UNL     1       0.716  -4.320   0.116  0.00  0.00    -0.266 OA
ATOM     21  H   UNL     1       0.633  -2.642   2.708  0.00  0.00    +0.156 HD
BRANCH  19  22
ATOM     22  C   UNL     1       0.852  -5.198   2.266  0.00  0.00    +0.189 A 
ATOM     23  C   UNL     1       1.100  -6.504   1.952  0.00  0.00    +0.054 A 
ATOM     24  C   UNL     1       1.159  -7.207   3.166  0.00  0.00    +0.042 A 
ATOM     25  C   UNL     1       0.947  -6.311   4.155  0.00  0.00    +0.196 A 
ATOM     26  O   UNL     1       0.768  -5.101   3.609  0.00  0.00    -0.458 OA
ENDBRANCH  19  22
ENDBRANCH  15  18
ENDBRANCH   1  16
BRANCH   1  27
ATOM     27  C   UNL     1       1.412   0.092   3.085  0.00  0.00    +0.019 A 
ATOM     28  C   UNL     1       1.877  -0.934   3.886  0.00  0.00    +0.013 A 
ATOM     29  C   UNL     1       3.157  -0.884   4.402  0.00  0.00    +0.046 A 
ATOM     30  C   UNL     1       3.980   0.197   4.118  0.00  0.00    +0.124 A 
ATOM     31  C   UNL     1       3.516   1.227   3.315  0.00  0.00    +0.091 A 
ATOM     32  C   UNL     1       2.233   1.173   2.793  0.00  0.00    +0.129 A 
BRANCH  32  33
ATOM     33  O   UNL     1       1.777   2.178   2.001  0.00  0.00    -0.495 OA
ATOM     34  C   UNL     1       2.676   3.259   1.743  0.00  0.00    +0.277 C 
ENDBRANCH  32  33
BRANCH  30  35
ATOM     35  O   UNL     1       5.239   0.246   4.627  0.00  0.00    -0.495 OA
ATOM     36  C   UNL     1       5.650  -0.850   5.447  0.00  0.00    +0.277 C 
ENDBRANCH  30  35
ENDBRANCH   1  27
TORSDOF 7
