REMARK  Name = ZINC08612206
REMARK  10 active torsions:
REMARK  status: ('A' for Active; 'I' for Inactive)
REMARK    1  A    between atoms: C_1  and  C_2
REMARK    2  A    between atoms: C_3  and  N_9
REMARK    3  A    between atoms: C_10  and  C_12
REMARK    4  A    between atoms: C_13  and  C_32
REMARK    5  A    between atoms: C_17  and  C_22
REMARK    6  A    between atoms: C_18  and  O_21
REMARK    7  A    between atoms: C_22  and  N_23
REMARK    8  A    between atoms: N_23  and  C_24
REMARK    9  A    between atoms: N_23  and  C_25
REMARK   10  A    between atoms: C_25  and  C_26
REMARK                            x       y       z     vdW  Elec       q    Type
REMARK                         _______ _______ _______ _____ _____    ______ ____
ROOT
ATOM      1  C   UNL     1      -0.551  -0.111  -4.849  0.00  0.00    +0.086 A 
ATOM      2  C   UNL     1       0.549   0.127  -5.616  0.00  0.00    +0.115 A 
ATOM      3  O   UNL     1       0.199   0.806  -6.714  0.00  0.00    -0.459 OA
ATOM      4  C   UNL     1      -1.128   1.052  -6.738  0.00  0.00    +0.136 A 
ATOM      5  C   UNL     1      -1.685   0.491  -5.579  0.00  0.00    +0.037 A 
ATOM      6  C   UNL     1      -3.051   0.587  -5.339  0.00  0.00    -0.011 A 
ATOM      7  C   UNL     1      -3.861   1.237  -6.252  0.00  0.00    +0.119 A 
ATOM      8  C   UNL     1      -3.310   1.790  -7.403  0.00  0.00    +0.049 A 
ATOM      9  C   UNL     1      -1.955   1.707  -7.642  0.00  0.00    +0.050 A 
ATOM     10  C   UNL     1       1.951  -0.309  -5.277  0.00  0.00    +0.087 C 
ENDROOT
BRANCH   1  12
ATOM     11  N   UNL     1      -0.587  -0.132  -2.409  0.00  0.00    -0.281 N 
ATOM     12  C   UNL     1      -0.600  -0.824  -3.565  0.00  0.00    +0.252 C 
ATOM     13  O   UNL     1      -0.651  -2.040  -3.546  0.00  0.00    -0.270 OA
ATOM     14  H   UNL     1      -0.612   0.838  -2.423  0.00  0.00    +0.155 HD
BRANCH  11  17
ATOM     15  C   UNL     1      -1.494   1.227  -0.079  0.00  0.00    +0.047 C 
ATOM     16  C   UNL     1      -0.973  -0.186  -0.025  0.00  0.00    -0.011 A 
ATOM     17  C   UNL     1      -0.540  -0.812  -1.187  0.00  0.00    +0.038 A 
ATOM     18  C   UNL     1      -0.060  -2.114  -1.134  0.00  0.00    +0.023 A 
ATOM     19  C   UNL     1      -0.014  -2.783   0.074  0.00  0.00    +0.003 A 
ATOM     20  C   UNL     1      -0.446  -2.158   1.229  0.00  0.00    +0.020 A 
ATOM     21  C   UNL     1      -0.919  -0.859   1.181  0.00  0.00    +0.046 A 
ATOM     22 CL   UNL     1      -1.454  -0.076   2.635  0.00  0.00    -0.083 Cl
ENDBRANCH  11  17
ENDBRANCH   1  12
BRANCH   7  23
ATOM     23  O   UNL     1      -5.198   1.335  -6.024  0.00  0.00    -0.507 OA
ATOM     24  H   UNL     1      -5.456   2.125  -5.531  0.00  0.00    +0.292 HD
ENDBRANCH   7  23
BRANCH   6  25
ATOM     25  C   UNL     1      -3.645  -0.015  -4.091  0.00  0.00    -0.039 C 
BRANCH  25  26
ATOM     26  N   UNL     1      -4.352  -1.256  -4.434  0.00  0.00    +0.383 N 
ATOM     27  C   UNL     1      -3.384  -2.258  -4.898  0.00  0.00    -0.095 C 
ATOM     28  H   UNL     1      -5.021  -1.070  -5.167  0.00  0.00    -0.081 HD
BRANCH  26  29
ATOM     29  C   UNL     1      -5.053  -1.764  -3.248  0.00  0.00    -0.043 C 
BRANCH  29  30
ATOM     30  C   UNL     1      -5.890  -2.957  -3.632  0.00  0.00    -0.064 A 
ATOM     31  C   UNL     1      -7.155  -2.774  -4.159  0.00  0.00    +0.002 A 
ATOM     32  C   UNL     1      -7.922  -3.869  -4.511  0.00  0.00    +0.000 A 
ATOM     33  C   UNL     1      -7.425  -5.146  -4.336  0.00  0.00    +0.000 A 
ATOM     34  C   UNL     1      -6.160  -5.330  -3.810  0.00  0.00    +0.000 A 
ATOM     35  C   UNL     1      -5.391  -4.235  -3.462  0.00  0.00    +0.002 A 
ENDBRANCH  29  30
ENDBRANCH  26  29
ENDBRANCH  25  26
ENDBRANCH   6  25
TORSDOF 7
