REMARK  Name = ZINC21355787
REMARK  13 active torsions:
REMARK  status: ('A' for Active; 'I' for Inactive)
REMARK    1  A    between atoms: C_1  and  C_2
REMARK    2  A    between atoms: C_2  and  C_3
REMARK    3  A    between atoms: C_2  and  C_4
REMARK    4  A    between atoms: C_4  and  N_5
REMARK    5  A    between atoms: C_6  and  N_37
REMARK    6  A    between atoms: C_7  and  N_14
REMARK    7  A    between atoms: N_14  and  C_15
REMARK    8  A    between atoms: C_15  and  C_16
REMARK    9  A    between atoms: C_16  and  C_17
REMARK   10  A    between atoms: C_16  and  C_18
REMARK   11  A    between atoms: C_19  and  C_21
REMARK   12  A    between atoms: C_27  and  C_29
REMARK   13  A    between atoms: C_30  and  C_31
REMARK                            x       y       z     vdW  Elec       q    Type
REMARK                         _______ _______ _______ _____ _____    ______ ____
ROOT
ATOM      1  N   UNL     1      -4.654   5.052   2.547  0.00  0.00    -0.264 N 
ATOM      2  C   UNL     1      -4.447   3.809   2.063  0.00  0.00    +0.223 C 
ATOM      3  O   UNL     1      -3.880   3.658   1.001  0.00  0.00    -0.275 OA
ENDROOT
BRANCH   1   6
ATOM      4  N   UNL     1      -7.325   6.006   4.883  0.00  0.00    -0.280 N 
ATOM      5  C   UNL     1      -6.626   5.849   3.708  0.00  0.00    +0.127 A 
ATOM      6  C   UNL     1      -5.393   5.232   3.735  0.00  0.00    +0.140 A 
ATOM      7  C   UNL     1      -4.881   4.790   4.970  0.00  0.00    +0.277 A 
ATOM      8  O   UNL     1      -3.791   4.246   5.023  0.00  0.00    -0.266 OA
ATOM      9  N   UNL     1      -5.603   4.973   6.093  0.00  0.00    -0.273 N 
ATOM     10  H   UNL     1      -5.210   4.631   7.061  0.00  0.00    +0.173 HD
ATOM     11  C   UNL     1      -6.806   5.572   6.046  0.00  0.00    +0.331 A 
ATOM     12  O   UNL     1      -7.437   5.725   7.075  0.00  0.00    -0.246 OA
BRANCH   5  13
ATOM     13  N   UNL     1      -7.153   6.298   2.521  0.00  0.00    -0.343 N 
ATOM     14  H   UNL     1      -6.589   6.170   1.585  0.00  0.00    +0.144 HD
ATOM     15  H   UNL     1      -8.139   6.786   2.506  0.00  0.00    +0.144 HD
ENDBRANCH   5  13
BRANCH   4  16
ATOM     16  C   UNL     1      -8.639   6.654   4.868  0.00  0.00    +0.131 C 
BRANCH  16  18
ATOM     17  C   UNL     1      -9.823   8.854   4.920  0.00  0.00    +0.009 C 
ATOM     18  C   UNL     1      -8.465   8.162   5.060  0.00  0.00    +0.003 C 
ATOM     19  C   UNL     1      -7.894   8.437   6.452  0.00  0.00    +0.009 C 
ENDBRANCH  16  18
ENDBRANCH   4  16
ENDBRANCH   1   6
BRANCH   2  20
ATOM     20  C   UNL     1      -4.921   2.609   2.841  0.00  0.00    +0.078 C 
ATOM     21  C   UNL     1      -4.078   1.389   2.462  0.00  0.00    +0.032 C 
ATOM     22  C   UNL     1      -4.539   0.179   3.280  0.00  0.00    +0.109 C 
ATOM     23  N   UNL     1      -5.984  -0.001   3.084  0.00  0.00    -0.298 N 
ATOM     24  C   UNL     1      -6.878   1.139   3.328  0.00  0.00    +0.109 C 
ATOM     25  C   UNL     1      -6.391   2.337   2.514  0.00  0.00    +0.032 C 
ATOM     26  C   UNL     1      -6.479  -1.188   2.682  0.00  0.00    +0.239 C 
ATOM     27  O   UNL     1      -5.740  -2.148   2.564  0.00  0.00    -0.271 OA
BRANCH  26  28
ATOM     28  C   UNL     1      -7.908  -1.325   2.392  0.00  0.00    +0.068 C 
ATOM     29  C   UNL     1      -8.387  -2.483   1.894  0.00  0.00    +0.013 C 
BRANCH  29  30
ATOM     30  C   UNL     1      -9.823  -2.621   1.603  0.00  0.00    -0.025 A 
ATOM     31  C   UNL     1     -10.695  -1.555   1.848  0.00  0.00    +0.008 A 
ATOM     32  C   UNL     1     -12.039  -1.690   1.568  0.00  0.00    +0.001 A 
ATOM     33  C   UNL     1     -12.527  -2.880   1.057  0.00  0.00    +0.000 A 
ATOM     34  C   UNL     1     -11.671  -3.941   0.817  0.00  0.00    +0.001 A 
ATOM     35  C   UNL     1     -10.324  -3.820   1.087  0.00  0.00    +0.008 A 
ENDBRANCH  29  30
ENDBRANCH  26  28
ENDBRANCH   2  20
BRANCH   1  36
ATOM     36  C   UNL     1      -4.112   6.213   1.838  0.00  0.00    +0.117 C 
BRANCH  36  37
ATOM     37  C   UNL     1      -2.666   6.450   2.278  0.00  0.00    +0.001 C 
ATOM     38  C   UNL     1      -2.056   7.575   1.439  0.00  0.00    +0.009 C 
ATOM     39  C   UNL     1      -2.641   6.844   3.756  0.00  0.00    +0.009 C 
ENDBRANCH  36  37
ENDBRANCH   1  36
TORSDOF 9
