REMARK  Name = ZINC13474053
REMARK  11 active torsions:
REMARK  status: ('A' for Active; 'I' for Inactive)
REMARK    1  A    between atoms: C_1  and  C_2
REMARK    2  A    between atoms: C_4  and  O_20
REMARK    3  A    between atoms: C_6  and  O_9
REMARK    4  A    between atoms: O_9  and  C_10
REMARK    5  A    between atoms: C_12  and  C_18
REMARK    6  A    between atoms: C_14  and  O_16
REMARK    7  A    between atoms: O_16  and  C_17
REMARK    8  A    between atoms: O_20  and  C_21
REMARK    9  A    between atoms: C_25  and  C_27
REMARK   10  A    between atoms: N_29  and  C_30
REMARK   11  A    between atoms: N_29  and  C_31
REMARK                            x       y       z     vdW  Elec       q    Type
REMARK                         _______ _______ _______ _____ _____    ______ ____
ROOT
ATOM      1  C   UNL     1       0.870  -6.843  -0.889  0.00  0.00    +0.050 C 
ATOM      2  C   UNL     1       0.512  -5.399  -0.648  0.00  0.00    +0.030 A 
ATOM      3  C   UNL     1      -0.610  -4.838  -1.241  0.00  0.00    +0.191 A 
ATOM      4  C   UNL     1      -0.910  -3.504  -0.997  0.00  0.00    +0.260 A 
ATOM      5  N   UNL     1      -0.140  -2.771  -0.209  0.00  0.00    -0.172 NA
ATOM      6  C   UNL     1       0.936  -3.274   0.372  0.00  0.00    +0.260 A 
ATOM      7  C   UNL     1       1.299  -4.600   0.168  0.00  0.00    +0.191 A 
ATOM      8  F   UNL     1       2.403  -5.106   0.760  0.00  0.00    -0.200 F 
ATOM      9  F   UNL     1      -1.401  -5.580  -2.047  0.00  0.00    -0.200 F 
ENDROOT
BRANCH   6  10
ATOM     10  O   UNL     1       1.698  -2.486   1.173  0.00  0.00    -0.435 OA
BRANCH  10  11
ATOM     11  C   UNL     1       1.239  -1.241   1.466  0.00  0.00    +0.135 A 
ATOM     12  C   UNL     1       2.132  -0.196   1.641  0.00  0.00    +0.057 A 
ATOM     13  C   UNL     1       1.660   1.080   1.942  0.00  0.00    +0.019 A 
ATOM     14  C   UNL     1       0.289   1.301   2.065  0.00  0.00    +0.057 A 
ATOM     15  C   UNL     1      -0.599   0.252   1.888  0.00  0.00    +0.124 A 
ATOM     16  C   UNL     1      -0.125  -1.017   1.589  0.00  0.00    +0.092 A 
BRANCH  13  17
ATOM     17  C   UNL     1       2.612   2.199   2.130  0.00  0.00    +0.094 C 
ATOM     18  N   UNL     1       2.143   3.460   2.427  0.00  0.00    -0.345 N 
ATOM     19  H   UNL     1       4.595   2.659   2.120  0.00  0.00    +0.157 HD
ATOM     20  H   UNL     1       1.190   3.615   2.513  0.00  0.00    +0.144 HD
ATOM     21  H   UNL     1       2.767   4.192   2.550  0.00  0.00    +0.144 HD
ATOM     22  N   UNL     1       3.900   1.922   1.999  0.00  0.00    -0.387 N 
ATOM     23  H   UNL     1       4.200   0.965   1.777  0.00  0.00    +0.157 HD
ENDBRANCH  13  17
BRANCH  15  24
ATOM     24  O   UNL     1      -1.936   0.468   2.002  0.00  0.00    -0.495 OA
ATOM     25  C   UNL     1      -2.788  -0.674   1.903  0.00  0.00    +0.277 C 
ENDBRANCH  15  24
ENDBRANCH  10  11
ENDBRANCH   6  10
BRANCH   4  26
ATOM     26  O   UNL     1      -2.006  -2.946  -1.573  0.00  0.00    -0.436 OA
BRANCH  26  27
ATOM     27  C   UNL     1      -2.183  -1.605  -1.441  0.00  0.00    +0.131 A 
ATOM     28  C   UNL     1      -1.081  -0.764  -1.358  0.00  0.00    +0.046 A 
ATOM     29  C   UNL     1      -1.255   0.601  -1.224  0.00  0.00    +0.004 A 
ATOM     30  C   UNL     1      -2.526   1.137  -1.171  0.00  0.00    +0.013 A 
ATOM     31  C   UNL     1      -3.640   0.299  -1.253  0.00  0.00    +0.040 A 
ATOM     32  C   UNL     1      -3.462  -1.077  -1.394  0.00  0.00    +0.059 A 
BRANCH  31  33
ATOM     33  C   UNL     1      -5.003   0.870  -1.197  0.00  0.00    +0.246 C 
ATOM     34  O   UNL     1      -5.882   0.414  -1.901  0.00  0.00    -0.270 OA
ATOM     35  N   UNL     1      -5.270   1.896  -0.366  0.00  0.00    -0.304 N 
ATOM     36  C   UNL     1      -6.649   2.358  -0.192  0.00  0.00    +0.132 C 
ATOM     37  C   UNL     1      -4.181   2.550   0.365  0.00  0.00    +0.132 C 
ENDBRANCH  31  33
ENDBRANCH  26  27
ENDBRANCH   4  26
TORSDOF 7
