REMARK  Name = ZINC38799927
REMARK  7 active torsions:
REMARK  status: ('A' for Active; 'I' for Inactive)
REMARK    1  A    between atoms: C_7  and  C_10
REMARK    2  A    between atoms: N_11  and  N_12
REMARK    3  A    between atoms: C_23  and  C_28
REMARK    4  A    between atoms: C_25  and  N_27
REMARK    5  A    between atoms: N_30  and  C_31
REMARK    6  A    between atoms: C_31  and  C_32
REMARK    7  A    between atoms: C_32  and  C_33
REMARK                            x       y       z     vdW  Elec       q    Type
REMARK                         _______ _______ _______ _____ _____    ______ ____
ROOT
ATOM      1  N   UNL     1       0.341  -5.345  -0.118  0.00  0.00    -0.219 N 
ATOM      2  C   UNL     1      -1.036  -5.216  -0.222  0.00  0.00    +0.162 A 
ATOM      3  C   UNL     1      -1.663  -6.468  -0.322  0.00  0.00    +0.095 A 
ATOM      4  N   UNL     1      -2.967  -6.567  -0.428  0.00  0.00    -0.246 NA
ATOM      5  C   UNL     1      -3.722  -5.462  -0.443  0.00  0.00    +0.090 A 
ATOM      6  C   UNL     1      -5.120  -5.539  -0.555  0.00  0.00    +0.030 A 
ATOM      7  C   UNL     1      -5.861  -4.397  -0.567  0.00  0.00    +0.002 A 
ATOM      8  C   UNL     1      -5.251  -3.147  -0.469  0.00  0.00    +0.002 A 
ATOM      9  C   UNL     1      -3.900  -3.034  -0.360  0.00  0.00    +0.030 A 
ATOM     10  C   UNL     1      -3.102  -4.192  -0.343  0.00  0.00    +0.091 A 
ATOM     11  N   UNL     1      -1.773  -4.111  -0.237  0.00  0.00    -0.227 NA
ATOM     12  C   UNL     1      -0.594  -7.538  -0.280  0.00  0.00    +0.131 C 
ATOM     13  C   UNL     1       0.725  -6.757  -0.150  0.00  0.00    +0.058 C 
ENDROOT
BRANCH  13  14
ATOM     14  N   UNL     1       1.591  -7.023  -1.306  0.00  0.00    +0.392 N 
ATOM     15  H   UNL     1       2.464  -6.529  -1.192  0.00  0.00    -0.087 HD
ATOM     16  H   UNL     1       1.772  -8.014  -1.370  0.00  0.00    -0.087 HD
ATOM     17  H   UNL     1       1.134  -6.709  -2.148  0.00  0.00    -0.087 HD
ENDBRANCH  13  14
BRANCH  12  18
ATOM     18  C   UNL     1      -0.798  -8.440   0.909  0.00  0.00    +0.222 C 
ATOM     19  O   UNL     1       0.056  -8.517   1.767  0.00  0.00    -0.275 OA
ATOM     20  N   UNL     1      -1.931  -9.162   1.020  0.00  0.00    -0.314 N 
ATOM     21  H   UNL     1      -2.614  -9.101   0.335  0.00  0.00    +0.149 HD
BRANCH  20  22
ATOM     22  C   UNL     1      -2.130 -10.040   2.176  0.00  0.00    +0.108 C 
BRANCH  22  23
ATOM     23  C   UNL     1      -3.486 -10.739   2.059  0.00  0.00    +0.049 C 
BRANCH  23  24
ATOM     24  C   UNL     1      -3.690 -11.642   3.248  0.00  0.00    -0.072 C 
ATOM     25  C   UNL     1      -4.357 -11.177   4.255  0.00  0.00    -0.028 C 
ATOM     26  C   UNL     1      -4.633 -11.951   5.511  0.00  0.00    +0.027 C 
ATOM     27  C   UNL     1      -4.405 -13.445   5.269  0.00  0.00    +0.004 C 
ATOM     28  C   UNL     1      -3.038 -13.625   4.596  0.00  0.00    +0.005 C 
ATOM     29  C   UNL     1      -3.113 -13.026   3.188  0.00  0.00    +0.030 C 
ENDBRANCH  23  24
ENDBRANCH  22  23
ENDBRANCH  20  22
ENDBRANCH  12  18
BRANCH   1  31
ATOM     30  C   UNL     1       2.443  -4.591   0.183  0.00  0.00    +0.136 C 
ATOM     31  N   UNL     1       1.166  -4.359  -0.014  0.00  0.00    -0.188 NA
BRANCH  30  38
ATOM     32  C   UNL     1       6.936  -4.457   0.774  0.00  0.00    +0.001 A 
ATOM     33  C   UNL     1       7.470  -3.168   0.704  0.00  0.00    +0.002 A 
ATOM     34  C   UNL     1       6.690  -2.083   0.479  0.00  0.00    +0.026 A 
ATOM     35  C   UNL     1       5.291  -2.242   0.308  0.00  0.00    +0.043 A 
ATOM     36  N   UNL     1       4.334  -1.364   0.082  0.00  0.00    -0.380 N 
ATOM     37  C   UNL     1       3.048  -2.062  -0.014  0.00  0.00    +0.150 C 
ATOM     38  C   UNL     1       3.353  -3.530   0.189  0.00  0.00    +0.000 C 
ATOM     39  C   UNL     1       4.733  -3.603   0.383  0.00  0.00    +0.004 A 
ATOM     40  C   UNL     1       5.607  -4.686   0.620  0.00  0.00    +0.010 A 
ATOM     41  H   UNL     1       4.461  -0.406  -0.006  0.00  0.00    +0.160 HD
ENDBRANCH  30  38
ENDBRANCH   1  31
TORSDOF 7
