REMARK  Name = ZINC20872669
REMARK  16 active torsions:
REMARK  status: ('A' for Active; 'I' for Inactive)
REMARK    1  A    between atoms: C_1  and  C_2
REMARK    2  A    between atoms: C_2  and  C_3
REMARK    3  A    between atoms: C_2  and  C_4
REMARK    4  A    between atoms: C_2  and  N_5
REMARK    5  A    between atoms: C_6  and  C_8
REMARK    6  A    between atoms: C_8  and  O_9
REMARK    7  A    between atoms: O_9  and  C_10
REMARK    8  A    between atoms: C_11  and  C_18
REMARK    9  A    between atoms: C_15  and  O_16
REMARK   10  A    between atoms: O_16  and  C_17
REMARK   11  A    between atoms: C_18  and  N_19
REMARK   12  A    between atoms: N_19  and  C_20
REMARK   13  A    between atoms: C_20  and  C_21
REMARK   14  A    between atoms: C_21  and  N_22
REMARK   15  A    between atoms: N_22  and  C_23
REMARK   16  A    between atoms: C_26  and  N_30
REMARK                            x       y       z     vdW  Elec       q    Type
REMARK                         _______ _______ _______ _____ _____    ______ ____
ROOT
ATOM      1  C   UNL     1      -0.148   1.182   2.380  0.00  0.00    +0.164 A 
ATOM      2  C   UNL     1       0.803   1.984   2.990  0.00  0.00    -0.019 A 
ATOM      3  C   UNL     1       1.344   1.612   4.207  0.00  0.00    +0.005 A 
ATOM      4  C   UNL     1       0.938   0.440   4.817  0.00  0.00    +0.004 A 
ATOM      5  C   UNL     1      -0.011  -0.365   4.215  0.00  0.00    +0.049 A 
ATOM      6  C   UNL     1      -0.561   0.005   2.998  0.00  0.00    +0.162 A 
ENDROOT
BRANCH   6   7
ATOM      7  O   UNL     1      -1.498  -0.783   2.406  0.00  0.00    -0.491 OA
ATOM      8  C   UNL     1      -1.874  -1.976   3.098  0.00  0.00    +0.277 C 
ENDBRANCH   6   7
BRANCH   1   9
ATOM      9  O   UNL     1      -0.682   1.547   1.184  0.00  0.00    -0.479 OA
BRANCH   9  10
ATOM     10  C   UNL     1      -0.013   1.086   0.008  0.00  0.00    +0.324 C 
BRANCH  10  12
ATOM     11  N   UNL     1      -0.288   1.272  -2.443  0.00  0.00    -0.308 N 
ATOM     12  C   UNL     1      -0.742   1.585  -1.213  0.00  0.00    +0.251 C 
ATOM     13  O   UNL     1      -1.736   2.268  -1.088  0.00  0.00    -0.272 OA
ATOM     14  H   UNL     1       0.614   0.653  -2.556  0.00  0.00    +0.149 HD
BRANCH  11  16
ATOM     15  C   UNL     1      -1.018   3.288  -3.622  0.00  0.00    +0.031 C 
ATOM     16  C   UNL     1      -0.997   1.758  -3.630  0.00  0.00    +0.026 C 
ATOM     17  C   UNL     1      -0.281   1.264  -4.889  0.00  0.00    +0.031 C 
ATOM     18  C   UNL     1      -2.432   1.228  -3.619  0.00  0.00    +0.031 C 
ENDBRANCH  11  16
ENDBRANCH  10  12
ENDBRANCH   9  10
ENDBRANCH   1   9
BRANCH   2  19
ATOM     19  C   UNL     1       1.248   3.262   2.327  0.00  0.00    -0.043 C 
BRANCH  19  20
ATOM     20  N   UNL     1       0.254   4.315   2.576  0.00  0.00    +0.383 N 
ATOM     21  H   UNL     1      -0.718   4.006   2.163  0.00  0.00    -0.085 HD
ATOM     22  H   UNL     1       0.156   4.478   3.659  0.00  0.00    -0.085 HD
BRANCH  20  23
ATOM     23  C   UNL     1       0.655   5.578   1.943  0.00  0.00    -0.063 C 
BRANCH  23  24
ATOM     24  C   UNL     1      -0.402   6.648   2.224  0.00  0.00    +0.082 C 
BRANCH  24  25
ATOM     25  N   UNL     1      -0.002   7.907   1.592  0.00  0.00    -0.345 N 
ATOM     26  H   UNL     1       0.939   7.964   1.025  0.00  0.00    +0.146 HD
BRANCH  25  27
ATOM     27  C   UNL     1      -0.815   9.038   1.711  0.00  0.00    +0.046 A 
ATOM     28  C   UNL     1      -2.003   8.969   2.427  0.00  0.00    +0.026 A 
ATOM     29  C   UNL     1      -2.804  10.088   2.542  0.00  0.00    +0.034 A 
ATOM     30  C   UNL     1      -2.426  11.276   1.946  0.00  0.00    +0.128 A 
ATOM     31  C   UNL     1      -1.244  11.350   1.232  0.00  0.00    +0.054 A 
ATOM     32  C   UNL     1      -0.434  10.236   1.117  0.00  0.00    +0.064 A 
ATOM     33 CL   UNL     1       1.054  10.330   0.228  0.00  0.00    -0.082 Cl
BRANCH  30  34
ATOM     34  N   UNL     1      -3.287  12.473   2.072  0.00  0.00    +0.056 N 
ATOM     35  O   UNL     1      -4.329  12.410   2.701  0.00  0.00    -0.126 OA
ATOM     36  O   UNL     1      -2.955  13.521   1.548  0.00  0.00    -0.126 OA
ENDBRANCH  30  34
ENDBRANCH  25  27
ENDBRANCH  24  25
ENDBRANCH  23  24
ENDBRANCH  20  23
ENDBRANCH  19  20
ENDBRANCH   2  19
TORSDOF 12
