REMARK  Name = ZINC38114785
REMARK  6 active torsions:
REMARK  status: ('A' for Active; 'I' for Inactive)
REMARK    1  A    between atoms: C_6  and  CA_7
REMARK    2  A    between atoms: CA_7  and  C_9
REMARK    3  A    between atoms: CA_7  and  N_11
REMARK    4  A    between atoms: C_9  and  O_10
REMARK    5  A    between atoms: N_11  and  C_12
REMARK    6  A    between atoms: C_12  and  C_13
REMARK                            x       y       z     vdW  Elec       q    Type
REMARK                         _______ _______ _______ _____ _____    ______ ____
ROOT
ATOM      1  CA  UNL     1      -1.293  -0.775   0.010  0.00  0.00    -0.015 C 
ENDROOT
BRANCH   1   7
ATOM      2  C   UNL     1      -0.017   1.378   0.010  0.00  0.00    +0.005 A 
ATOM      3  C   UNL     1       1.170   2.086   0.002  0.00  0.00    +0.040 A 
ATOM      4  C   UNL     1       2.379   1.411  -0.013  0.00  0.00    +0.137 A 
ATOM      5  C   UNL     1       2.397   0.026  -0.021  0.00  0.00    +0.053 A 
ATOM      6  C   UNL     1       1.208  -0.680  -0.013  0.00  0.00    +0.020 A 
ATOM      7  C   UNL     1       0.002  -0.004   0.002  0.00  0.00    -0.058 A 
ATOM      8 BR   UNL     1       4.046  -0.899  -0.042  0.00  0.00    -0.047 Br
ATOM      9  F   UNL     1       3.539   2.103  -0.021  0.00  0.00    -0.204 F 
ENDBRANCH   1   7
BRANCH   1  10
ATOM     10  N   UNL     1      -1.163  -1.942   0.893  0.00  0.00    +0.387 N 
ATOM     11  H1  UNL     1      -0.477  -2.576   0.513  0.00  0.00    -0.085 HD
ATOM     12  H2  UNL     1      -0.869  -1.639   1.810  0.00  0.00    -0.085 HD
BRANCH  10  13
ATOM     13  C   UNL     1      -2.459  -2.625   0.995  0.00  0.00    -0.050 C 
BRANCH  13  14
ATOM     14  C   UNL     1      -2.324  -3.840   1.915  0.00  0.00    +0.101 C 
ATOM     15  C   UNL     1      -3.673  -4.597   2.009  0.00  0.00    +0.032 C 
ATOM     16  C   UNL     1      -3.186  -6.022   2.386  0.00  0.00    +0.030 C 
ATOM     17  C   UNL     1      -1.846  -6.123   1.625  0.00  0.00    +0.160 C 
ATOM     18  O   UNL     1      -1.399  -4.787   1.357  0.00  0.00    -0.378 OA
ENDBRANCH  13  14
ENDBRANCH  10  13
ENDBRANCH   1  10
BRANCH   1  19
ATOM     19  C   UNL     1      -1.617  -1.243  -1.410  0.00  0.00    +0.144 C 
BRANCH  19  20
ATOM     20  O   UNL     1      -0.514  -1.988  -1.929  0.00  0.00    -0.396 OA
ATOM     21  H   UNL     1      -0.649  -2.317  -2.828  0.00  0.00    +0.209 HD
ENDBRANCH  19  20
ENDBRANCH   1  19
TORSDOF 6
