REMARK  Name = ZINC05943233
REMARK  3 active torsions:
REMARK  status: ('A' for Active; 'I' for Inactive)
REMARK    1  A    between atoms: C_1  and  C_2
REMARK    2  A    between atoms: C_6  and  S_8
REMARK    3  A    between atoms: S_8  and  C_9
REMARK                            x       y       z     vdW  Elec       q    Type
REMARK                         _______ _______ _______ _____ _____    ______ ____
ROOT
ATOM      1  S   UNL     1      -2.942   3.996  -1.619  0.00  0.00    -0.081 S 
ENDROOT
BRANCH   1   7
ATOM      2  C   UNL     1      -7.127   6.830  -0.815  0.00  0.00    +0.066 C 
ATOM      3  C   UNL     1      -6.240   5.697  -0.367  0.00  0.00    +0.043 A 
ATOM      4  C   UNL     1      -6.551   4.973   0.774  0.00  0.00    +0.043 A 
ATOM      5  C   UNL     1      -5.710   3.938   1.152  0.00  0.00    +0.115 A 
ATOM      6  N   UNL     1      -4.643   3.673   0.417  0.00  0.00    -0.230 NA
ATOM      7  C   UNL     1      -4.374   4.384  -0.669  0.00  0.00    +0.189 A 
ATOM      8  N   UNL     1      -5.155   5.383  -1.054  0.00  0.00    -0.227 NA
ENDBRANCH   1   7
BRANCH   1   9
ATOM      9  C   UNL     1      -2.289   2.612  -0.653  0.00  0.00    +0.077 C 
ATOM     10  C   UNL     1      -1.876   3.112   0.741  0.00  0.00    +0.039 C 
ATOM     11  C   UNL     1      -1.039   1.995   1.430  0.00  0.00    +0.167 C 
ATOM     12  S   UNL     1      -0.017   1.417   0.010  0.00  0.00    -0.030 S 
ATOM     13  O   UNL     1       0.002  -0.004   0.002  0.00  0.00    -0.174 OA
ATOM     14  O   UNL     1       1.210   2.133   0.002  0.00  0.00    -0.174 OA
ATOM     15  C   UNL     1      -1.064   2.009  -1.382  0.00  0.00    +0.180 C 
ENDBRANCH   1   9
TORSDOF 2
