REMARK  Name = ZINC39379059
REMARK  2 active torsions:
REMARK  status: ('A' for Active; 'I' for Inactive)
REMARK    1  A    between atoms: C_6  and  C_7
REMARK    2  A    between atoms: C_8  and  C_18
REMARK                            x       y       z     vdW  Elec       q    Type
REMARK                         _______ _______ _______ _____ _____    ______ ____
ROOT
ATOM      1  C   UNL     1      -1.267  -0.764   0.011  0.00  0.00    +0.096 A 
ATOM      2  C   UNL     1      -1.268  -2.167  -0.096  0.00  0.00    +0.142 A 
ATOM      3  C   UNL     1      -2.499  -2.854  -0.084  0.00  0.00    +0.279 A 
ATOM      4  O   UNL     1      -2.518  -4.069  -0.175  0.00  0.00    -0.266 OA
ATOM      5  N   UNL     1      -3.677  -2.158   0.031  0.00  0.00    -0.223 N 
ATOM      6  C   UNL     1      -3.576  -0.792   0.130  0.00  0.00    +0.179 A 
ATOM      7  N   UNL     1      -2.440  -0.136   0.126  0.00  0.00    -0.221 NA
ATOM      8  S   UNL     1      -5.255  -0.205   0.264  0.00  0.00    -0.078 S 
ATOM      9  C   UNL     1      -6.090  -1.841   0.183  0.00  0.00    +0.176 C 
ATOM     10  C   UNL     1      -4.885  -2.748   0.051  0.00  0.00    +0.246 C 
ATOM     11  O   UNL     1      -5.003  -3.947  -0.035  0.00  0.00    -0.271 OA
ENDROOT
BRANCH   1  17
ATOM     12  C   UNL     1       0.971  -0.269  -0.968  0.00  0.00    +0.011 A 
ATOM     13  C   UNL     1       2.152   0.443  -0.971  0.00  0.00    +0.016 A 
ATOM     14  C   UNL     1       2.378   1.419  -0.014  0.00  0.00    +0.018 A 
ATOM     15  C   UNL     1       1.421   1.686   0.950  0.00  0.00    +0.016 A 
ATOM     16  C   UNL     1       0.236   0.981   0.964  0.00  0.00    +0.011 A 
ATOM     17  C   UNL     1       0.002  -0.004   0.002  0.00  0.00    +0.002 A 
ATOM     18 BR   UNL     1       4.000   2.391  -0.025  0.00  0.00    -0.050 Br
ENDBRANCH   1  17
BRANCH   2  19
ATOM     19  C   UNL     1      -0.036  -2.887  -0.217  0.00  0.00    +0.107 C 
ATOM     20  N   UNL     1       0.941  -3.458  -0.312  0.00  0.00    -0.191 NA
ENDBRANCH   2  19
TORSDOF 2
