REMARK  Name = ZINC65988583
REMARK  7 active torsions:
REMARK  status: ('A' for Active; 'I' for Inactive)
REMARK    1  A    between atoms: C_1  and  C_2
REMARK    2  A    between atoms: C_2  and  C_3
REMARK    3  A    between atoms: C_2  and  N_12
REMARK    4  A    between atoms: N_5  and  C_6
REMARK    5  A    between atoms: C_6  and  C_7
REMARK    6  A    between atoms: N_15  and  C_16
REMARK    7  A    between atoms: C_16  and  C_17
REMARK                            x       y       z     vdW  Elec       q    Type
REMARK                         _______ _______ _______ _____ _____    ______ ____
ROOT
ATOM      1  N   UNL     1       0.711  -0.489   1.189  0.00  0.00    -0.288 N 
ATOM      2  C   UNL     1       2.054  -0.600   1.174  0.00  0.00    +0.300 C 
ATOM      3  O   UNL     1       2.677  -0.297   0.175  0.00  0.00    -0.253 OA
ATOM      4  N   UNL     1       2.706  -1.046   2.266  0.00  0.00    -0.295 N 
ATOM      5  H   UNL     1       0.213  -0.731   1.986  0.00  0.00    +0.151 HD
ATOM      6  H   UNL     1       2.208  -1.288   3.062  0.00  0.00    +0.151 HD
ENDROOT
BRANCH   1   8
ATOM      7  C   UNL     1      -0.019   1.526   0.010  0.00  0.00    +0.038 C 
ATOM      8  C   UNL     1       0.002  -0.004   0.002  0.00  0.00    +0.157 C 
BRANCH   8   9
ATOM      9  C   UNL     1      -1.412  -0.526   0.013  0.00  0.00    +0.233 C 
ATOM     10  O   UNL     1      -1.790  -1.233   0.922  0.00  0.00    -0.274 OA
ATOM     11  N   UNL     1      -2.256  -0.206  -0.988  0.00  0.00    -0.307 N 
ATOM     12  H   UNL     1      -1.953   0.360  -1.716  0.00  0.00    +0.149 HD
BRANCH  11  13
ATOM     13  C   UNL     1      -3.630  -0.713  -0.978  0.00  0.00    +0.178 C 
BRANCH  13  14
ATOM     14  C   UNL     1      -4.359  -0.214  -2.199  0.00  0.00    +0.122 A 
ATOM     15  C   UNL     1      -4.422  -0.840  -3.388  0.00  0.00    +0.046 A 
ATOM     16  C   UNL     1      -5.202  -0.024  -4.239  0.00  0.00    +0.041 A 
ATOM     17  C   UNL     1      -5.569   1.052  -3.519  0.00  0.00    +0.195 A 
ATOM     18  O   UNL     1      -5.060   0.928  -2.283  0.00  0.00    -0.466 OA
ENDBRANCH  13  14
ENDBRANCH  11  13
ENDBRANCH   8   9
ENDBRANCH   1   8
BRANCH   4  19
ATOM     19  C   UNL     1       4.166  -1.166   2.249  0.00  0.00    +0.141 C 
BRANCH  19  20
ATOM     20  C   UNL     1       4.642  -1.684   3.582  0.00  0.00    -0.026 A 
ATOM     21  C   UNL     1       4.958  -0.807   4.612  0.00  0.00    +0.023 A 
ATOM     22  C   UNL     1       5.391  -1.313   5.821  0.00  0.00    +0.084 A 
ATOM     23  N   UNL     1       5.508  -2.615   6.007  0.00  0.00    -0.350 N 
ATOM     24  C   UNL     1       5.218  -3.482   5.050  0.00  0.00    +0.099 A 
ATOM     25  C   UNL     1       4.770  -3.042   3.808  0.00  0.00    +0.047 A 
ATOM     26  N   UNL     1       5.356  -4.844   5.290  0.00  0.00    -0.317 N 
ATOM     27  C   UNL     1       5.077  -5.917   4.324  0.00  0.00    +0.106 C 
ATOM     28  C   UNL     1       5.346  -7.258   5.038  0.00  0.00    +0.020 C 
ATOM     29  C   UNL     1       5.216  -6.885   6.538  0.00  0.00    +0.020 C 
ATOM     30  C   UNL     1       5.812  -5.452   6.553  0.00  0.00    +0.106 C 
ATOM     31  H   UNL     1       5.815  -2.943   6.867  0.00  0.00    +0.166 HD
ENDBRANCH  19  20
ENDBRANCH   4  19
TORSDOF 6
