REMARK  Name = ZINC12490897
REMARK  11 active torsions:
REMARK  status: ('A' for Active; 'I' for Inactive)
REMARK    1  A    between atoms: C_1  and  C_2
REMARK    2  A    between atoms: C_2  and  O_34
REMARK    3  A    between atoms: C_5  and  C_16
REMARK    4  A    between atoms: C_9  and  C_14
REMARK    5  A    between atoms: C_9  and  C_15
REMARK    6  A    between atoms: C_11  and  N_13
REMARK    7  A    between atoms: C_16  and  C_17
REMARK    8  A    between atoms: C_17  and  C_18
REMARK    9  A    between atoms: N_23  and  C_26
REMARK   10  A    between atoms: C_31  and  O_32
REMARK   11  A    between atoms: O_32  and  C_33
REMARK                            x       y       z     vdW  Elec       q    Type
REMARK                         _______ _______ _______ _____ _____    ______ ____
ROOT
ATOM      1  C   UNL     1      -3.235   1.094   1.449  0.00  0.00    +0.041 C 
ATOM      2  C   UNL     1      -2.893  -0.388   1.287  0.00  0.00    +0.064 C 
ATOM      3  C   UNL     1      -2.056  -0.857   2.482  0.00  0.00    +0.035 C 
ATOM      4  C   UNL     1      -1.795  -2.356   2.330  0.00  0.00    +0.008 C 
ATOM      5  C   UNL     1      -1.063  -2.658   1.043  0.00  0.00    -0.038 C 
ATOM      6  C   UNL     1      -1.757  -2.070  -0.200  0.00  0.00    +0.002 C 
ATOM      7  C   UNL     1      -2.077  -0.589   0.012  0.00  0.00    +0.039 C 
ATOM      8  C   UNL     1      -0.614  -2.131  -1.256  0.00  0.00    -0.033 C 
ATOM      9  C   UNL     1       0.648  -1.737  -0.459  0.00  0.00    -0.009 C 
ATOM     10  C   UNL     1       0.355  -2.071   1.018  0.00  0.00    -0.068 C 
ATOM     11  C   UNL     1      -0.475  -3.549  -1.816  0.00  0.00    +0.011 C 
ATOM     12  C   UNL     1      -0.871  -1.130  -2.384  0.00  0.00    +0.011 C 
ENDROOT
BRANCH  10  13
ATOM     13  N   UNL     1       1.321  -3.060   1.515  0.00  0.00    +0.380 N 
ATOM     14  H   UNL     1       1.365  -3.838   0.875  0.00  0.00    -0.090 HD
ATOM     15  H   UNL     1       2.232  -2.632   1.589  0.00  0.00    -0.090 HD
ATOM     16  H   UNL     1       1.029  -3.388   2.424  0.00  0.00    -0.090 HD
ENDBRANCH  10  13
BRANCH   2  17
ATOM     17  O   UNL     1      -4.097  -1.154   1.210  0.00  0.00    -0.389 OA
ATOM     18  H   UNL     1      -4.662  -1.077   1.992  0.00  0.00    +0.210 HD
ENDBRANCH   2  17
BRANCH   5  19
ATOM     19  C   UNL     1      -0.975  -4.175   0.864  0.00  0.00    +0.015 C 
BRANCH  19  20
ATOM     20  C   UNL     1      -2.379  -4.746   0.655  0.00  0.00    +0.096 C 
BRANCH  20  21
ATOM     21  C   UNL     1      -2.281  -6.215   0.335  0.00  0.00    +0.216 C 
ATOM     22  O   UNL     1      -1.195  -6.753   0.280  0.00  0.00    -0.276 OA
ATOM     23  N   UNL     1      -3.400  -6.932   0.110  0.00  0.00    -0.298 N 
ATOM     24  C   UNL     1      -4.722  -6.293   0.168  0.00  0.00    +0.126 C 
ATOM     25  C   UNL     1      -5.449  -6.551  -1.157  0.00  0.00    +0.124 C 
ATOM     26  N   UNL     1      -5.369  -7.986  -1.465  0.00  0.00    -0.324 N 
ATOM     27  C   UNL     1      -4.047  -8.626  -1.522  0.00  0.00    +0.124 C 
ATOM     28  C   UNL     1      -3.319  -8.366  -0.203  0.00  0.00    +0.126 C 
BRANCH  26  29
ATOM     29  C   UNL     1      -6.531  -8.731  -1.698  0.00  0.00    +0.072 A 
ATOM     30  C   UNL     1      -7.033  -8.850  -2.986  0.00  0.00    +0.027 A 
ATOM     31  C   UNL     1      -8.181  -9.587  -3.214  0.00  0.00    +0.002 A 
ATOM     32  C   UNL     1      -8.830 -10.205  -2.161  0.00  0.00    +0.004 A 
ATOM     33  C   UNL     1      -8.335 -10.090  -0.875  0.00  0.00    +0.047 A 
ATOM     34  C   UNL     1      -7.183  -9.358  -0.639  0.00  0.00    +0.141 A 
BRANCH  34  35
ATOM     35  O   UNL     1      -6.692  -9.248   0.625  0.00  0.00    -0.493 OA
ATOM     36  C   UNL     1      -7.413  -9.918   1.661  0.00  0.00    +0.277 C 
ENDBRANCH  34  35
ENDBRANCH  26  29
ENDBRANCH  20  21
ENDBRANCH  19  20
ENDBRANCH   5  19
TORSDOF 7
