REMARK  Name = ZINC63743516
REMARK  9 active torsions:
REMARK  status: ('A' for Active; 'I' for Inactive)
REMARK    1  A    between atoms: C_1  and  C_2
REMARK    2  A    between atoms: C_7  and  C_12
REMARK    3  A    between atoms: C_12  and  C_13
REMARK    4  A    between atoms: C_13  and  C_14
REMARK    5  A    between atoms: C_17  and  N_20
REMARK    6  A    between atoms: N_20  and  S_21
REMARK    7  A    between atoms: S_21  and  C_24
REMARK    8  A    between atoms: C_29  and  O_30
REMARK    9  A    between atoms: O_30  and  C_31
REMARK                            x       y       z     vdW  Elec       q    Type
REMARK                         _______ _______ _______ _____ _____    ______ ____
ROOT
ATOM      1  C   UNL     1       2.320  -7.285   2.048  0.00  0.00    -0.047 A 
ATOM      2  C   UNL     1       3.385  -7.146   1.177  0.00  0.00    +0.005 A 
ATOM      3  C   UNL     1       4.578  -7.793   1.433  0.00  0.00    +0.025 A 
ATOM      4  C   UNL     1       4.707  -8.584   2.568  0.00  0.00    +0.048 A 
ATOM      5  C   UNL     1       3.636  -8.721   3.441  0.00  0.00    +0.025 A 
ATOM      6  C   UNL     1       2.447  -8.067   3.182  0.00  0.00    +0.005 A 
ENDROOT
BRANCH   4   7
ATOM      7  N   UNL     1       5.912  -9.239   2.830  0.00  0.00    -0.216 N 
ATOM      8  H   UNL     1       6.364  -9.726   2.123  0.00  0.00    +0.174 HD
BRANCH   7   9
ATOM      9  S   UNL     1       6.571  -9.186   4.348  0.00  0.00    +0.076 S 
ATOM     10  O   UNL     1       5.551  -9.600   5.248  0.00  0.00    -0.150 OA
ATOM     11  O   UNL     1       7.829  -9.842   4.269  0.00  0.00    -0.150 OA
BRANCH   9  12
ATOM     12  C   UNL     1       6.907  -7.495   4.712  0.00  0.00    +0.151 A 
ATOM     13  C   UNL     1       6.236  -6.863   5.740  0.00  0.00    +0.052 A 
ATOM     14  C   UNL     1       6.499  -5.535   6.026  0.00  0.00    +0.043 A 
ATOM     15  C   UNL     1       7.435  -4.838   5.282  0.00  0.00    +0.024 A 
ATOM     16  C   UNL     1       8.108  -5.467   4.253  0.00  0.00    +0.049 A 
ATOM     17  C   UNL     1       7.849  -6.800   3.969  0.00  0.00    +0.147 A 
ATOM     18 CL   UNL     1       5.654  -4.742   7.319  0.00  0.00    -0.083 Cl
BRANCH  17  19
ATOM     19  O   UNL     1       8.515  -7.422   2.960  0.00  0.00    -0.493 OA
ATOM     20  C   UNL     1       9.386  -6.617   2.164  0.00  0.00    +0.277 C 
ENDBRANCH  17  19
ENDBRANCH   9  12
ENDBRANCH   7   9
ENDBRANCH   4   7
BRANCH   1  21
ATOM     21  C   UNL     1       1.020  -6.578   1.765  0.00  0.00    +0.039 C 
BRANCH  21  22
ATOM     22  C   UNL     1       1.043  -5.190   2.410  0.00  0.00    +0.051 C 
BRANCH  22  29
ATOM     23  C   UNL     1      -0.668   1.318   0.464  0.00  0.00    +0.044 C 
ATOM     24  C   UNL     1      -0.613  -0.187   0.491  0.00  0.00    -0.048 A 
ATOM     25  C   UNL     1      -0.729  -0.889  -0.722  0.00  0.00    +0.005 A 
ATOM     26  C   UNL     1      -0.691  -2.235  -0.789  0.00  0.00    +0.027 A 
ATOM     27  C   UNL     1      -0.521  -3.018   0.442  0.00  0.00    +0.060 A 
ATOM     28  N   UNL     1      -0.451  -4.297   0.675  0.00  0.00    -0.363 N 
ATOM     29  C   UNL     1      -0.277  -4.472   2.122  0.00  0.00    +0.174 C 
ATOM     30  N   UNL     1      -0.256  -3.124   2.703  0.00  0.00    -0.363 N 
ATOM     31  C   UNL     1      -0.398  -2.276   1.726  0.00  0.00    +0.060 A 
ATOM     32  C   UNL     1      -0.448  -0.808   1.677  0.00  0.00    +0.030 A 
ATOM     33  H   UNL     1      -0.504  -5.004   0.013  0.00  0.00    +0.162 HD
ATOM     34  H   UNL     1      -0.154  -2.905   3.643  0.00  0.00    +0.162 HD
ENDBRANCH  22  29
ENDBRANCH  21  22
ENDBRANCH   1  21
TORSDOF 7
