REMARK  Name = ZINC22877482
REMARK  8 active torsions:
REMARK  status: ('A' for Active; 'I' for Inactive)
REMARK    1  A    between atoms: C_1  and  C_2
REMARK    2  A    between atoms: C_2  and  C_4
REMARK    3  A    between atoms: C_2  and  N_17
REMARK    4  A    between atoms: N_6  and  C_7
REMARK    5  A    between atoms: C_10  and  S_13
REMARK    6  A    between atoms: S_13  and  N_16
REMARK    7  A    between atoms: N_20  and  C_23
REMARK    8  A    between atoms: C_23  and  C_24
REMARK                            x       y       z     vdW  Elec       q    Type
REMARK                         _______ _______ _______ _____ _____    ______ ____
ROOT
ATOM      1  C   UNL     1       0.829  -0.367   1.236  0.00  0.00    +0.234 C 
ATOM      2  O   UNL     1       1.905  -0.917   1.131  0.00  0.00    -0.274 OA
ATOM      3  N   UNL     1       0.278  -0.191   2.453  0.00  0.00    -0.284 N 
ATOM      4  H   UNL     1      -0.544   0.316   2.545  0.00  0.00    +0.155 HD
ENDROOT
BRANCH   3   5
ATOM      5  C   UNL     1       0.891  -0.739   3.585  0.00  0.00    +0.034 A 
ATOM      6  C   UNL     1       0.813  -0.082   4.806  0.00  0.00    +0.025 A 
ATOM      7  C   UNL     1       1.419  -0.625   5.921  0.00  0.00    +0.030 A 
ATOM      8  C   UNL     1       2.104  -1.823   5.823  0.00  0.00    +0.105 A 
ATOM      9  C   UNL     1       2.185  -2.479   4.609  0.00  0.00    +0.030 A 
ATOM     10  C   UNL     1       1.575  -1.944   3.491  0.00  0.00    +0.025 A 
BRANCH   8  11
ATOM     11  S   UNL     1       2.877  -2.513   7.248  0.00  0.00    +0.056 S 
ATOM     12  O   UNL     1       3.915  -3.361   6.777  0.00  0.00    -0.153 OA
ATOM     13  O   UNL     1       3.120  -1.434   8.141  0.00  0.00    -0.153 OA
BRANCH  11  14
ATOM     14  N   UNL     1       1.763  -3.493   7.983  0.00  0.00    -0.204 NA
ATOM     15  H   UNL     1       0.876  -3.590   7.602  0.00  0.00    +0.144 HD
ATOM     16  H   UNL     1       1.997  -3.971   8.794  0.00  0.00    +0.144 HD
ENDBRANCH  11  14
ENDBRANCH   8  11
ENDBRANCH   3   5
BRANCH   1  18
ATOM     17  C   UNL     1      -0.100   1.633   0.101  0.00  0.00    +0.034 C 
ATOM     18  C   UNL     1       0.109   0.120   0.005  0.00  0.00    +0.140 C 
BRANCH  18  19
ATOM     19  N   UNL     1       0.911  -0.189  -1.186  0.00  0.00    -0.295 NA
ATOM     20  C   UNL     1       2.214   0.490  -1.135  0.00  0.00    +0.066 C 
ATOM     21  C   UNL     1       3.040   0.095  -2.361  0.00  0.00    -0.063 C 
ATOM     22  N   UNL     1       2.318   0.477  -3.581  0.00  0.00    +0.383 N 
ATOM     23  C   UNL     1       1.030  -0.227  -3.631  0.00  0.00    -0.063 C 
ATOM     24  C   UNL     1       0.187   0.165  -2.415  0.00  0.00    +0.066 C 
ATOM     25  H   UNL     1       2.156   1.473  -3.579  0.00  0.00    -0.082 HD
BRANCH  22  26
ATOM     26  C   UNL     1       3.119   0.115  -4.758  0.00  0.00    -0.047 C 
BRANCH  26  27
ATOM     27  C   UNL     1       2.426   0.624  -6.024  0.00  0.00    +0.102 C 
ATOM     28  C   UNL     1       3.197   0.144  -7.272  0.00  0.00    +0.032 C 
ATOM     29  C   UNL     1       3.119   1.383  -8.204  0.00  0.00    +0.030 C 
ATOM     30  C   UNL     1       3.173   2.535  -7.169  0.00  0.00    +0.160 C 
ATOM     31  O   UNL     1       2.428   2.056  -6.036  0.00  0.00    -0.378 OA
ENDBRANCH  26  27
ENDBRANCH  22  26
ENDBRANCH  18  19
ENDBRANCH   1  18
TORSDOF 7
