REMARK  Name = ZINC44761094
REMARK  7 active torsions:
REMARK  status: ('A' for Active; 'I' for Inactive)
REMARK    1  A    between atoms: C_1  and  C_2
REMARK    2  A    between atoms: C_5  and  O_9
REMARK    3  A    between atoms: C_6  and  C_8
REMARK    4  A    between atoms: O_9  and  S_10
REMARK    5  A    between atoms: S_10  and  C_13
REMARK    6  A    between atoms: C_15  and  C_19
REMARK    7  A    between atoms: N_16  and  C_18
REMARK                            x       y       z     vdW  Elec       q    Type
REMARK                         _______ _______ _______ _____ _____    ______ ____
ROOT
ATOM      1  S   UNL     1       1.364  -4.365   0.664  0.00  0.00    +0.152 S 
ATOM      2  O   UNL     1       1.293  -5.784   0.642  0.00  0.00    -0.131 OA
ATOM      3  O   UNL     1       2.100  -3.624  -0.300  0.00  0.00    -0.131 OA
ENDROOT
BRANCH   1   4
ATOM      4  C   UNL     1       2.009  -3.917   2.242  0.00  0.00    +0.146 A 
ATOM      5  C   UNL     1       2.771  -2.780   2.527  0.00  0.00    +0.063 A 
ATOM      6  C   UNL     1       3.065  -2.817   3.874  0.00  0.00    +0.106 A 
ATOM      7  N   UNL     1       2.491  -3.956   4.393  0.00  0.00    -0.344 N 
ATOM      8  C   UNL     1       1.849  -4.611   3.394  0.00  0.00    +0.116 A 
ATOM      9  C   UNL     1       2.557  -4.385   5.792  0.00  0.00    +0.149 C 
BRANCH   6  10
ATOM     10  C   UNL     1       3.847  -1.825   4.618  0.00  0.00    +0.258 C 
ATOM     11  O   UNL     1       4.114  -2.015   5.790  0.00  0.00    -0.269 OA
ATOM     12  N   UNL     1       4.270  -0.702   4.004  0.00  0.00    -0.324 N 
ATOM     13  H   UNL     1       3.994  -0.513   3.094  0.00  0.00    +0.145 HD
ATOM     14  H   UNL     1       4.851  -0.083   4.473  0.00  0.00    +0.145 HD
ENDBRANCH   6  10
ENDBRANCH   1   4
BRANCH   1  15
ATOM     15  O   UNL     1      -0.069  -3.856   0.603  0.00  0.00    -0.342 OA
BRANCH  15  20
ATOM     16  C   UNL     1      -0.492   1.717  -0.096  0.00  0.00    +0.044 C 
ATOM     17  C   UNL     1      -0.379   0.226   0.091  0.00  0.00    -0.050 A 
ATOM     18  C   UNL     1      -0.209  -0.300   1.359  0.00  0.00    +0.007 A 
ATOM     19  C   UNL     1      -0.105  -1.667   1.533  0.00  0.00    +0.049 A 
ATOM     20  C   UNL     1      -0.172  -2.512   0.434  0.00  0.00    +0.160 A 
ATOM     21  C   UNL     1      -0.343  -1.982  -0.836  0.00  0.00    -0.006 A 
ATOM     22  C   UNL     1      -0.452  -0.615  -1.004  0.00  0.00    +0.010 A 
ATOM     23  C   UNL     1      -0.416  -2.897  -2.031  0.00  0.00    +0.047 C 
ENDBRANCH  15  20
ENDBRANCH   1  15
TORSDOF 4
