REMARK  Name = ZINC63472898
REMARK  6 active torsions:
REMARK  status: ('A' for Active; 'I' for Inactive)
REMARK    1  A    between atoms: C_4  and  O_40
REMARK    2  A    between atoms: C_5  and  C_7
REMARK    3  A    between atoms: N_15  and  C_18
REMARK    4  A    between atoms: C_25  and  C_27
REMARK    5  A    between atoms: C_25  and  C_37
REMARK    6  A    between atoms: C_27  and  C_28
REMARK                            x       y       z     vdW  Elec       q    Type
REMARK                         _______ _______ _______ _____ _____    ______ ____
ROOT
ATOM      1  C   UNL     1       1.227  -2.187  -0.022  0.00  0.00    -0.023 C 
ATOM      2  C   UNL     1       1.314  -2.703  -1.448  0.00  0.00    +0.077 C 
ATOM      3  C   UNL     1      -0.224  -2.699  -1.792  0.00  0.00    +0.086 C 
ATOM      4  C   UNL     1      -0.203  -2.797  -3.230  0.00  0.00    +0.229 C 
ATOM      5  O   UNL     1      -1.001  -3.369  -3.942  0.00  0.00    -0.275 OA
ATOM      6  N   UNL     1       0.916  -2.103  -3.619  0.00  0.00    -0.210 N 
ATOM      7  C   UNL     1       1.765  -1.822  -2.572  0.00  0.00    +0.229 C 
ATOM      8  O   UNL     1       2.680  -1.028  -2.555  0.00  0.00    -0.275 OA
ATOM      9  C   UNL     1      -0.801  -3.381  -0.622  0.00  0.00    +0.052 C 
ATOM     10  N   UNL     1      -0.057  -2.723   0.523  0.00  0.00    +0.396 N 
ATOM     11  H   UNL     1       0.135  -3.408   1.239  0.00  0.00    -0.083 HD
ATOM     12  H   UNL     1      -0.606  -1.970   0.908  0.00  0.00    -0.083 HD
ENDROOT
BRANCH   6  13
ATOM     13  C   UNL     1       1.176  -1.728  -4.945  0.00  0.00    +0.044 A 
ATOM     14  C   UNL     1       0.274  -2.054  -5.949  0.00  0.00    +0.025 A 
ATOM     15  C   UNL     1       0.532  -1.683  -7.255  0.00  0.00    +0.022 A 
ATOM     16  C   UNL     1       1.689  -0.989  -7.562  0.00  0.00    +0.041 A 
ATOM     17  C   UNL     1       2.590  -0.664  -6.563  0.00  0.00    +0.022 A 
ATOM     18  C   UNL     1       2.333  -1.027  -5.255  0.00  0.00    +0.025 A 
ATOM     19 CL   UNL     1       2.011  -0.525  -9.204  0.00  0.00    -0.084 Cl
ENDBRANCH   6  13
BRANCH   1  24
ATOM     20  C   UNL     1      -0.014   1.379  -0.088  0.00  0.00    +0.000 A 
ATOM     21  C   UNL     1       1.170   2.088   0.002  0.00  0.00    +0.004 A 
ATOM     22  C   UNL     1       2.374   1.417   0.084  0.00  0.00    +0.045 A 
ATOM     23  C   UNL     1       2.396   0.029   0.077  0.00  0.00    +0.118 A 
ATOM     24  C   UNL     1       1.207  -0.680  -0.013  0.00  0.00    -0.019 A 
ATOM     25  C   UNL     1       0.005  -0.004  -0.096  0.00  0.00    +0.005 A 
BRANCH  23  26
ATOM     26  O   UNL     1       3.579  -0.633   0.157  0.00  0.00    -0.507 OA
ATOM     27  H   UNL     1       3.859  -0.831   1.062  0.00  0.00    +0.292 HD
ENDBRANCH  23  26
ENDBRANCH   1  24
BRANCH   9  28
ATOM     28  C   UNL     1      -0.530  -4.863  -0.678  0.00  0.00    +0.347 C 
ATOM     29  O   UNL     1       0.104  -5.401   0.213  0.00  0.00    -0.248 OA
ATOM     30  O   UNL     1      -0.944  -5.523  -1.616  0.00  0.00    -0.248 OA
ENDBRANCH   9  28
BRANCH   9  31
ATOM     31  C   UNL     1      -2.302  -3.105  -0.515  0.00  0.00    +0.033 C 
BRANCH  31  32
ATOM     32  C   UNL     1      -2.836  -3.714   0.756  0.00  0.00    -0.042 C 
ATOM     33  C   UNL     1      -3.009  -3.093   1.945  0.00  0.00    -0.001 A 
ATOM     34  C   UNL     1      -2.761  -1.718   2.394  0.00  0.00    +0.010 A 
ATOM     35  C   UNL     1      -3.039  -1.386   3.675  0.00  0.00    +0.001 A 
ATOM     36  C   UNL     1      -3.558  -2.320   4.582  0.00  0.00    +0.002 A 
ATOM     37  C   UNL     1      -3.812  -3.601   4.244  0.00  0.00    +0.026 A 
ATOM     38  C   UNL     1      -3.557  -4.060   2.922  0.00  0.00    +0.043 A 
ATOM     39  N   UNL     1      -3.716  -5.234   2.360  0.00  0.00    -0.380 N 
ATOM     40  C   UNL     1      -3.292  -5.141   0.958  0.00  0.00    +0.144 C 
ATOM     41  H   UNL     1      -4.060  -6.029   2.796  0.00  0.00    +0.160 HD
ENDBRANCH  31  32
ENDBRANCH   9  31
TORSDOF 6
