REMARK  Name = ZINC38766288
REMARK  12 active torsions:
REMARK  status: ('A' for Active; 'I' for Inactive)
REMARK    1  A    between atoms: C_1  and  C_2
REMARK    2  A    between atoms: C_2  and  O_3
REMARK    3  A    between atoms: O_3  and  C_4
REMARK    4  A    between atoms: C_9  and  O_10
REMARK    5  A    between atoms: O_10  and  C_11
REMARK    6  A    between atoms: C_12  and  C_30
REMARK    7  A    between atoms: C_15  and  C_17
REMARK    8  A    between atoms: C_20  and  O_24
REMARK    9  A    between atoms: C_22  and  O_23
REMARK   10  A    between atoms: O_24  and  C_25
REMARK   11  A    between atoms: C_25  and  C_26
REMARK   12  A    between atoms: N_28  and  N_29
REMARK                            x       y       z     vdW  Elec       q    Type
REMARK                         _______ _______ _______ _____ _____    ______ ____
ROOT
ATOM      1  C   UNL     1       2.722  -2.168   4.298  0.00  0.00    +0.156 C 
ATOM      2  C   UNL     1       2.847  -3.499   4.483  0.00  0.00    +0.098 C 
ATOM      3  N   UNL     1       3.462  -3.760   5.642  0.00  0.00    -0.179 NA
ATOM      4  N   UNL     1       3.784  -2.765   6.295  0.00  0.00    -0.294 N 
ATOM      5  C   UNL     1       3.367  -1.572   5.537  0.00  0.00    +0.200 C 
ATOM      6  C   UNL     1       2.361  -4.547   3.516  0.00  0.00    +0.071 C 
ATOM      7  H   UNL     1       4.235  -2.767   7.153  0.00  0.00    +0.184 HD
ENDROOT
BRANCH   5   8
ATOM      8  C   UNL     1       2.367  -0.765   6.324  0.00  0.00    +0.025 A 
ATOM      9  C   UNL     1       1.767  -1.311   7.444  0.00  0.00    +0.013 A 
ATOM     10  C   UNL     1       0.850  -0.574   8.167  0.00  0.00    +0.046 A 
ATOM     11  C   UNL     1       0.528   0.717   7.771  0.00  0.00    +0.125 A 
ATOM     12  C   UNL     1       1.127   1.266   6.649  0.00  0.00    +0.091 A 
ATOM     13  C   UNL     1       2.052   0.527   5.928  0.00  0.00    +0.126 A 
BRANCH  13  14
ATOM     14  O   UNL     1       2.646   1.065   4.830  0.00  0.00    -0.506 OA
ATOM     15  H   UNL     1       2.167   0.906   4.006  0.00  0.00    +0.292 HD
ENDBRANCH  13  14
BRANCH  11  16
ATOM     16  O   UNL     1      -0.375   1.441   8.483  0.00  0.00    -0.483 OA
BRANCH  16  17
ATOM     17  C   UNL     1      -0.954   0.811   9.628  0.00  0.00    +0.325 C 
BRANCH  17  18
ATOM     18  C   UNL     1      -1.924   1.759  10.286  0.00  0.00    +0.264 C 
ATOM     19  O   UNL     1      -2.102   2.864   9.820  0.00  0.00    -0.271 OA
ATOM     20  N   UNL     1      -2.594   1.377  11.392  0.00  0.00    -0.251 N 
ATOM     21  H   UNL     1      -2.451   0.493  11.764  0.00  0.00    +0.169 HD
BRANCH  20  22
ATOM     22  N   UNL     1      -3.473   2.236  11.988  0.00  0.00    -0.254 NA
ATOM     23  H   UNL     1      -3.896   1.814  12.801  0.00  0.00    +0.140 HD
ATOM     24  H   UNL     1      -3.022   3.107  12.226  0.00  0.00    +0.140 HD
ENDBRANCH  20  22
ENDBRANCH  17  18
ENDBRANCH  16  17
ENDBRANCH  11  16
ENDBRANCH   5   8
BRANCH   1  25
ATOM     25  O   UNL     1       2.161  -1.520   3.255  0.00  0.00    -0.452 OA
BRANCH  25  31
ATOM     26  C   UNL     1       2.427  -0.013   1.427  0.00  0.00    +0.162 A 
ATOM     27  C   UNL     1       3.259   0.738   0.612  0.00  0.00    +0.049 A 
ATOM     28  C   UNL     1       4.627   0.713   0.808  0.00  0.00    +0.004 A 
ATOM     29  C   UNL     1       5.169  -0.061   1.818  0.00  0.00    +0.004 A 
ATOM     30  C   UNL     1       4.346  -0.812   2.636  0.00  0.00    +0.050 A 
ATOM     31  C   UNL     1       2.973  -0.787   2.448  0.00  0.00    +0.170 A 
BRANCH  26  32
ATOM     32  O   UNL     1       1.081   0.011   1.235  0.00  0.00    -0.489 OA
BRANCH  32  34
ATOM     33  C   UNL     1      -0.933   0.726   0.107  0.00  0.00    +0.048 C 
ATOM     34  C   UNL     1       0.593   0.827   0.169  0.00  0.00    +0.226 C 
ENDBRANCH  32  34
ENDBRANCH  26  32
ENDBRANCH  25  31
ENDBRANCH   1  25
TORSDOF 10
