REMARK  Name = ZINC50060941
REMARK  9 active torsions:
REMARK  status: ('A' for Active; 'I' for Inactive)
REMARK    1  A    between atoms: C_1  and  C_2
REMARK    2  A    between atoms: C_5  and  C_30
REMARK    3  A    between atoms: N_8  and  C_10
REMARK    4  A    between atoms: C_10  and  C_11
REMARK    5  A    between atoms: C_11  and  C_13
REMARK    6  A    between atoms: C_11  and  N_14
REMARK    7  A    between atoms: N_17  and  C_18
REMARK    8  A    between atoms: N_24  and  C_29
REMARK    9  A    between atoms: N_27  and  C_28
REMARK                            x       y       z     vdW  Elec       q    Type
REMARK                         _______ _______ _______ _____ _____    ______ ____
ROOT
ATOM      1  N   UNL     1       2.929  -0.254   2.348  0.00  0.00    -0.298 N 
ATOM      2  C   UNL     1       3.972   0.471   1.898  0.00  0.00    +0.304 C 
ATOM      3  O   UNL     1       4.530   1.259   2.637  0.00  0.00    -0.253 OA
ATOM      4  N   UNL     1       4.398   0.322   0.627  0.00  0.00    -0.269 N 
ATOM      5  H   UNL     1       2.484  -0.882   1.759  0.00  0.00    +0.150 HD
ATOM      6  H   UNL     1       4.003  -0.359   0.060  0.00  0.00    +0.156 HD
ENDROOT
BRANCH   4   7
ATOM      7  C   UNL     1       5.410   1.151   0.126  0.00  0.00    +0.037 A 
ATOM      8  C   UNL     1       6.313   0.655  -0.808  0.00  0.00    +0.025 A 
ATOM      9  C   UNL     1       7.312   1.467  -1.306  0.00  0.00    +0.030 A 
ATOM     10  C   UNL     1       7.416   2.781  -0.875  0.00  0.00    +0.070 A 
ATOM     11  C   UNL     1       6.510   3.281   0.062  0.00  0.00    +0.071 A 
ATOM     12  C   UNL     1       5.505   2.465   0.557  0.00  0.00    +0.051 A 
ATOM     13  N   UNL     1       6.864   4.609   0.295  0.00  0.00    -0.295 N 
ATOM     14  C   UNL     1       7.935   4.903  -0.466  0.00  0.00    +0.330 A 
ATOM     15  O   UNL     1       8.494   5.983  -0.500  0.00  0.00    -0.246 OA
ATOM     16  N   UNL     1       8.293   3.821  -1.183  0.00  0.00    -0.295 N 
ATOM     17  C   UNL     1       9.411   3.750  -2.126  0.00  0.00    +0.154 C 
ATOM     18  C   UNL     1       6.184   5.528   1.211  0.00  0.00    +0.154 C 
ENDBRANCH   4   7
BRANCH   1  19
ATOM     19  C   UNL     1       2.467  -0.092   3.729  0.00  0.00    +0.055 C 
ATOM     20  C   UNL     1       3.331  -0.945   4.660  0.00  0.00    +0.026 C 
BRANCH  19  21
ATOM     21  C   UNL     1       1.008  -0.540   3.834  0.00  0.00    -0.057 C 
BRANCH  21  27
ATOM     22  C   UNL     1      -1.368   0.158   0.418  0.00  0.00    +0.005 C 
ATOM     23  C   UNL     1      -2.001   0.387   1.792  0.00  0.00    -0.031 C 
ATOM     24  C   UNL     1      -2.033   1.887   2.097  0.00  0.00    +0.003 C 
ATOM     25  C   UNL     1      -0.598   2.415   2.167  0.00  0.00    -0.031 C 
ATOM     26  C   UNL     1       0.179   1.625   3.223  0.00  0.00    -0.076 C 
ATOM     27  N   UNL     1       0.196   0.202   2.861  0.00  0.00    +0.381 N 
ATOM     28  C   UNL     1      -1.173  -0.329   2.861  0.00  0.00    -0.076 C 
ATOM     29  C   UNL     1      -0.616   3.896   2.548  0.00  0.00    +0.005 C 
ATOM     30  H   UNL     1       0.597   0.095   1.941  0.00  0.00    -0.082 HD
ENDBRANCH  21  27
ENDBRANCH  19  21
ENDBRANCH   1  19
TORSDOF 4
