REMARK  Name = ZINC19327658
REMARK  9 active torsions:
REMARK  status: ('A' for Active; 'I' for Inactive)
REMARK    1  A    between atoms: C_1  and  C_2
REMARK    2  A    between atoms: C_5  and  O_30
REMARK    3  A    between atoms: C_6  and  C_8
REMARK    4  A    between atoms: C_8  and  N_9
REMARK    5  A    between atoms: N_12  and  C_21
REMARK    6  A    between atoms: C_13  and  C_15
REMARK    7  A    between atoms: C_21  and  C_22
REMARK    8  A    between atoms: C_24  and  O_29
REMARK    9  A    between atoms: C_27  and  C_28
REMARK                            x       y       z     vdW  Elec       q    Type
REMARK                         _______ _______ _______ _____ _____    ______ ____
ROOT
ATOM      1  N   UNL     1      -1.081  -2.605   3.779  0.00  0.00    +0.376 N 
ATOM      2  C   UNL     1      -2.112  -1.872   4.550  0.00  0.00    -0.099 C 
ATOM      3  C   UNL     1      -3.047  -2.995   5.063  0.00  0.00    -0.099 C 
ATOM      4  N   UNL     1      -2.087  -4.095   5.350  0.00  0.00    +0.376 N 
ATOM      5  C   UNL     1      -1.073  -3.993   4.278  0.00  0.00    -0.099 C 
ATOM      6  H   UNL     1      -1.659  -3.961   6.254  0.00  0.00    -0.083 HD
ATOM      7  H   UNL     1      -1.311  -2.595   2.796  0.00  0.00    -0.083 HD
ENDROOT
BRANCH   5   8
ATOM      8  C   UNL     1       0.288  -4.329   4.831  0.00  0.00    -0.077 A 
ATOM      9  C   UNL     1       0.688  -3.809   6.047  0.00  0.00    +0.000 A 
ATOM     10  C   UNL     1       1.937  -4.117   6.554  0.00  0.00    +0.000 A 
ATOM     11  C   UNL     1       2.785  -4.946   5.844  0.00  0.00    +0.000 A 
ATOM     12  C   UNL     1       2.385  -5.468   4.628  0.00  0.00    +0.000 A 
ATOM     13  C   UNL     1       1.134  -5.163   4.123  0.00  0.00    +0.000 A 
ENDBRANCH   5   8
BRANCH   1  14
ATOM     14  C   UNL     1       0.236  -1.989   3.992  0.00  0.00    -0.041 C 
BRANCH  14  20
ATOM     15  C   UNL     1       0.114   2.984   4.528  0.00  0.00    +0.044 C 
ATOM     16  C   UNL     1       0.192   1.769   3.639  0.00  0.00    -0.050 A 
ATOM     17  C   UNL     1       0.276   1.922   2.268  0.00  0.00    +0.007 A 
ATOM     18  C   UNL     1       0.346   0.811   1.451  0.00  0.00    +0.046 A 
ATOM     19  C   UNL     1       0.334  -0.460   2.008  0.00  0.00    +0.118 A 
ATOM     20  C   UNL     1       0.250  -0.611   3.384  0.00  0.00    -0.022 A 
ATOM     21  C   UNL     1       0.184   0.504   4.197  0.00  0.00    +0.008 A 
BRANCH  19  22
ATOM     22  O   UNL     1       0.403  -1.555   1.206  0.00  0.00    -0.507 OA
ATOM     23  H   UNL     1       1.304  -1.857   1.029  0.00  0.00    +0.292 HD
ENDBRANCH  19  22
ENDBRANCH  14  20
ENDBRANCH   1  14
BRANCH   4  24
ATOM     24  C   UNL     1      -2.767  -5.397   5.291  0.00  0.00    -0.045 C 
BRANCH  24  25
ATOM     25  C   UNL     1      -3.780  -5.486   6.402  0.00  0.00    -0.058 A 
ATOM     26  C   UNL     1      -5.128  -5.377   6.118  0.00  0.00    +0.047 A 
ATOM     27  C   UNL     1      -6.060  -5.460   7.142  0.00  0.00    +0.117 A 
ATOM     28  C   UNL     1      -5.637  -5.651   8.449  0.00  0.00    +0.045 A 
ATOM     29  C   UNL     1      -4.288  -5.759   8.728  0.00  0.00    +0.007 A 
ATOM     30  C   UNL     1      -3.361  -5.681   7.705  0.00  0.00    -0.049 A 
ATOM     31  C   UNL     1      -1.891  -5.806   8.011  0.00  0.00    +0.044 C 
BRANCH  27  32
ATOM     32  O   UNL     1      -7.386  -5.353   6.865  0.00  0.00    -0.507 OA
ATOM     33  H   UNL     1      -7.817  -6.197   6.671  0.00  0.00    +0.292 HD
ENDBRANCH  27  32
ENDBRANCH  24  25
ENDBRANCH   4  24
TORSDOF 7
