REMARK  Name = ZINC14000598
REMARK  14 active torsions:
REMARK  status: ('A' for Active; 'I' for Inactive)
REMARK    1  A    between atoms: C_1  and  C_2
REMARK    2  A    between atoms: C_2  and  C_3
REMARK    3  A    between atoms: C_2  and  C_4
REMARK    4  A    between atoms: C_2  and  O_5
REMARK    5  A    between atoms: O_5  and  C_6
REMARK    6  A    between atoms: C_6  and  C_8
REMARK    7  A    between atoms: C_8  and  C_9
REMARK    8  A    between atoms: C_9  and  C_10
REMARK    9  A    between atoms: C_10  and  C_12
REMARK   10  A    between atoms: C_10  and  N_24
REMARK   11  A    between atoms: N_14  and  C_15
REMARK   12  A    between atoms: C_15  and  C_16
REMARK   13  A    between atoms: C_19  and  C_22
REMARK   14  A    between atoms: C_25  and  C_27
REMARK                            x       y       z     vdW  Elec       q    Type
REMARK                         _______ _______ _______ _____ _____    ______ ____
ROOT
ATOM      1  C   UNL     1       2.941  -2.130   0.354  0.00  0.00    +0.160 C 
ENDROOT
BRANCH   1   2
ATOM      2  C   UNL     1       2.798  -0.632   0.267  0.00  0.00    +0.234 C 
ATOM      3  O   UNL     1       3.499   0.000  -0.494  0.00  0.00    -0.274 OA
ATOM      4  N   UNL     1       1.892   0.004   1.035  0.00  0.00    -0.310 N 
ATOM      5  H   UNL     1       1.331  -0.502   1.644  0.00  0.00    +0.149 HD
BRANCH   4   6
ATOM      6  C   UNL     1       1.753   1.460   0.950  0.00  0.00    +0.139 C 
BRANCH   6   7
ATOM      7  C   UNL     1       0.679   1.919   1.903  0.00  0.00    -0.030 A 
ATOM      8  C   UNL     1      -0.632   2.005   1.474  0.00  0.00    +0.006 A 
ATOM      9  C   UNL     1      -1.620   2.420   2.343  0.00  0.00    +0.011 A 
ATOM     10  C   UNL     1      -1.292   2.762   3.655  0.00  0.00    +0.012 A 
ATOM     11  C   UNL     1       0.033   2.678   4.081  0.00  0.00    +0.011 A 
ATOM     12  C   UNL     1       1.011   2.257   3.203  0.00  0.00    +0.006 A 
BRANCH  10  13
ATOM     13  C   UNL     1      -2.347   3.212   4.592  0.00  0.00    +0.094 C 
ATOM     14  N   UNL     1      -3.655   3.294   4.168  0.00  0.00    -0.345 N 
ATOM     15  H   UNL     1      -2.658   3.837   6.504  0.00  0.00    +0.157 HD
ATOM     16  H   UNL     1      -3.886   3.057   3.256  0.00  0.00    +0.144 HD
ATOM     17  H   UNL     1      -4.346   3.589   4.782  0.00  0.00    +0.144 HD
ATOM     18  N   UNL     1      -1.968   3.521   5.822  0.00  0.00    -0.387 N 
ATOM     19  H   UNL     1      -0.980   3.444   6.090  0.00  0.00    +0.157 HD
ENDBRANCH  10  13
ENDBRANCH   6   7
ENDBRANCH   4   6
ENDBRANCH   1   2
BRANCH   1  20
ATOM     20  N   UNL     1       4.248  -2.528  -0.175  0.00  0.00    -0.300 N 
ATOM     21  C   UNL     1       4.573  -2.244  -1.451  0.00  0.00    +0.251 C 
ATOM     22  O   UNL     1       3.781  -1.657  -2.165  0.00  0.00    -0.270 OA
ATOM     23  H   UNL     1       4.879  -2.995   0.394  0.00  0.00    +0.150 HD
BRANCH  21  24
ATOM     24  C   UNL     1       5.881  -2.641  -1.980  0.00  0.00    +0.074 A 
ATOM     25  C   UNL     1       6.406  -2.448  -3.249  0.00  0.00    +0.021 A 
ATOM     26  C   UNL     1       7.671  -2.926  -3.481  0.00  0.00    +0.008 A 
ATOM     27  C   UNL     1       8.338  -3.554  -2.477  0.00  0.00    +0.046 A 
ATOM     28  S   UNL     1       7.215  -3.494  -1.158  0.00  0.00    -0.092 S 
ENDBRANCH  21  24
ENDBRANCH   1  20
BRANCH   1  29
ATOM     29  C   UNL     1       1.835  -2.796  -0.466  0.00  0.00    +0.043 C 
BRANCH  29  30
ATOM     30  C   UNL     1       1.903  -4.313  -0.277  0.00  0.00    +0.123 C 
BRANCH  30  31
ATOM     31  C   UNL     1       0.813  -4.970  -1.085  0.00  0.00    +0.308 C 
ATOM     32  O   UNL     1       0.059  -4.294  -1.744  0.00  0.00    -0.251 OA
BRANCH  31  33
ATOM     33  O   UNL     1       0.681  -6.305  -1.073  0.00  0.00    -0.459 OA
BRANCH  33  35
ATOM     34  C   UNL     1      -0.183  -6.490  -3.342  0.00  0.00    +0.055 C 
ATOM     35  C   UNL     1      -0.391  -6.869  -1.874  0.00  0.00    +0.105 C 
ATOM     36  C   UNL     1      -0.385  -8.393  -1.735  0.00  0.00    +0.055 C 
ATOM     37  C   UNL     1      -1.734  -6.318  -1.391  0.00  0.00    +0.055 C 
ENDBRANCH  33  35
ENDBRANCH  31  33
ENDBRANCH  30  31
ENDBRANCH  29  30
ENDBRANCH   1  29
TORSDOF 11
