REMARK  Name = ZINC51048346
REMARK  8 active torsions:
REMARK  status: ('A' for Active; 'I' for Inactive)
REMARK    1  A    between atoms: C_1  and  C_2
REMARK    2  A    between atoms: C_2  and  C_3
REMARK    3  A    between atoms: C_2  and  C_4
REMARK    4  A    between atoms: C_4  and  N_5
REMARK    5  A    between atoms: C_9  and  C_11
REMARK    6  A    between atoms: C_11  and  N_12
REMARK    7  A    between atoms: C_16  and  C_19
REMARK    8  A    between atoms: N_21  and  C_22
REMARK                            x       y       z     vdW  Elec       q    Type
REMARK                         _______ _______ _______ _____ _____    ______ ____
ROOT
ATOM      1  N   UNL     1      -7.356  -0.625  -4.069  0.00  0.00    +0.386 N 
ATOM      2  C   UNL     1      -8.109   0.028  -2.992  0.00  0.00    -0.078 C 
ATOM      3  C   UNL     1      -9.521  -0.556  -2.924  0.00  0.00    -0.018 C 
ATOM      4  C   UNL     1     -10.230  -0.320  -4.261  0.00  0.00    +0.009 C 
ATOM      5  C   UNL     1      -9.398  -0.942  -5.386  0.00  0.00    +0.058 C 
ATOM      6  C   UNL     1      -7.990  -0.343  -5.362  0.00  0.00    -0.065 C 
ATOM      7  H   UNL     1      -7.344  -1.622  -3.912  0.00  0.00    -0.081 HD
ENDROOT
BRANCH   5   8
ATOM      8  C   UNL     1     -10.048  -0.649  -6.714  0.00  0.00    +0.215 C 
ATOM      9  O   UNL     1      -9.443  -0.026  -7.561  0.00  0.00    -0.276 OA
ATOM     10  N   UNL     1     -11.301  -1.080  -6.960  0.00  0.00    -0.312 N 
ATOM     11  H   UNL     1     -11.784  -1.579  -6.283  0.00  0.00    +0.149 HD
BRANCH  10  12
ATOM     12  C   UNL     1     -11.932  -0.796  -8.251  0.00  0.00    +0.073 C 
ATOM     13  C   UNL     1     -13.390  -0.331  -8.237  0.00  0.00    +0.024 C 
ATOM     14  C   UNL     1     -13.041  -1.741  -8.718  0.00  0.00    +0.024 C 
ENDBRANCH  10  12
ENDBRANCH   5   8
BRANCH   1  15
ATOM     15  C   UNL     1      -5.978  -0.117  -4.079  0.00  0.00    +0.019 C 
BRANCH  15  20
ATOM     16  N   UNL     1      -2.105  -0.148  -1.230  0.00  0.00    -0.299 N 
ATOM     17  C   UNL     1      -3.387  -0.508  -1.443  0.00  0.00    +0.306 C 
ATOM     18  O   UNL     1      -3.985  -1.152  -0.604  0.00  0.00    -0.252 OA
ATOM     19  N   UNL     1      -4.005  -0.154  -2.587  0.00  0.00    -0.242 N 
ATOM     20  C   UNL     1      -5.286  -0.513  -2.800  0.00  0.00    +0.204 C 
ATOM     21  O   UNL     1      -5.883  -1.156  -1.963  0.00  0.00    -0.277 OA
ATOM     22  H   UNL     1      -1.628   0.366  -1.901  0.00  0.00    +0.150 HD
ATOM     23  H   UNL     1      -3.528   0.360  -3.257  0.00  0.00    +0.159 HD
BRANCH  16  24
ATOM     24  C   UNL     1      -1.433  -0.534   0.013  0.00  0.00    +0.108 C 
BRANCH  24  26
ATOM     25  C   UNL     1      -0.019   1.526   0.010  0.00  0.00    +0.009 C 
ATOM     26  C   UNL     1       0.002  -0.004   0.002  0.00  0.00    -0.000 C 
ATOM     27  C   UNL     1       0.742  -0.511   1.242  0.00  0.00    +0.009 C 
ENDBRANCH  24  26
ENDBRANCH  16  24
ENDBRANCH  15  20
ENDBRANCH   1  15
TORSDOF 6
