REMARK  Name = ZINC16443398
REMARK  10 active torsions:
REMARK  status: ('A' for Active; 'I' for Inactive)
REMARK    1  A    between atoms: C_1  and  C_2
REMARK    2  A    between atoms: C_2  and  C_3
REMARK    3  A    between atoms: C_3  and  N_4
REMARK    4  A    between atoms: C_8  and  C_10
REMARK    5  A    between atoms: C_10  and  N_47
REMARK    6  A    between atoms: C_11  and  C_12
REMARK    7  A    between atoms: C_11  and  N_47
REMARK    8  A    between atoms: C_13  and  C_14
REMARK    9  A    between atoms: C_13  and  N_47
REMARK   10  A    between atoms: N_16  and  C_17
REMARK                            x       y       z     vdW  Elec       q    Type
REMARK                         _______ _______ _______ _____ _____    ______ ____
ROOT
ATOM      1  N   UNL     1       5.861   2.552  -1.047  0.00  0.00    +0.391 N 
ATOM      2  H   UNL     1       5.525   3.080  -1.861  0.00  0.00    -0.080 HD
ENDROOT
BRANCH   1   3
ATOM      3  C   UNL     1       6.207   3.502   0.031  0.00  0.00    -0.081 C 
ATOM      4  C   UNL     1       6.784   2.757   1.237  0.00  0.00    -0.017 C 
ENDBRANCH   1   3
BRANCH   1   5
ATOM      5  C   UNL     1       7.056   1.775  -1.439  0.00  0.00    +0.020 C 
BRANCH   5  10
ATOM      6  N   UNL     1      11.017   2.445  -4.080  0.00  0.00    -0.299 N 
ATOM      7  C   UNL     1       9.903   2.954  -3.519  0.00  0.00    +0.306 C 
ATOM      8  O   UNL     1       9.635   4.131  -3.659  0.00  0.00    -0.252 OA
ATOM      9  N   UNL     1       9.085   2.157  -2.802  0.00  0.00    -0.242 N 
ATOM     10  C   UNL     1       7.971   2.666  -2.241  0.00  0.00    +0.204 C 
ATOM     11  O   UNL     1       7.704   3.840  -2.380  0.00  0.00    -0.277 OA
ATOM     12  H   UNL     1      11.231   1.505  -3.968  0.00  0.00    +0.150 HD
ATOM     13  H   UNL     1       9.299   1.218  -2.690  0.00  0.00    +0.159 HD
BRANCH   6  14
ATOM     14  C   UNL     1      11.906   3.310  -4.859  0.00  0.00    +0.105 C 
BRANCH  14  16
ATOM     15  C   UNL     1      14.016   3.395  -6.195  0.00  0.00    +0.005 C 
ATOM     16  C   UNL     1      13.088   2.491  -5.381  0.00  0.00    +0.015 C 
ENDBRANCH  14  16
ENDBRANCH   6  14
ENDBRANCH   5  10
ENDBRANCH   1   5
BRANCH   1  17
ATOM     17  C   UNL     1       4.792   1.638  -0.592  0.00  0.00    +0.020 C 
BRANCH  17  18
ATOM     18  C   UNL     1       3.522   2.429  -0.410  0.00  0.00    +0.201 C 
ATOM     19  O   UNL     1       3.516   3.623  -0.620  0.00  0.00    -0.278 OA
ATOM     20  N   UNL     1       2.393   1.808  -0.014  0.00  0.00    -0.285 N 
ATOM     21  H   UNL     1       2.410   0.863   0.203  0.00  0.00    +0.155 HD
BRANCH  20  22
ATOM     22  C   UNL     1       1.196   2.528   0.083  0.00  0.00    +0.070 A 
ATOM     23  C   UNL     1       0.351   2.331   1.168  0.00  0.00    +0.064 A 
ATOM     24  C   UNL     1      -0.830   3.043   1.262  0.00  0.00    +0.022 A 
ATOM     25  C   UNL     1      -1.170   3.951   0.276  0.00  0.00    +0.003 A 
ATOM     26  C   UNL     1      -0.330   4.154  -0.802  0.00  0.00    +0.022 A 
ATOM     27  C   UNL     1       0.850   3.441  -0.905  0.00  0.00    +0.064 A 
ATOM     28 CL   UNL     1       1.902   3.691  -2.264  0.00  0.00    -0.082 Cl
ATOM     29 CL   UNL     1       0.779   1.191   2.406  0.00  0.00    -0.082 Cl
ENDBRANCH  20  22
ENDBRANCH  17  18
ENDBRANCH   1  17
TORSDOF 8
