REMARK  Name = ZINC16843358
REMARK  5 active torsions:
REMARK  status: ('A' for Active; 'I' for Inactive)
REMARK    1  A    between atoms: C_1  and  O_2
REMARK    2  A    between atoms: O_2  and  C_3
REMARK    3  A    between atoms: C_6  and  C_11
REMARK    4  A    between atoms: C_8  and  O_9
REMARK    5  A    between atoms: O_9  and  C_10
REMARK                            x       y       z     vdW  Elec       q    Type
REMARK                         _______ _______ _______ _____ _____    ______ ____
ROOT
ATOM      1  C   UNL     1       1.532   0.032   6.141  0.00  0.00    +0.191 C 
ATOM      2  N   UNL     1       0.471  -0.081   7.140  0.00  0.00    -0.322 N 
ATOM      3  C   UNL     1      -0.491  -1.087   7.123  0.00  0.00    +0.055 A 
ATOM      4  C   UNL     1      -1.694  -0.878   7.797  0.00  0.00    +0.025 A 
ATOM      5  C   UNL     1      -2.659  -1.862   7.814  0.00  0.00    +0.002 A 
ATOM      6  C   UNL     1      -2.442  -3.064   7.165  0.00  0.00    +0.002 A 
ATOM      7  C   UNL     1      -1.254  -3.276   6.489  0.00  0.00    +0.030 A 
ATOM      8  C   UNL     1      -0.289  -2.291   6.462  0.00  0.00    +0.126 A 
ATOM      9  S   UNL     1       1.211  -2.552   5.565  0.00  0.00    +0.062 S 
ATOM     10  O   UNL     1       1.804  -3.735   6.082  0.00  0.00    -0.153 OA
ATOM     11  O   UNL     1       0.905  -2.383   4.187  0.00  0.00    -0.153 OA
ATOM     12  N   UNL     1       2.199  -1.278   6.004  0.00  0.00    -0.166 NA
ATOM     13  H   UNL     1       0.436   0.579   7.850  0.00  0.00    +0.148 HD
ATOM     14  H   UNL     1       3.149  -1.391   6.162  0.00  0.00    +0.150 HD
ENDROOT
BRANCH   1  18
ATOM     15  C   UNL     1      -0.148   1.182   2.380  0.00  0.00    +0.162 A 
ATOM     16  C   UNL     1       0.990   0.393   2.422  0.00  0.00    +0.050 A 
ATOM     17  C   UNL     1       1.534   0.028   3.639  0.00  0.00    +0.010 A 
ATOM     18  C   UNL     1       0.938   0.439   4.817  0.00  0.00    -0.008 A 
ATOM     19  C   UNL     1      -0.201   1.221   4.783  0.00  0.00    +0.056 A 
ATOM     20  C   UNL     1      -0.748   1.595   3.566  0.00  0.00    +0.162 A 
BRANCH  15  22
ATOM     21  C   UNL     1      -0.013   1.086   0.008  0.00  0.00    +0.277 C 
ATOM     22  O   UNL     1      -0.682   1.547   1.184  0.00  0.00    -0.491 OA
ENDBRANCH  15  22
BRANCH  20  23
ATOM     23  O   UNL     1      -1.869   2.365   3.531  0.00  0.00    -0.491 OA
ATOM     24  C   UNL     1      -2.430   2.752   4.787  0.00  0.00    +0.277 C 
ENDBRANCH  20  23
ENDBRANCH   1  18
TORSDOF 3
