REMARK  Name = ZINC03006959
REMARK  6 active torsions:
REMARK  status: ('A' for Active; 'I' for Inactive)
REMARK    1  A    between atoms: C_1  and  N_61
REMARK    2  A    between atoms: C_7  and  N_12
REMARK    3  A    between atoms: C_8  and  C_9
REMARK    4  A    between atoms: C_13  and  C_15
REMARK    5  A    between atoms: C_18  and  S_21
REMARK    6  A    between atoms: S_21  and  N_24
REMARK                            x       y       z     vdW  Elec       q    Type
REMARK                         _______ _______ _______ _____ _____    ______ ____
ROOT
ATOM      1  N   UNL     1       1.469   2.084   2.486  0.00  0.00    -0.275 N 
ATOM      2  C   UNL     1       2.215   2.523   3.518  0.00  0.00    +0.249 C 
ATOM      3  O   UNL     1       3.244   3.136   3.307  0.00  0.00    -0.270 OA
ATOM      4  H   UNL     1       0.648   1.595   2.654  0.00  0.00    +0.156 HD
ENDROOT
BRANCH   1  11
ATOM      5  C   UNL     1       4.162   3.495  -4.631  0.00  0.00    -0.096 C 
ATOM      6  C   UNL     1       2.017   2.978  -3.634  0.00  0.00    -0.074 C 
ATOM      7  C   UNL     1       1.330   2.047  -2.631  0.00  0.00    +0.018 C 
ATOM      8  C   UNL     1       1.880   2.355  -1.243  0.00  0.00    -0.027 A 
ATOM      9  C   UNL     1       3.038   3.042  -1.109  0.00  0.00    -0.021 A 
ATOM     10  S   UNL     1       3.287   3.171   0.637  0.00  0.00    -0.079 S 
ATOM     11  C   UNL     1       1.873   2.331   1.184  0.00  0.00    +0.085 A 
ATOM     12  C   UNL     1       1.245   1.963   0.001  0.00  0.00    +0.068 A 
ATOM     13  C   UNL     1       3.896   3.562  -2.220  0.00  0.00    -0.036 C 
ATOM     14  N   UNL     1       3.482   2.881  -3.470  0.00  0.00    +0.381 N 
ATOM     15  H   UNL     1       3.746   1.890  -3.414  0.00  0.00    -0.082 HD
BRANCH  12  16
ATOM     16  C   UNL     1      -0.014   1.213   0.009  0.00  0.00    +0.244 C 
ATOM     17  O   UNL     1       0.002  -0.004   0.002  0.00  0.00    -0.270 OA
ATOM     18  N   UNL     1      -1.191   1.871   0.018  0.00  0.00    -0.325 N 
ATOM     19  H   UNL     1      -2.024   1.375   0.019  0.00  0.00    +0.145 HD
ATOM     20  H   UNL     1      -1.204   2.841   0.023  0.00  0.00    +0.145 HD
ENDBRANCH  12  16
ENDBRANCH   1  11
BRANCH   2  21
ATOM     21  C   UNL     1       1.784   2.259   4.907  0.00  0.00    +0.037 A 
ATOM     22  C   UNL     1       0.601   1.561   5.153  0.00  0.00    +0.015 A 
ATOM     23  C   UNL     1       0.206   1.313   6.452  0.00  0.00    +0.029 A 
ATOM     24  C   UNL     1       0.975   1.765   7.509  0.00  0.00    +0.106 A 
ATOM     25  C   UNL     1       2.147   2.463   7.272  0.00  0.00    +0.029 A 
ATOM     26  C   UNL     1       2.555   2.713   5.979  0.00  0.00    +0.015 A 
BRANCH  24  27
ATOM     27  S   UNL     1       0.461   1.451   9.165  0.00  0.00    +0.061 S 
ATOM     28  O   UNL     1      -0.383   0.308   9.118  0.00  0.00    -0.153 OA
ATOM     29  O   UNL     1       1.631   1.502   9.970  0.00  0.00    -0.153 OA
BRANCH  27  30
ATOM     30  N   UNL     1      -0.491   2.723   9.632  0.00  0.00    -0.172 NA
ATOM     31  C   UNL     1       0.085   3.911  10.283  0.00  0.00    +0.114 C 
ATOM     32  C   UNL     1      -0.138   5.106   9.350  0.00  0.00    +0.052 C 
ATOM     33  C   UNL     1      -1.562   5.145   8.861  0.00  0.00    -0.042 A 
ATOM     34  C   UNL     1      -2.040   6.353   8.366  0.00  0.00    +0.004 A 
ATOM     35  C   UNL     1      -3.330   6.454   7.890  0.00  0.00    +0.000 A 
ATOM     36  C   UNL     1      -4.158   5.347   7.905  0.00  0.00    +0.000 A 
ATOM     37  C   UNL     1      -3.688   4.148   8.400  0.00  0.00    +0.005 A 
ATOM     38  C   UNL     1      -2.390   4.045   8.882  0.00  0.00    -0.028 A 
ATOM     39  C   UNL     1      -1.942   2.709   9.418  0.00  0.00    +0.144 C 
ENDBRANCH  27  30
ENDBRANCH  24  27
ENDBRANCH   2  21
TORSDOF 5
