REMARK  Name = ZINC08993692
REMARK  7 active torsions:
REMARK  status: ('A' for Active; 'I' for Inactive)
REMARK    1  A    between atoms: C_1  and  C_2
REMARK    2  A    between atoms: C_5  and  S_7
REMARK    3  A    between atoms: S_7  and  C_8
REMARK    4  A    between atoms: C_8  and  C_9
REMARK    5  A    between atoms: N_19  and  C_20
REMARK    6  A    between atoms: C_25  and  O_26
REMARK    7  A    between atoms: O_26  and  C_27
REMARK                            x       y       z     vdW  Elec       q    Type
REMARK                         _______ _______ _______ _____ _____    ______ ____
ROOT
ATOM      1  C   UNL     1       0.092  -6.689  -0.430  0.00  0.00    +0.060 A 
ATOM      2  C   UNL     1      -1.042  -7.423  -0.621  0.00  0.00    +0.094 A 
ATOM      3  C   UNL     1      -1.002  -8.809  -0.382  0.00  0.00    +0.253 A 
ATOM      4  O   UNL     1      -1.998  -9.496  -0.543  0.00  0.00    -0.268 OA
ATOM      5  N   UNL     1       0.158  -9.363   0.029  0.00  0.00    -0.293 N 
ATOM      6  C   UNL     1       1.257  -8.581   0.202  0.00  0.00    +0.211 A 
ATOM      7  N   UNL     1       1.214  -7.285  -0.029  0.00  0.00    -0.218 NA
ATOM      8  N   UNL     1       2.433  -9.153   0.621  0.00  0.00    -0.298 N 
ATOM      9  C   UNL     1       3.586  -8.396   0.678  0.00  0.00    +0.180 C 
ATOM     10  N   UNL     1       4.723  -8.963   0.969  0.00  0.00    -0.371 N 
ATOM     11  N   UNL     1       3.535  -7.045   0.427  0.00  0.00    -0.325 N 
ATOM     12  H   UNL     1       5.520  -8.421   1.081  0.00  0.00    +0.159 HD
ATOM     13  H   UNL     1       2.707  -6.638   0.130  0.00  0.00    +0.169 HD
ATOM     14  H   UNL     1       4.772  -9.926   1.073  0.00  0.00    +0.159 HD
ATOM     15  H   UNL     1       2.454 -10.088   0.876  0.00  0.00    +0.172 HD
ATOM     16  H   UNL     1       0.208 -10.317   0.200  0.00  0.00    +0.172 HD
ENDROOT
BRANCH  11  17
ATOM     17  C   UNL     1       4.680  -6.256   0.602  0.00  0.00    +0.084 A 
ATOM     18  C   UNL     1       4.785  -5.416   1.701  0.00  0.00    +0.029 A 
ATOM     19  C   UNL     1       5.916  -4.640   1.871  0.00  0.00    +0.002 A 
ATOM     20  C   UNL     1       6.944  -4.697   0.948  0.00  0.00    +0.004 A 
ATOM     21  C   UNL     1       6.846  -5.532  -0.150  0.00  0.00    +0.048 A 
ATOM     22  C   UNL     1       5.719  -6.318  -0.325  0.00  0.00    +0.143 A 
BRANCH  22  23
ATOM     23  O   UNL     1       5.624  -7.144  -1.401  0.00  0.00    -0.493 OA
ATOM     24  C   UNL     1       6.727  -7.155  -2.309  0.00  0.00    +0.277 C 
ENDBRANCH  22  23
ENDBRANCH  11  17
BRANCH   1  25
ATOM     25  C   UNL     1       0.078  -5.203  -0.679  0.00  0.00    +0.132 C 
BRANCH  25  26
ATOM     26  S   UNL     1       0.074  -4.324   0.907  0.00  0.00    -0.091 S 
BRANCH  26  31
ATOM     27  C   UNL     1       0.016   1.528   0.154  0.00  0.00    +0.075 C 
ATOM     28  C   UNL     1       0.030   0.021   0.127  0.00  0.00    +0.100 A 
ATOM     29  N   UNL     1       0.035  -0.807  -0.898  0.00  0.00    -0.146 NA
ATOM     30  N   UNL     1       0.048  -2.060  -0.750  0.00  0.00    -0.135 NA
ATOM     31  C   UNL     1       0.057  -2.622   0.452  0.00  0.00    +0.159 A 
ATOM     32  S   UNL     1       0.054  -1.154   1.478  0.00  0.00    -0.044 S 
ENDBRANCH  26  31
ENDBRANCH  25  26
ENDBRANCH   1  25
TORSDOF 5
