REMARK  Name = ZINC57663155
REMARK  12 active torsions:
REMARK  status: ('A' for Active; 'I' for Inactive)
REMARK    1  A    between atoms: C_1  and  C_2
REMARK    2  A    between atoms: N_8  and  C_9
REMARK    3  A    between atoms: C_9  and  C_10
REMARK    4  A    between atoms: C_10  and  C_11
REMARK    5  A    between atoms: C_11  and  C_13
REMARK    6  A    between atoms: C_11  and  O_25
REMARK    7  A    between atoms: C_16  and  O_20
REMARK    8  A    between atoms: C_17  and  N_19
REMARK    9  A    between atoms: O_20  and  C_21
REMARK   10  A    between atoms: C_21  and  C_22
REMARK   11  A    between atoms: C_22  and  C_23
REMARK   12  A    between atoms: C_22  and  C_24
REMARK                            x       y       z     vdW  Elec       q    Type
REMARK                         _______ _______ _______ _____ _____    ______ ____
ROOT
ATOM      1  C   UNL     1       0.934  -0.289   6.110  0.00  0.00    -0.017 A 
ATOM      2  C   UNL     1       2.050   0.385   6.571  0.00  0.00    +0.010 A 
ATOM      3  C   UNL     1       2.720  -0.067   7.692  0.00  0.00    +0.048 A 
ATOM      4  C   UNL     1       2.275  -1.197   8.358  0.00  0.00    +0.141 A 
ATOM      5  C   UNL     1       1.151  -1.877   7.894  0.00  0.00    +0.067 A 
ATOM      6  C   UNL     1       0.480  -1.415   6.771  0.00  0.00    +0.032 A 
ENDROOT
BRANCH   5   7
ATOM      7  N   UNL     1       0.696  -3.019   8.562  0.00  0.00    -0.355 N 
ATOM      8  H   UNL     1       1.164  -3.340   9.349  0.00  0.00    +0.142 HD
ATOM      9  H   UNL     1      -0.087  -3.491   8.238  0.00  0.00    +0.142 HD
ENDBRANCH   5   7
BRANCH   1  10
ATOM     10  C   UNL     1       0.207   0.209   4.887  0.00  0.00    +0.143 C 
BRANCH  10  11
ATOM     11  O   UNL     1       0.254   1.637   4.854  0.00  0.00    -0.387 OA
ATOM     12  H   UNL     1       1.149   2.000   4.821  0.00  0.00    +0.210 HD
ENDBRANCH  10  11
BRANCH  10  13
ATOM     13  C   UNL     1       0.877  -0.353   3.631  0.00  0.00    +0.017 C 
BRANCH  13  14
ATOM     14  C   UNL     1       0.067   0.050   2.397  0.00  0.00    -0.076 C 
BRANCH  14  21
ATOM     15  C   UNL     1      -0.019   1.526   0.010  0.00  0.00    -0.013 C 
ATOM     16  C   UNL     1       0.002  -0.004   0.002  0.00  0.00    -0.072 C 
ATOM     17  C   UNL     1       0.717  -0.497  -1.258  0.00  0.00    -0.016 C 
ATOM     18  C   UNL     1       0.735  -2.028  -1.262  0.00  0.00    -0.003 C 
ATOM     19  C   UNL     1       1.410  -2.524   0.020  0.00  0.00    -0.019 C 
ATOM     20  C   UNL     1       0.669  -1.956   1.232  0.00  0.00    -0.078 C 
ATOM     21  N   UNL     1       0.711  -0.490   1.192  0.00  0.00    +0.381 N 
ATOM     22  H   UNL     1       1.671  -0.182   1.159  0.00  0.00    -0.081 HD
ENDBRANCH  14  21
ENDBRANCH  13  14
ENDBRANCH  10  13
ENDBRANCH   1  10
BRANCH   4  23
ATOM     23  O   UNL     1       2.934  -1.643   9.461  0.00  0.00    -0.490 OA
BRANCH  23  24
ATOM     24  C   UNL     1       4.079  -0.897   9.879  0.00  0.00    +0.232 C 
BRANCH  24  25
ATOM     25  C   UNL     1       4.683  -1.545  11.126  0.00  0.00    +0.020 C 
ATOM     26  C   UNL     1       5.213  -2.936  10.772  0.00  0.00    +0.010 C 
ATOM     27  C   UNL     1       5.831  -0.678  11.646  0.00  0.00    +0.010 C 
ENDBRANCH  24  25
ENDBRANCH  23  24
ENDBRANCH   4  23
TORSDOF 9
