REMARK  Name = ZINC50362492
REMARK  8 active torsions:
REMARK  status: ('A' for Active; 'I' for Inactive)
REMARK    1  A    between atoms: C_1  and  C_2
REMARK    2  A    between atoms: C_2  and  N_3
REMARK    3  A    between atoms: N_3  and  C_4
REMARK    4  A    between atoms: N_3  and  C_11
REMARK    5  A    between atoms: C_7  and  C_10
REMARK    6  A    between atoms: C_11  and  C_13
REMARK    7  A    between atoms: C_11  and  C_15
REMARK    8  A    between atoms: C_13  and  N_14
REMARK                            x       y       z     vdW  Elec       q    Type
REMARK                         _______ _______ _______ _____ _____    ______ ____
ROOT
ATOM      1  C   UNL     1       2.154  -0.730   1.251  0.00  0.00    +0.122 C 
ENDROOT
BRANCH   1   2
ATOM      2  C   UNL     1       2.553  -1.678   0.149  0.00  0.00    +0.126 A 
ATOM      3  C   UNL     1       3.444  -2.680   0.258  0.00  0.00    +0.063 A 
ATOM      4  C   UNL     1       3.511  -3.308  -1.008  0.00  0.00    +0.070 A 
ATOM      5  C   UNL     1       2.656  -2.651  -1.815  0.00  0.00    +0.184 A 
ATOM      6  O   UNL     1       2.075  -1.668  -1.107  0.00  0.00    -0.450 OA
ATOM      7 BR   UNL     1       2.324  -3.049  -3.633  0.00  0.00    -0.007 Br
ATOM      8 BR   UNL     1       4.593  -4.786  -1.476  0.00  0.00    -0.046 Br
ENDBRANCH   1   2
BRANCH   1   9
ATOM      9  N   UNL     1       0.711  -0.489   1.189  0.00  0.00    -0.322 N 
BRANCH   9  10
ATOM     10  C   UNL     1      -0.097  -0.799   2.286  0.00  0.00    +0.030 A 
ATOM     11  C   UNL     1      -1.446  -0.467   2.273  0.00  0.00    +0.023 A 
ATOM     12  C   UNL     1      -2.241  -0.774   3.359  0.00  0.00    +0.005 A 
ATOM     13  C   UNL     1      -1.697  -1.412   4.458  0.00  0.00    -0.050 A 
ATOM     14  C   UNL     1      -0.354  -1.744   4.475  0.00  0.00    +0.005 A 
ATOM     15  C   UNL     1       0.446  -1.444   3.390  0.00  0.00    +0.023 A 
ATOM     16  C   UNL     1      -2.568  -1.745   5.642  0.00  0.00    +0.044 C 
ENDBRANCH   9  10
BRANCH   9  18
ATOM     17  C   UNL     1       0.106   1.603   0.076  0.00  0.00    +0.024 C 
ATOM     18  C   UNL     1       0.114   0.076  -0.024  0.00  0.00    +0.102 C 
ENDBRANCH   9  18
ENDBRANCH   1   9
BRANCH   1  19
ATOM     19  C   UNL     1       2.900   0.594   1.080  0.00  0.00    -0.056 C 
BRANCH  19  20
ATOM     20  N   UNL     1       2.424   1.558   2.081  0.00  0.00    +0.380 N 
ATOM     21  H   UNL     1       2.594   1.193   3.006  0.00  0.00    -0.090 HD
ATOM     22  H   UNL     1       2.916   2.431   1.968  0.00  0.00    -0.090 HD
ATOM     23  H   UNL     1       1.434   1.710   1.956  0.00  0.00    -0.090 HD
ENDBRANCH  19  20
ENDBRANCH   1  19
TORSDOF 6
