REMARK  Name = ZINC38681311
REMARK  10 active torsions:
REMARK  status: ('A' for Active; 'I' for Inactive)
REMARK    1  A    between atoms: C_1  and  C_2
REMARK    2  A    between atoms: C_2  and  C_3
REMARK    3  A    between atoms: C_3  and  O_4
REMARK    4  A    between atoms: O_4  and  C_5
REMARK    5  A    between atoms: C_10  and  C_11
REMARK    6  A    between atoms: C_16  and  O_25
REMARK    7  A    between atoms: C_20  and  N_24
REMARK    8  A    between atoms: C_21  and  C_22
REMARK    9  A    between atoms: O_25  and  C_26
REMARK   10  A    between atoms: C_26  and  C_28
REMARK                            x       y       z     vdW  Elec       q    Type
REMARK                         _______ _______ _______ _____ _____    ______ ____
ROOT
ATOM      1  C   UNL     1       0.824  -4.697  -1.293  0.00  0.00    +0.101 C 
ATOM      2  C   UNL     1       1.883  -5.563  -0.662  0.00  0.00    +0.008 A 
ATOM      3  C   UNL     1       2.840  -4.983   0.152  0.00  0.00    +0.012 A 
ATOM      4  C   UNL     1       3.818  -5.761   0.739  0.00  0.00    +0.047 A 
ATOM      5  C   UNL     1       3.844  -7.130   0.513  0.00  0.00    +0.135 A 
ATOM      6  C   UNL     1       2.887  -7.714  -0.301  0.00  0.00    +0.093 A 
ATOM      7  C   UNL     1       1.904  -6.930  -0.891  0.00  0.00    +0.138 A 
ATOM      8  O   UNL     1       0.975  -7.516  -1.685  0.00  0.00    -0.441 OA
ATOM      9  C   UNL     1      -0.181  -6.882  -1.946  0.00  0.00    +0.199 C 
ATOM     10  C   UNL     1      -0.315  -5.548  -1.781  0.00  0.00    +0.098 C 
ENDROOT
BRANCH   1  16
ATOM     11  C   UNL     1       1.429  -2.560  -2.456  0.00  0.00    +0.125 A 
ATOM     12  C   UNL     1       1.984  -1.872  -3.526  0.00  0.00    +0.046 A 
ATOM     13  C   UNL     1       2.521  -2.570  -4.590  0.00  0.00    +0.004 A 
ATOM     14  C   UNL     1       2.507  -3.953  -4.590  0.00  0.00    +0.001 A 
ATOM     15  C   UNL     1       1.955  -4.640  -3.525  0.00  0.00    +0.008 A 
ATOM     16  C   UNL     1       1.421  -3.947  -2.456  0.00  0.00    +0.007 A 
BRANCH  11  17
ATOM     17  O   UNL     1       0.900  -1.876  -1.408  0.00  0.00    -0.492 OA
BRANCH  17  18
ATOM     18  C   UNL     1       0.944  -0.449  -1.476  0.00  0.00    +0.229 C 
BRANCH  18  20
ATOM     19  C   UNL     1       0.353   1.669  -0.289  0.00  0.00    +0.007 C 
ATOM     20  C   UNL     1       0.307   0.141  -0.216  0.00  0.00    +0.038 C 
ENDBRANCH  18  20
ENDBRANCH  17  18
ENDBRANCH  11  17
ENDBRANCH   1  16
BRANCH   9  21
ATOM     21  N   UNL     1      -1.254  -7.611  -2.393  0.00  0.00    -0.328 N 
ATOM     22  H   UNL     1      -1.172  -8.569  -2.517  0.00  0.00    +0.145 HD
ATOM     23  H   UNL     1      -2.095  -7.167  -2.586  0.00  0.00    +0.145 HD
ENDBRANCH   9  21
BRANCH  10  24
ATOM     24  C   UNL     1      -1.573  -4.932  -2.078  0.00  0.00    +0.101 C 
ATOM     25  N   UNL     1      -2.571  -4.444  -2.313  0.00  0.00    -0.191 NA
ENDBRANCH  10  24
BRANCH   5  26
ATOM     26  O   UNL     1       4.806  -7.897   1.090  0.00  0.00    -0.422 OA
BRANCH  26  27
ATOM     27  C   UNL     1       4.762  -8.069   2.426  0.00  0.00    +0.346 C 
ATOM     28  O   UNL     1       3.824  -7.635   3.063  0.00  0.00    -0.244 OA
BRANCH  27  29
ATOM     29  C   UNL     1       5.854  -8.786   3.114  0.00  0.00    +0.073 A 
ATOM     30  C   UNL     1       6.937  -9.282   2.385  0.00  0.00    +0.016 A 
ATOM     31  C   UNL     1       7.953  -9.950   3.035  0.00  0.00    +0.001 A 
ATOM     32  C   UNL     1       7.902 -10.131   4.406  0.00  0.00    +0.001 A 
ATOM     33  C   UNL     1       6.833  -9.644   5.135  0.00  0.00    +0.016 A 
ATOM     34  C   UNL     1       5.811  -8.967   4.499  0.00  0.00    +0.032 A 
ATOM     35 BR   UNL     1       4.354  -8.293   5.498  0.00  0.00    -0.049 Br
ENDBRANCH  27  29
ENDBRANCH  26  27
ENDBRANCH   5  26
TORSDOF 9
