REMARK  Name = ZINC09167179
REMARK  10 active torsions:
REMARK  status: ('A' for Active; 'I' for Inactive)
REMARK    1  A    between atoms: C_1  and  C_2
REMARK    2  A    between atoms: C_2  and  C_3
REMARK    3  A    between atoms: C_3  and  C_5
REMARK    4  A    between atoms: C_3  and  C_6
REMARK    5  A    between atoms: C_6  and  C_8
REMARK    6  A    between atoms: C_6  and  N_20
REMARK    7  A    between atoms: N_10  and  C_11
REMARK    8  A    between atoms: C_11  and  C_13
REMARK    9  A    between atoms: C_11  and  C_14
REMARK   10  A    between atoms: C_21  and  C_23
REMARK                            x       y       z     vdW  Elec       q    Type
REMARK                         _______ _______ _______ _____ _____    ______ ____
ROOT
ATOM      1  C   UNL     1       6.056   2.138   2.434  0.00  0.00    +0.162 C 
ENDROOT
BRANCH   1   2
ATOM      2  C   UNL     1       6.123   2.259   3.935  0.00  0.00    +0.234 C 
ATOM      3  O   UNL     1       5.128   2.078   4.603  0.00  0.00    -0.274 OA
ATOM      4  N   UNL     1       7.290   2.569   4.535  0.00  0.00    -0.307 N 
ATOM      5  H   UNL     1       8.071   2.776   3.998  0.00  0.00    +0.149 HD
BRANCH   4   6
ATOM      6  C   UNL     1       7.378   2.592   5.997  0.00  0.00    +0.100 C 
ATOM      7  C   UNL     1       7.657   1.179   6.514  0.00  0.00    +0.033 C 
BRANCH   6   8
ATOM      8  C   UNL     1       8.497   3.510   6.418  0.00  0.00    -0.027 A 
ATOM      9  C   UNL     1       9.686   3.519   5.714  0.00  0.00    +0.005 A 
ATOM     10  C   UNL     1      10.711   4.364   6.098  0.00  0.00    +0.000 A 
ATOM     11  C   UNL     1      10.549   5.194   7.191  0.00  0.00    +0.000 A 
ATOM     12  C   UNL     1       9.361   5.183   7.898  0.00  0.00    +0.000 A 
ATOM     13  C   UNL     1       8.335   4.340   7.511  0.00  0.00    +0.005 A 
ENDBRANCH   6   8
ENDBRANCH   4   6
ENDBRANCH   1   2
BRANCH   1  14
ATOM     14  N   UNL     1       4.691   1.791   2.033  0.00  0.00    -0.305 N 
ATOM     15  C   UNL     1       4.198   2.241   0.862  0.00  0.00    +0.200 C 
ATOM     16  O   UNL     1       4.850   3.006   0.183  0.00  0.00    -0.278 OA
ATOM     17  H   UNL     1       4.141   1.238   2.610  0.00  0.00    +0.149 HD
BRANCH  15  18
ATOM     18  C   UNL     1       2.837   1.794   0.396  0.00  0.00    +0.021 C 
ATOM     19  C   UNL     1       2.939   0.402  -0.229  0.00  0.00    +0.028 C 
ATOM     20  C   UNL     1       1.643   0.048  -0.911  0.00  0.00    -0.047 A 
ATOM     21  C   UNL     1       1.403  -1.280  -1.228  0.00  0.00    +0.004 A 
ATOM     22  C   UNL     1       0.233  -1.647  -1.861  0.00  0.00    +0.000 A 
ATOM     23  C   UNL     1      -0.706  -0.684  -2.181  0.00  0.00    +0.000 A 
ATOM     24  C   UNL     1      -0.470   0.639  -1.864  0.00  0.00    +0.002 A 
ATOM     25  C   UNL     1       0.705   1.008  -1.226  0.00  0.00    -0.061 A 
ATOM     26  C   UNL     1       0.916   2.463  -0.898  0.00  0.00    -0.045 C 
ATOM     27  N   UNL     1       2.335   2.732  -0.626  0.00  0.00    +0.389 N 
ATOM     28  H   UNL     1       2.875   2.613  -1.491  0.00  0.00    -0.084 HD
ATOM     29  H   UNL     1       2.440   3.695  -0.286  0.00  0.00    -0.084 HD
ENDBRANCH  15  18
ENDBRANCH   1  14
BRANCH   1  30
ATOM     30  C   UNL     1       7.019   1.044   1.968  0.00  0.00    +0.015 C 
ATOM     31  C   UNL     1       7.091   1.046   0.439  0.00  0.00    +0.010 C 
BRANCH  30  33
ATOM     32  C   UNL     1       6.612  -0.383   3.978  0.00  0.00    +0.004 C 
ATOM     33  C   UNL     1       6.516  -0.318   2.452  0.00  0.00    +0.002 C 
ENDBRANCH  30  33
ENDBRANCH   1  30
TORSDOF 7
