REMARK  Name = ZINC17026035
REMARK  4 active torsions:
REMARK  status: ('A' for Active; 'I' for Inactive)
REMARK    1  A    between atoms: C_1  and  C_2
REMARK    2  A    between atoms: C_5  and  C_9
REMARK    3  A    between atoms: C_6  and  C_8
REMARK    4  A    between atoms: N_14  and  C_15
REMARK                            x       y       z     vdW  Elec       q    Type
REMARK                         _______ _______ _______ _____ _____    ______ ____
ROOT
ATOM      1  C   UNL     1       1.255  -0.640  -0.108  0.00  0.00    +0.080 A 
ATOM      2  C   UNL     1       2.385   0.122  -0.222  0.00  0.00    +0.076 A 
ATOM      3  S   UNL     1       1.676   1.763  -0.262  0.00  0.00    -0.060 S 
ATOM      4  C   UNL     1      -0.037   1.269  -0.124  0.00  0.00    +0.163 A 
ATOM      5  N   UNL     1       0.073  -0.045  -0.062  0.00  0.00    -0.225 NA
ATOM      6  N   UNL     1      -1.178   2.057  -0.096  0.00  0.00    -0.299 N 
ATOM      7  H   UNL     1      -2.052   1.643  -0.021  0.00  0.00    +0.154 HD
ENDROOT
BRANCH   6   8
ATOM      8  C   UNL     1      -1.073   3.402  -0.172  0.00  0.00    +0.092 C 
ATOM      9  C   UNL     1      -2.200   4.192  -0.046  0.00  0.00    +0.113 C 
ATOM     10  C   UNL     1      -3.548   3.602   0.032  0.00  0.00    +0.256 C 
ATOM     11  O   UNL     1      -3.706   2.396  -0.013  0.00  0.00    -0.270 OA
ATOM     12  N   UNL     1      -4.602   4.434   0.160  0.00  0.00    -0.263 N 
ATOM     13  C   UNL     1      -4.442   5.764   0.206  0.00  0.00    +0.143 C 
ATOM     14  S   UNL     1      -5.838   6.743   0.362  0.00  0.00    -0.018 S 
ATOM     15  N   UNL     1      -3.248   6.369   0.135  0.00  0.00    -0.263 N 
ATOM     16  C   UNL     1      -2.106   5.662   0.011  0.00  0.00    +0.256 C 
ATOM     17  O   UNL     1      -1.028   6.222  -0.052  0.00  0.00    -0.270 OA
ATOM     18  H   UNL     1      -5.496   4.062   0.217  0.00  0.00    +0.157 HD
ATOM     19  H   UNL     1      -3.204   7.337   0.174  0.00  0.00    +0.157 HD
ENDBRANCH   6   8
BRANCH   1  24
ATOM     20  C   UNL     1       1.632  -6.380   0.167  0.00  0.00    +0.044 C 
ATOM     21  C   UNL     1       1.534  -4.878   0.095  0.00  0.00    -0.050 A 
ATOM     22  C   UNL     1       2.238  -4.186  -0.874  0.00  0.00    +0.004 A 
ATOM     23  C   UNL     1       2.148  -2.812  -0.948  0.00  0.00    +0.010 A 
ATOM     24  C   UNL     1       1.352  -2.118  -0.037  0.00  0.00    +0.004 A 
ATOM     25  C   UNL     1       0.645  -2.820   0.938  0.00  0.00    -0.041 A 
ATOM     26  C   UNL     1       0.739  -4.196   0.999  0.00  0.00    +0.007 A 
ATOM     27  C   UNL     1      -0.222  -2.078   1.922  0.00  0.00    +0.044 C 
ENDBRANCH   1  24
TORSDOF 2
