REMARK  Name = ZINC22635335
REMARK  14 active torsions:
REMARK  status: ('A' for Active; 'I' for Inactive)
REMARK    1  A    between atoms: C_1  and  C_2
REMARK    2  A    between atoms: C_5  and  N_9
REMARK    3  A    between atoms: C_6  and  C_8
REMARK    4  A    between atoms: C_10  and  C_12
REMARK    5  A    between atoms: C_16  and  N_17
REMARK    6  A    between atoms: C_18  and  C_20
REMARK    7  A    between atoms: C_20  and  N_21
REMARK    8  A    between atoms: N_24  and  C_27
REMARK    9  A    between atoms: C_27  and  C_28
REMARK   10  A    between atoms: C_28  and  O_29
REMARK   11  A    between atoms: C_31  and  C_35
REMARK   12  A    between atoms: C_35  and  C_36
REMARK   13  A    between atoms: C_35  and  C_37
REMARK   14  A    between atoms: C_35  and  C_38
REMARK                            x       y       z     vdW  Elec       q    Type
REMARK                         _______ _______ _______ _____ _____    ______ ____
ROOT
ATOM      1  C   UNL     1      -2.281  -3.689  -0.080  0.00  0.00    +0.069 A 
ATOM      2  C   UNL     1      -1.784  -5.001  -0.459  0.00  0.00    -0.023 A 
ATOM      3  C   UNL     1      -0.442  -5.096  -0.575  0.00  0.00    -0.004 A 
ATOM      4  S   UNL     1       0.161  -3.475  -0.198  0.00  0.00    -0.077 S 
ATOM      5  C   UNL     1      -1.347  -2.680   0.111  0.00  0.00    +0.084 A 
ATOM      6  C   UNL     1       0.348  -6.314  -0.943  0.00  0.00    +0.046 C 
ATOM      7  C   UNL     1      -0.564  -7.542  -0.806  0.00  0.00    -0.000 C 
ATOM      8  C   UNL     1      -1.894  -7.249  -1.506  0.00  0.00    +0.009 C 
ATOM      9  C   UNL     1      -2.682  -6.206  -0.710  0.00  0.00    +0.037 C 
ENDROOT
BRANCH   1  11
ATOM     10  N   UNL     1      -4.291  -3.614   1.296  0.00  0.00    -0.281 N 
ATOM     11  C   UNL     1      -3.715  -3.439   0.091  0.00  0.00    +0.251 C 
ATOM     12  O   UNL     1      -4.386  -3.073  -0.857  0.00  0.00    -0.270 OA
ATOM     13  H   UNL     1      -3.705  -4.027   2.131  0.00  0.00    +0.155 HD
BRANCH  10  18
ATOM     14  C   UNL     1      -9.734  -2.217   2.071  0.00  0.00    +0.044 C 
ATOM     15  C   UNL     1      -8.288  -2.588   1.865  0.00  0.00    -0.050 A 
ATOM     16  C   UNL     1      -7.580  -2.046   0.807  0.00  0.00    +0.005 A 
ATOM     17  C   UNL     1      -6.255  -2.384   0.616  0.00  0.00    +0.024 A 
ATOM     18  C   UNL     1      -5.633  -3.269   1.487  0.00  0.00    +0.037 A 
ATOM     19  C   UNL     1      -6.348  -3.816   2.545  0.00  0.00    -0.029 A 
ATOM     20  C   UNL     1      -7.672  -3.469   2.734  0.00  0.00    +0.008 A 
ATOM     21  C   UNL     1      -5.679  -4.781   3.489  0.00  0.00    +0.045 C 
ENDBRANCH  10  18
ENDBRANCH   1  11
BRANCH   5  22
ATOM     22  N   UNL     1      -1.567  -1.358   0.467  0.00  0.00    -0.281 N 
ATOM     23  C   UNL     1      -0.524  -0.517   0.613  0.00  0.00    +0.201 C 
ATOM     24  O   UNL     1       0.607  -0.916   0.432  0.00  0.00    -0.278 OA
ATOM     25  H   UNL     1      -2.592  -0.996   0.630  0.00  0.00    +0.155 HD
BRANCH  23  26
ATOM     26  C   UNL     1      -0.763   0.920   1.000  0.00  0.00    +0.019 C 
BRANCH  26  27
ATOM     27  N   UNL     1       0.524   1.622   1.093  0.00  0.00    +0.387 N 
ATOM     28  C   UNL     1       1.333   1.095   2.201  0.00  0.00    -0.063 C 
ATOM     29  C   UNL     1       2.693   1.796   2.215  0.00  0.00    +0.066 C 
ATOM     30  N   UNL     1       2.493   3.245   2.356  0.00  0.00    -0.304 NA
ATOM     31  C   UNL     1       1.684   3.773   1.248  0.00  0.00    +0.066 C 
ATOM     32  C   UNL     1       0.324   3.071   1.234  0.00  0.00    -0.063 C 
ATOM     33  H   UNL     1       1.073   1.445   0.157  0.00  0.00    -0.081 HD
BRANCH  30  34
ATOM     34  C   UNL     1       3.779   3.948   2.449  0.00  0.00    +0.112 C 
BRANCH  34  35
ATOM     35  C   UNL     1       4.712   3.454   1.341  0.00  0.00    +0.171 C 
BRANCH  35  36
ATOM     36  O   UNL     1       4.179   3.828   0.069  0.00  0.00    -0.394 OA
ATOM     37  H   UNL     1       4.715   3.557  -0.853  0.00  0.00    +0.209 HD
ENDBRANCH  35  36
ENDBRANCH  34  35
ENDBRANCH  30  34
ENDBRANCH  26  27
ENDBRANCH  23  26
ENDBRANCH   5  22
BRANCH   7  38
ATOM     38  C   UNL     1       0.104  -8.752  -1.461  0.00  0.00    -0.035 C 
ATOM     39  C   UNL     1       1.441  -9.033  -0.771  0.00  0.00    +0.011 C 
ATOM     40  C   UNL     1      -0.806  -9.974  -1.324  0.00  0.00    +0.011 C 
ATOM     41  C   UNL     1       0.347  -8.461  -2.943  0.00  0.00    +0.011 C 
ENDBRANCH   7  38
TORSDOF 9
