REMARK  Name = ZINC53125641
REMARK  5 active torsions:
REMARK  status: ('A' for Active; 'I' for Inactive)
REMARK    1  A    between atoms: C_1  and  C_2
REMARK    2  A    between atoms: C_7  and  C_9
REMARK    3  A    between atoms: C_7  and  N_11
REMARK    4  A    between atoms: C_9  and  O_10
REMARK    5  A    between atoms: N_11  and  C_12
REMARK                            x       y       z     vdW  Elec       q    Type
REMARK                         _______ _______ _______ _____ _____    ______ ____
ROOT
ATOM      1  C   UNL     1      -1.057   1.306   0.368  0.00  0.00    +0.007 C 
ATOM      2  C   UNL     1      -0.855  -0.211   0.405  0.00  0.00    -0.015 C 
ATOM      3  C   UNL     1      -2.156  -0.888   0.841  0.00  0.00    +0.003 C 
ATOM      4  C   UNL     1      -1.954  -2.404   0.877  0.00  0.00    -0.001 C 
ATOM      5  C   UNL     1      -0.843  -2.747   1.872  0.00  0.00    -0.010 C 
ATOM      6  C   UNL     1       0.458  -2.069   1.436  0.00  0.00    -0.044 C 
ATOM      7  C   UNL     1       0.256  -0.553   1.399  0.00  0.00    -0.007 C 
ENDROOT
BRANCH   6   8
ATOM      8  N   UNL     1       1.525  -2.398   2.391  0.00  0.00    +0.387 N 
ATOM      9  H   UNL     1       2.361  -1.888   2.150  0.00  0.00    -0.085 HD
ATOM     10  H   UNL     1       1.233  -2.143   3.323  0.00  0.00    -0.085 HD
BRANCH   8  11
ATOM     11  C   UNL     1       1.800  -3.840   2.341  0.00  0.00    -0.048 C 
ATOM     12  C   UNL     1       2.433  -4.294   3.667  0.00  0.00    +0.008 C 
ATOM     13  C   UNL     1       3.015  -5.720   3.513  0.00  0.00    +0.164 C 
ATOM     14  S   UNL     1       3.429  -5.796   1.722  0.00  0.00    -0.033 S 
ATOM     15  O   UNL     1       2.640  -6.806   1.108  0.00  0.00    -0.174 OA
ATOM     16  O   UNL     1       4.842  -5.826   1.575  0.00  0.00    -0.174 OA
ATOM     17  C   UNL     1       2.805  -4.144   1.195  0.00  0.00    +0.150 C 
ENDBRANCH   8  11
ENDBRANCH   6   8
BRANCH   6  18
ATOM     18  C   UNL     1       0.850  -2.565   0.043  0.00  0.00    +0.143 C 
BRANCH  18  19
ATOM     19  O   UNL     1       2.134  -2.044  -0.305  0.00  0.00    -0.396 OA
ATOM     20  H   UNL     1       2.447  -2.318  -1.178  0.00  0.00    +0.209 HD
ENDBRANCH  18  19
ENDBRANCH   6  18
TORSDOF 4
