REMARK  Name = ZINC65493891
REMARK  12 active torsions:
REMARK  status: ('A' for Active; 'I' for Inactive)
REMARK    1  A    between atoms: C_1  and  C_2
REMARK    2  A    between atoms: C_2  and  C_3
REMARK    3  A    between atoms: C_2  and  C_4
REMARK    4  A    between atoms: C_4  and  C_5
REMARK    5  A    between atoms: C_5  and  C_27
REMARK    6  A    between atoms: N_9  and  C_26
REMARK    7  A    between atoms: C_13  and  C_16
REMARK    8  A    between atoms: C_21  and  O_22
REMARK    9  A    between atoms: O_22  and  C_23
REMARK   10  A    between atoms: C_23  and  C_24
REMARK   11  A    between atoms: C_24  and  O_25
REMARK   12  A    between atoms: C_27  and  O_28
REMARK                            x       y       z     vdW  Elec       q    Type
REMARK                         _______ _______ _______ _____ _____    ______ ____
ROOT
ATOM      1  C   UNL     1      -1.871  -0.253  -1.311  0.00  0.00    +0.044 C 
ATOM      2  C   UNL     1      -3.388  -0.535  -1.332  0.00  0.00    -0.002 C 
ATOM      3  C   UNL     1      -4.062   0.441  -2.318  0.00  0.00    -0.074 C 
ATOM      4  N   UNL     1      -5.009  -0.400  -3.094  0.00  0.00    +0.378 N 
ATOM      5  C   UNL     1      -4.267  -1.666  -3.324  0.00  0.00    -0.074 C 
ATOM      6  C   UNL     1      -3.522  -1.938  -1.984  0.00  0.00    -0.003 C 
ATOM      7  C   UNL     1      -2.075  -2.370  -2.295  0.00  0.00    +0.090 C 
ATOM      8  N   UNL     1      -1.315  -1.098  -2.397  0.00  0.00    -0.301 NA
ATOM      9  C   UNL     1      -5.338   0.242  -4.373  0.00  0.00    -0.096 C 
ATOM     10  H   UNL     1      -1.453  -0.666  -3.299  0.00  0.00    +0.123 HD
ATOM     11  H   UNL     1      -5.846  -0.574  -2.559  0.00  0.00    -0.082 HD
ENDROOT
BRANCH   7  12
ATOM     12  C   UNL     1      -2.020  -3.123  -3.599  0.00  0.00    +0.011 A 
ATOM     13  C   UNL     1      -1.593  -2.486  -4.748  0.00  0.00    +0.009 A 
ATOM     14  C   UNL     1      -1.544  -3.177  -5.945  0.00  0.00    +0.001 A 
ATOM     15  C   UNL     1      -1.921  -4.506  -5.995  0.00  0.00    +0.004 A 
ATOM     16  C   UNL     1      -2.348  -5.148  -4.848  0.00  0.00    +0.046 A 
ATOM     17  C   UNL     1      -2.393  -4.459  -3.645  0.00  0.00    +0.125 A 
BRANCH  17  18
ATOM     18  O   UNL     1      -2.808  -5.089  -2.515  0.00  0.00    -0.489 OA
BRANCH  18  19
ATOM     19  C   UNL     1      -3.177  -6.464  -2.637  0.00  0.00    +0.256 C 
BRANCH  19  20
ATOM     20  C   UNL     1      -3.612  -6.999  -1.271  0.00  0.00    +0.196 C 
BRANCH  20  21
ATOM     21  O   UNL     1      -4.801  -6.325  -0.853  0.00  0.00    -0.392 OA
ATOM     22  H   UNL     1      -5.135  -6.614   0.007  0.00  0.00    +0.210 HD
ENDBRANCH  20  21
ENDBRANCH  19  20
ENDBRANCH  18  19
ENDBRANCH  17  18
ENDBRANCH   7  12
BRANCH   1  23
ATOM     23  C   UNL     1      -1.273  -0.656   0.038  0.00  0.00    +0.027 C 
BRANCH  23  25
ATOM     24  C   UNL     1      -3.211   0.241   1.335  0.00  0.00    +0.007 C 
ATOM     25  C   UNL     1      -1.702   0.350   1.108  0.00  0.00    -0.015 C 
ATOM     26  C   UNL     1      -0.967   0.049   2.416  0.00  0.00    +0.007 C 
ENDBRANCH  23  25
ENDBRANCH   1  23
BRANCH   1  27
ATOM     27  C   UNL     1      -1.598   1.226  -1.593  0.00  0.00    +0.178 C 
BRANCH  27  28
ATOM     28  O   UNL     1      -0.191   1.469  -1.541  0.00  0.00    -0.393 OA
ATOM     29  H   UNL     1       0.052   2.400  -1.635  0.00  0.00    +0.209 HD
ENDBRANCH  27  28
ENDBRANCH   1  27
TORSDOF 9
