REMARK  Name = ZINC37245970
REMARK  8 active torsions:
REMARK  status: ('A' for Active; 'I' for Inactive)
REMARK    1  A    between atoms: C_1  and  C_2
REMARK    2  A    between atoms: C_5  and  O_38
REMARK    3  A    between atoms: C_18  and  C_37
REMARK    4  A    between atoms: C_19  and  O_36
REMARK    5  A    between atoms: C_21  and  C_32
REMARK    6  A    between atoms: C_23  and  C_25
REMARK    7  A    between atoms: C_32  and  O_34
REMARK    8  A    between atoms: O_34  and  C_35
REMARK                            x       y       z     vdW  Elec       q    Type
REMARK                         _______ _______ _______ _____ _____    ______ ____
ROOT
ATOM      1  C   UNL     1       0.407   1.400   0.309  0.00  0.00    +0.012 C 
ATOM      2  C   UNL     1       0.358  -0.135   0.267  0.00  0.00    -0.026 C 
ATOM      3  C   UNL     1       1.109  -0.640  -0.958  0.00  0.00    +0.010 C 
ATOM      4  C   UNL     1       2.590  -0.268  -0.875  0.00  0.00    +0.032 C 
ATOM      5  C   UNL     1       3.199  -0.868   0.392  0.00  0.00    +0.115 C 
ATOM      6  C   UNL     1       2.470  -0.331   1.622  0.00  0.00    +0.035 C 
ATOM      7  C   UNL     1       0.983  -0.680   1.553  0.00  0.00    -0.002 C 
ATOM      8  C   UNL     1       0.815  -2.191   1.685  0.00  0.00    +0.004 C 
ATOM      9  C   UNL     1      -0.667  -2.583   1.599  0.00  0.00    +0.007 C 
ATOM     10  C   UNL     1      -1.174  -2.095   0.248  0.00  0.00    +0.025 C 
ATOM     11  C   UNL     1      -1.111  -0.567   0.217  0.00  0.00    +0.001 C 
ATOM     12  C   UNL     1      -1.862  -0.040  -0.992  0.00  0.00    +0.005 C 
ATOM     13  C   UNL     1      -3.368  -0.353  -0.893  0.00  0.00    +0.010 C 
ATOM     14  C   UNL     1      -3.627  -1.545  -0.015  0.00  0.00    +0.005 C 
ATOM     15  C   UNL     1      -2.520  -2.607  -0.167  0.00  0.00    +0.076 C 
ATOM     16  C   UNL     1      -3.086  -3.781   0.648  0.00  0.00    +0.051 C 
ATOM     17  C   UNL     1      -4.604  -3.747   0.334  0.00  0.00    +0.109 C 
ATOM     18  C   UNL     1      -4.901  -2.359  -0.289  0.00  0.00    +0.044 C 
ATOM     19  C   UNL     1      -3.764  -1.089   1.452  0.00  0.00    +0.014 C 
ENDROOT
BRANCH  18  20
ATOM     20  C   UNL     1      -5.232  -2.485  -1.754  0.00  0.00    -0.008 A 
ATOM     21  C   UNL     1      -6.505  -2.928  -2.153  0.00  0.00    +0.014 A 
ATOM     22  C   UNL     1      -6.781  -3.033  -3.484  0.00  0.00    +0.092 A 
ATOM     23  C   UNL     1      -5.784  -2.696  -4.417  0.00  0.00    +0.337 A 
ATOM     24  O   UNL     1      -6.013  -2.784  -5.612  0.00  0.00    -0.245 OA
ATOM     25  O   UNL     1      -4.580  -2.277  -3.993  0.00  0.00    -0.430 OA
ATOM     26  C   UNL     1      -4.308  -2.167  -2.685  0.00  0.00    +0.203 A 
ENDBRANCH  18  20
BRANCH  17  27
ATOM     27  C   UNL     1      -4.964  -4.840  -0.639  0.00  0.00    +0.311 C 
ATOM     28  O   UNL     1      -4.141  -5.242  -1.427  0.00  0.00    -0.251 OA
BRANCH  27  29
ATOM     29  O   UNL     1      -6.198  -5.367  -0.629  0.00  0.00    -0.468 OA
ATOM     30  C   UNL     1      -6.469  -6.400  -1.579  0.00  0.00    +0.280 C 
ENDBRANCH  27  29
ENDBRANCH  17  27
BRANCH  15  31
ATOM     31  O   UNL     1      -2.421  -3.024  -1.547  0.00  0.00    -0.388 OA
ATOM     32  H   UNL     1      -1.763  -3.715  -1.703  0.00  0.00    +0.210 HD
ENDBRANCH  15  31
BRANCH   5  33
ATOM     33  O   UNL     1       4.583  -0.512   0.467  0.00  0.00    -0.392 OA
ATOM     34  H   UNL     1       5.111  -0.825  -0.280  0.00  0.00    +0.210 HD
ENDBRANCH   5  33
TORSDOF 5
