REMARK  Name = ZINC66474107
REMARK  9 active torsions:
REMARK  status: ('A' for Active; 'I' for Inactive)
REMARK    1  A    between atoms: C_1  and  C_2
REMARK    2  A    between atoms: C_2  and  C_3
REMARK    3  A    between atoms: C_3  and  C_4
REMARK    4  A    between atoms: C_4  and  N_5
REMARK    5  A    between atoms: C_6  and  C_8
REMARK    6  A    between atoms: C_12  and  C_28
REMARK    7  A    between atoms: N_14  and  C_16
REMARK    8  A    between atoms: C_16  and  C_17
REMARK    9  A    between atoms: C_22  and  C_25
REMARK                            x       y       z     vdW  Elec       q    Type
REMARK                         _______ _______ _______ _____ _____    ______ ____
ROOT
ATOM      1  C   UNL     1       2.343  -4.350   3.846  0.00  0.00    +0.058 C 
ATOM      2  C   UNL     1       3.781  -3.822   3.834  0.00  0.00    +0.009 C 
ATOM      3  C   UNL     1       4.511  -4.383   2.611  0.00  0.00    -0.015 C 
ATOM      4  C   UNL     1       4.455  -5.912   2.647  0.00  0.00    -0.071 C 
ATOM      5  N   UNL     1       3.055  -6.354   2.630  0.00  0.00    +0.388 N 
ATOM      6  C   UNL     1       2.366  -5.880   3.837  0.00  0.00    -0.065 C 
ATOM      7  C   UNL     1       5.183  -6.478   1.426  0.00  0.00    -0.013 C 
ATOM      8  H   UNL     1       2.596  -5.981   1.813  0.00  0.00    -0.081 HD
ENDROOT
BRANCH   1  10
ATOM      9  N   UNL     1       1.471  -2.526   2.420  0.00  0.00    -0.315 N 
ATOM     10  C   UNL     1       1.615  -3.850   2.625  0.00  0.00    +0.214 C 
ATOM     11  O   UNL     1       1.157  -4.641   1.827  0.00  0.00    -0.276 OA
ATOM     12  H   UNL     1       1.837  -1.894   3.058  0.00  0.00    +0.149 HD
BRANCH   9  13
ATOM     13  C   UNL     1       0.763  -2.041   1.233  0.00  0.00    +0.104 C 
BRANCH  13  14
ATOM     14  C   UNL     1       0.742  -0.511   1.242  0.00  0.00    +0.018 C 
BRANCH  14  16
ATOM     15  C   UNL     1      -0.019   1.526   0.010  0.00  0.00    +0.004 C 
ATOM     16  C   UNL     1       0.002  -0.004   0.002  0.00  0.00    -0.002 C 
ENDBRANCH  14  16
ENDBRANCH  13  14
ENDBRANCH   9  13
ENDBRANCH   1  10
BRANCH   5  17
ATOM     17  C   UNL     1       3.008  -7.822   2.586  0.00  0.00    +0.019 C 
BRANCH  17  18
ATOM     18  C   UNL     1       1.577  -8.274   2.444  0.00  0.00    +0.199 C 
ATOM     19  O   UNL     1       0.685  -7.455   2.385  0.00  0.00    -0.278 OA
ATOM     20  N   UNL     1       1.289  -9.589   2.383  0.00  0.00    -0.303 N 
ATOM     21  C   UNL     1       2.358 -10.594   2.459  0.00  0.00    +0.108 C 
ATOM     22  C   UNL     1       2.243 -11.529   1.252  0.00  0.00    +0.032 C 
ATOM     23  C   UNL     1       0.831 -12.117   1.199  0.00  0.00    +0.078 C 
ATOM     24  C   UNL     1      -0.188 -10.987   1.033  0.00  0.00    +0.032 C 
ATOM     25  C   UNL     1      -0.101 -10.046   2.244  0.00  0.00    +0.108 C 
BRANCH  23  26
ATOM     26  C   UNL     1       0.724 -13.064   0.031  0.00  0.00    +0.214 C 
ATOM     27  O   UNL     1       1.683 -13.250  -0.688  0.00  0.00    -0.276 OA
ATOM     28  N   UNL     1      -0.436 -13.703  -0.214  0.00  0.00    -0.329 N 
ATOM     29  H   UNL     1      -1.203 -13.554   0.361  0.00  0.00    +0.145 HD
ATOM     30  H   UNL     1      -0.505 -14.313  -0.965  0.00  0.00    +0.145 HD
ENDBRANCH  23  26
ENDBRANCH  17  18
ENDBRANCH   5  17
TORSDOF 7
