REMARK  Name = ZINC05025367
REMARK  12 active torsions:
REMARK  status: ('A' for Active; 'I' for Inactive)
REMARK    1  A    between atoms: C_1  and  C_2
REMARK    2  A    between atoms: C_2  and  C_3
REMARK    3  A    between atoms: C_3  and  C_5
REMARK    4  A    between atoms: C_3  and  C_6
REMARK    5  A    between atoms: C_6  and  C_8
REMARK    6  A    between atoms: C_6  and  N_26
REMARK    7  A    between atoms: C_11  and  S_13
REMARK    8  A    between atoms: S_13  and  C_14
REMARK    9  A    between atoms: C_14  and  C_15
REMARK   10  A    between atoms: N_17  and  C_18
REMARK   11  A    between atoms: C_21  and  C_25
REMARK   12  A    between atoms: C_23  and  C_24
REMARK                            x       y       z     vdW  Elec       q    Type
REMARK                         _______ _______ _______ _____ _____    ______ ____
ROOT
ATOM      1  C   UNL     1      -2.811  -2.624   0.131  0.00  0.00    +0.204 A 
ATOM      2  N   UNL     1      -3.603  -2.719  -0.896  0.00  0.00    -0.113 NA
ATOM      3  N   UNL     1      -4.738  -3.197  -0.523  0.00  0.00    -0.101 NA
ATOM      4  C   UNL     1      -4.709  -3.425   0.768  0.00  0.00    +0.278 A 
ATOM      5  O   UNL     1      -3.486  -3.072   1.208  0.00  0.00    -0.417 OA
ENDROOT
BRANCH   1   6
ATOM      6  C   UNL     1      -1.395  -2.111   0.118  0.00  0.00    +0.017 C 
BRANCH   6   7
ATOM      7  N   UNL     1      -0.674  -2.691  -1.022  0.00  0.00    +0.386 N 
ATOM      8  H   UNL     1      -1.135  -2.427  -1.881  0.00  0.00    -0.089 HD
ATOM      9  H   UNL     1       0.275  -2.347  -1.031  0.00  0.00    -0.089 HD
ATOM     10  H   UNL     1      -0.667  -3.696  -0.940  0.00  0.00    -0.089 HD
ENDBRANCH   6   7
BRANCH   6  11
ATOM     11  C   UNL     1      -1.405  -0.586  -0.007  0.00  0.00    -0.020 C 
ATOM     12  C   UNL     1      -2.104  -0.186  -1.308  0.00  0.00    +0.006 C 
BRANCH  11  14
ATOM     13  C   UNL     1       0.021   1.465  -0.020  0.00  0.00    +0.004 C 
ATOM     14  C   UNL     1       0.033  -0.065  -0.020  0.00  0.00    -0.001 C 
ENDBRANCH  11  14
ENDBRANCH   6  11
ENDBRANCH   1   6
BRANCH   4  15
ATOM     15  S   UNL     1      -6.022  -4.079   1.744  0.00  0.00    -0.056 S 
BRANCH  15  16
ATOM     16  C   UNL     1      -7.364  -4.344   0.553  0.00  0.00    +0.175 C 
BRANCH  16  17
ATOM     17  C   UNL     1      -8.565  -4.909   1.266  0.00  0.00    +0.228 C 
ATOM     18  O   UNL     1      -8.520  -5.113   2.461  0.00  0.00    -0.275 OA
ATOM     19  N   UNL     1      -9.689  -5.187   0.577  0.00  0.00    -0.285 N 
ATOM     20  H   UNL     1      -9.754  -4.950  -0.361  0.00  0.00    +0.155 HD
BRANCH  19  21
ATOM     21  C   UNL     1     -10.763  -5.818   1.215  0.00  0.00    +0.036 A 
ATOM     22  C   UNL     1     -10.540  -6.606   2.337  0.00  0.00    +0.024 A 
ATOM     23  C   UNL     1     -11.602  -7.228   2.964  0.00  0.00    +0.005 A 
ATOM     24  C   UNL     1     -12.886  -7.066   2.476  0.00  0.00    -0.050 A 
ATOM     25  C   UNL     1     -13.111  -6.283   1.359  0.00  0.00    +0.008 A 
ATOM     26  C   UNL     1     -12.054  -5.653   0.731  0.00  0.00    -0.029 A 
ATOM     27  C   UNL     1     -12.301  -4.794  -0.482  0.00  0.00    +0.045 C 
ATOM     28  C   UNL     1     -14.042  -7.746   3.163  0.00  0.00    +0.044 C 
ENDBRANCH  19  21
ENDBRANCH  16  17
ENDBRANCH  15  16
ENDBRANCH   4  15
TORSDOF 8
