REMARK  Name = ZINC35369316
REMARK  6 active torsions:
REMARK  status: ('A' for Active; 'I' for Inactive)
REMARK    1  A    between atoms: C_1  and  O_2
REMARK    2  A    between atoms: O_2  and  C_3
REMARK    3  A    between atoms: C_3  and  C_5
REMARK    4  A    between atoms: C_5  and  C_31
REMARK    5  A    between atoms: C_6  and  C_24
REMARK    6  A    between atoms: C_8  and  C_21
REMARK                            x       y       z     vdW  Elec       q    Type
REMARK                         _______ _______ _______ _____ _____    ______ ____
ROOT
ATOM      1  C   UNL     1      -1.244  -2.135   0.003  0.00  0.00    +0.184 C 
ATOM      2  C   UNL     1      -2.710  -2.633  -0.134  0.00  0.00    +0.081 C 
ATOM      3  C   UNL     1      -2.513  -4.043  -0.746  0.00  0.00    +0.169 C 
ATOM      4  N   UNL     1      -1.323  -3.947  -1.593  0.00  0.00    -0.315 N 
ATOM      5  C   UNL     1      -0.591  -2.704  -1.269  0.00  0.00    +0.136 C 
ATOM      6  C   UNL     1       0.840  -3.100  -1.017  0.00  0.00    -0.018 A 
ATOM      7  C   UNL     1       1.644  -2.368  -0.174  0.00  0.00    +0.006 A 
ATOM      8  C   UNL     1       2.955  -2.758   0.042  0.00  0.00    +0.000 A 
ATOM      9  C   UNL     1       3.461  -3.882  -0.586  0.00  0.00    +0.001 A 
ATOM     10  C   UNL     1       2.666  -4.623  -1.435  0.00  0.00    +0.008 A 
ATOM     11  C   UNL     1       1.343  -4.237  -1.661  0.00  0.00    -0.019 A 
ATOM     12  C   UNL     1       0.486  -5.018  -2.577  0.00  0.00    +0.023 C 
ATOM     13  C   UNL     1      -0.853  -4.865  -2.519  0.00  0.00    +0.072 C 
ENDROOT
BRANCH   2  14
ATOM     14  C   UNL     1      -3.378  -2.718   1.214  0.00  0.00    -0.040 A 
ATOM     15  C   UNL     1      -2.854  -3.541   2.194  0.00  0.00    +0.005 A 
ATOM     16  C   UNL     1      -3.466  -3.619   3.431  0.00  0.00    +0.015 A 
ATOM     17  C   UNL     1      -4.603  -2.874   3.688  0.00  0.00    +0.018 A 
ATOM     18  C   UNL     1      -5.126  -2.051   2.708  0.00  0.00    +0.015 A 
ATOM     19  C   UNL     1      -4.511  -1.970   1.473  0.00  0.00    +0.005 A 
ATOM     20 BR   UNL     1      -5.441  -2.981   5.380  0.00  0.00    -0.050 Br
ENDBRANCH   2  14
BRANCH   3  21
ATOM     21  C   UNL     1      -3.714  -4.423  -1.573  0.00  0.00    +0.232 C 
ATOM     22  O   UNL     1      -3.678  -4.312  -2.781  0.00  0.00    -0.274 OA
ATOM     23  N   UNL     1      -4.828  -4.886  -0.972  0.00  0.00    -0.328 N 
ATOM     24  H   UNL     1      -4.856  -4.975  -0.007  0.00  0.00    +0.145 HD
ATOM     25  H   UNL     1      -5.600  -5.131  -1.505  0.00  0.00    +0.145 HD
ENDBRANCH   3  21
BRANCH   1  26
ATOM     26  C   UNL     1      -1.185  -0.630   0.010  0.00  0.00    +0.330 C 
ATOM     27  O   UNL     1      -2.208   0.015   0.023  0.00  0.00    -0.249 OA
BRANCH  26  29
ATOM     28  C   UNL     1      -0.017   1.425   0.010  0.00  0.00    +0.280 C 
ATOM     29  O   UNL     1       0.002  -0.004   0.002  0.00  0.00    -0.467 OA
ENDBRANCH  26  29
ENDBRANCH   1  26
BRANCH   1  30
ATOM     30  C   UNL     1      -0.611  -2.689   1.210  0.00  0.00    +0.084 C 
ATOM     31  N   UNL     1      -0.122  -3.117   2.143  0.00  0.00    -0.195 NA
ENDBRANCH   1  30
TORSDOF 5
