REMARK  Name = ZINC42289191
REMARK  8 active torsions:
REMARK  status: ('A' for Active; 'I' for Inactive)
REMARK    1  A    between atoms: C_1  and  C_2
REMARK    2  A    between atoms: C_2  and  C_4
REMARK    3  A    between atoms: C_2  and  N_14
REMARK    4  A    between atoms: C_7  and  S_10
REMARK    5  A    between atoms: S_10  and  N_13
REMARK    6  A    between atoms: C_15  and  C_17
REMARK    7  A    between atoms: C_17  and  C_19
REMARK    8  A    between atoms: C_17  and  N_20
REMARK                            x       y       z     vdW  Elec       q    Type
REMARK                         _______ _______ _______ _____ _____    ______ ____
ROOT
ATOM      1  N   UNL     1       0.688  -0.476  -1.203  0.00  0.00    -0.310 N 
ATOM      2  C   UNL     1       2.031  -0.587  -1.215  0.00  0.00    +0.200 C 
ATOM      3  O   UNL     1       2.672  -0.295  -0.228  0.00  0.00    -0.278 OA
ATOM      4  H   UNL     1       0.175  -0.710  -1.993  0.00  0.00    +0.149 HD
ENDROOT
BRANCH   1   6
ATOM      5  C   UNL     1      -0.019   1.526   0.010  0.00  0.00    +0.033 C 
ATOM      6  C   UNL     1       0.002  -0.004   0.002  0.00  0.00    +0.100 C 
BRANCH   6   7
ATOM      7  C   UNL     1      -1.412  -0.526   0.013  0.00  0.00    -0.027 A 
ATOM      8  C   UNL     1      -2.141  -0.569  -1.161  0.00  0.00    +0.007 A 
ATOM      9  C   UNL     1      -3.438  -1.047  -1.151  0.00  0.00    +0.029 A 
ATOM     10  C   UNL     1      -4.005  -1.483   0.032  0.00  0.00    +0.105 A 
ATOM     11  C   UNL     1      -3.275  -1.441   1.205  0.00  0.00    +0.029 A 
ATOM     12  C   UNL     1      -1.977  -0.966   1.195  0.00  0.00    +0.007 A 
BRANCH  10  13
ATOM     13  S   UNL     1      -5.659  -2.092   0.045  0.00  0.00    +0.056 S 
ATOM     14  O   UNL     1      -6.142  -1.928   1.371  0.00  0.00    -0.153 OA
ATOM     15  O   UNL     1      -6.311  -1.518  -1.080  0.00  0.00    -0.153 OA
BRANCH  13  16
ATOM     16  N   UNL     1      -5.582  -3.723  -0.233  0.00  0.00    -0.204 NA
ATOM     17  H   UNL     1      -4.723  -4.152  -0.364  0.00  0.00    +0.144 HD
ATOM     18  H   UNL     1      -6.397  -4.248  -0.264  0.00  0.00    +0.144 HD
ENDBRANCH  13  16
ENDBRANCH  10  13
ENDBRANCH   6   7
ENDBRANCH   1   6
BRANCH   2  19
ATOM     19  C   UNL     1       2.736  -1.073  -2.455  0.00  0.00    +0.016 C 
ATOM     20  C   UNL     1       2.433  -0.127  -3.618  0.00  0.00    -0.004 C 
BRANCH  19  21
ATOM     21  N   UNL     1       4.185  -1.104  -2.214  0.00  0.00    +0.387 N 
ATOM     22  C   UNL     1       4.473  -2.005  -1.089  0.00  0.00    -0.078 C 
ATOM     23  C   UNL     1       5.960  -2.352  -1.055  0.00  0.00    -0.019 C 
ATOM     24  C   UNL     1       6.748  -1.171  -0.478  0.00  0.00    -0.002 C 
ATOM     25  C   UNL     1       6.829  -0.072  -1.539  0.00  0.00    -0.000 C 
ATOM     26  C   UNL     1       7.151  -0.707  -2.893  0.00  0.00    -0.002 C 
ATOM     27  C   UNL     1       5.950  -0.565  -3.825  0.00  0.00    -0.019 C 
ATOM     28  C   UNL     1       4.871  -1.578  -3.423  0.00  0.00    -0.078 C 
ATOM     29  H   UNL     1       4.507  -0.175  -1.988  0.00  0.00    -0.081 HD
ENDBRANCH  19  21
ENDBRANCH   2  19
TORSDOF 6
