REMARK  Name = ZINC51330068
REMARK  8 active torsions:
REMARK  status: ('A' for Active; 'I' for Inactive)
REMARK    1  A    between atoms: C_1  and  C_2
REMARK    2  A    between atoms: C_3  and  N_15
REMARK    3  A    between atoms: C_4  and  N_14
REMARK    4  A    between atoms: N_6  and  C_8
REMARK    5  A    between atoms: C_16  and  C_17
REMARK    6  A    between atoms: C_20  and  N_23
REMARK    7  A    between atoms: N_23  and  C_24
REMARK    8  A    between atoms: N_23  and  C_25
REMARK                            x       y       z     vdW  Elec       q    Type
REMARK                         _______ _______ _______ _____ _____    ______ ____
ROOT
ATOM      1  C   UNL     1      -0.019   1.503  -0.042  0.00  0.00    +0.064 C 
ATOM      2  C   UNL     1       0.002  -0.003  -0.033  0.00  0.00    +0.040 C 
ATOM      3  C   UNL     1      -1.095  -0.772  -0.018  0.00  0.00    +0.063 C 
ATOM      4  C   UNL     1      -0.631  -2.212  -0.014  0.00  0.00    +0.085 C 
ATOM      5  N   UNL     1       0.838  -2.128  -0.029  0.00  0.00    -0.262 N 
ATOM      6  N   UNL     1       1.150  -0.762  -0.045  0.00  0.00    -0.268 N 
ATOM      7  H   UNL     1       2.050  -0.401  -0.060  0.00  0.00    +0.170 HD
ENDROOT
BRANCH   5   8
ATOM      8  C   UNL     1       1.740  -3.195  -0.031  0.00  0.00    +0.046 A 
ATOM      9  C   UNL     1       1.272  -4.502  -0.024  0.00  0.00    +0.024 A 
ATOM     10  C   UNL     1       2.166  -5.554  -0.027  0.00  0.00    +0.002 A 
ATOM     11  C   UNL     1       3.527  -5.308  -0.036  0.00  0.00    +0.000 A 
ATOM     12  C   UNL     1       3.996  -4.007  -0.043  0.00  0.00    +0.002 A 
ATOM     13  C   UNL     1       3.107  -2.950  -0.046  0.00  0.00    +0.024 A 
ENDBRANCH   5   8
BRANCH   4  14
ATOM     14  N   UNL     1      -1.119  -2.910  -1.211  0.00  0.00    +0.395 N 
ATOM     15  H   UNL     1      -0.782  -2.438  -2.036  0.00  0.00    -0.087 HD
ATOM     16  H   UNL     1      -0.782  -3.861  -1.206  0.00  0.00    -0.087 HD
ATOM     17  H   UNL     1      -2.128  -2.911  -1.212  0.00  0.00    -0.087 HD
ENDBRANCH   4  14
BRANCH   3  18
ATOM     18  N   UNL     1      -2.377  -0.342  -0.007  0.00  0.00    -0.258 NA
ATOM     19  C   UNL     1      -3.356  -1.206   0.008  0.00  0.00    +0.119 C 
BRANCH  19  20
ATOM     20  C   UNL     1      -4.749  -0.737   0.020  0.00  0.00    -0.007 A 
ATOM     21  C   UNL     1      -5.029   0.634   0.010  0.00  0.00    +0.011 A 
ATOM     22  C   UNL     1      -6.335   1.068   0.020  0.00  0.00    +0.024 A 
ATOM     23  C   UNL     1      -7.377   0.145   0.042  0.00  0.00    +0.029 A 
ATOM     24  C   UNL     1      -7.103  -1.219   0.053  0.00  0.00    +0.024 A 
ATOM     25  C   UNL     1      -5.800  -1.662   0.036  0.00  0.00    +0.011 A 
BRANCH  23  26
ATOM     26  N   UNL     1      -8.698   0.589   0.053  0.00  0.00    -0.336 N 
ATOM     27  C   UNL     1      -8.989   2.020   0.169  0.00  0.00    +0.129 C 
ATOM     28  C   UNL     1      -9.796  -0.375  -0.051  0.00  0.00    +0.129 C 
ENDBRANCH  23  26
ENDBRANCH  19  20
ENDBRANCH   3  18
TORSDOF 5
