REMARK  Name = ZINC12378178
REMARK  7 active torsions:
REMARK  status: ('A' for Active; 'I' for Inactive)
REMARK    1  A    between atoms: C_1  and  C_2
REMARK    2  A    between atoms: C_2  and  C_33
REMARK    3  A    between atoms: C_5  and  C_30
REMARK    4  A    between atoms: C_6  and  N_12
REMARK    5  A    between atoms: C_9  and  C_10
REMARK    6  A    between atoms: C_9  and  C_11
REMARK    7  A    between atoms: C_13  and  C_15
REMARK                            x       y       z     vdW  Elec       q    Type
REMARK                         _______ _______ _______ _____ _____    ______ ____
ROOT
ATOM      1  C   UNL     1      -8.972   9.669   2.386  0.00  0.00    -0.010 C 
ATOM      2  C   UNL     1      -9.405   9.719   0.918  0.00  0.00    -0.069 C 
ATOM      3  C   UNL     1      -8.738   8.568   0.155  0.00  0.00    +0.024 C 
ATOM      4  C   UNL     1      -7.242   8.850   0.118  0.00  0.00    -0.026 A 
ATOM      5  C   UNL     1      -6.191   7.856   0.097  0.00  0.00    +0.068 A 
ATOM      6  C   UNL     1      -4.878   8.316   0.087  0.00  0.00    +0.085 A 
ATOM      7  S   UNL     1      -5.061  10.039   0.093  0.00  0.00    -0.079 S 
ATOM      8  C   UNL     1      -6.828  10.139   0.109  0.00  0.00    -0.016 A 
ATOM      9  C   UNL     1      -7.698  11.353   0.112  0.00  0.00    -0.041 C 
ATOM     10  C   UNL     1      -7.212  12.325   1.195  0.00  0.00    -0.005 C 
ATOM     11  C   UNL     1      -7.556  12.054  -1.253  0.00  0.00    -0.005 C 
ATOM     12  C   UNL     1     -10.928   9.500   0.866  0.00  0.00    -0.010 C 
ATOM     13  N   UNL     1      -9.144  11.050   0.311  0.00  0.00    +0.389 N 
ATOM     14  H   UNL     1      -9.543  11.769   0.926  0.00  0.00    -0.084 HD
ATOM     15  H   UNL     1      -9.610  11.085  -0.603  0.00  0.00    -0.084 HD
ENDROOT
BRANCH   5  16
ATOM     16  C   UNL     1      -6.484   6.420   0.082  0.00  0.00    +0.244 C 
ATOM     17  O   UNL     1      -6.594   5.810   1.130  0.00  0.00    -0.270 OA
ATOM     18  N   UNL     1      -6.632   5.774  -1.091  0.00  0.00    -0.325 N 
ATOM     19  H   UNL     1      -6.545   6.260  -1.927  0.00  0.00    +0.145 HD
ATOM     20  H   UNL     1      -6.826   4.824  -1.101  0.00  0.00    +0.145 HD
ENDBRANCH   5  16
BRANCH   6  21
ATOM     21  N   UNL     1      -3.708   7.574   0.073  0.00  0.00    -0.275 N 
ATOM     22  C   UNL     1      -2.514   8.198   0.066  0.00  0.00    +0.256 C 
ATOM     23  O   UNL     1      -2.463   9.414   0.070  0.00  0.00    -0.270 OA
ATOM     24  H   UNL     1      -3.749   6.604   0.070  0.00  0.00    +0.156 HD
BRANCH  22  25
ATOM     25  C   UNL     1      -1.272   7.410   0.051  0.00  0.00    +0.122 A 
ATOM     26  C   UNL     1      -1.312   6.021   0.044  0.00  0.00    +0.032 A 
ATOM     27  C   UNL     1      -0.098   5.309   0.030  0.00  0.00    +0.026 A 
ATOM     28  C   UNL     1      -0.094   3.844   0.023  0.00  0.00    -0.007 A 
ATOM     29  C   UNL     1      -1.282   3.109   0.030  0.00  0.00    +0.009 A 
ATOM     30  C   UNL     1      -1.232   1.745   0.017  0.00  0.00    +0.001 A 
ATOM     31  C   UNL     1      -0.013   1.076   0.008  0.00  0.00    +0.001 A 
ATOM     32  C   UNL     1       1.164   1.764   0.000  0.00  0.00    +0.008 A 
ATOM     33  C   UNL     1       1.149   3.167   0.008  0.00  0.00    -0.017 A 
ATOM     34  C   UNL     1       2.344   3.913   0.001  0.00  0.00    +0.012 A 
ATOM     35  C   UNL     1       2.325   5.269   0.007  0.00  0.00    +0.047 A 
ATOM     36  C   UNL     1       1.126   5.992   0.022  0.00  0.00    +0.140 A 
ATOM     37  O   UNL     1       1.161   7.341   0.028  0.00  0.00    -0.422 OA
ATOM     38  C   UNL     1       0.035   8.073   0.042  0.00  0.00    +0.350 A 
ATOM     39  O   UNL     1       0.101   9.289   0.048  0.00  0.00    -0.244 OA
ENDBRANCH  22  25
ENDBRANCH   6  21
TORSDOF 3
